MODEL 1
REMARK VINA RESULT:      -6.5      0.000      0.000
REMARK  Name = 
REMARK  4 active torsions:
REMARK  status: ('A' for Active; 'I' for Inactive)
REMARK    1  A    between atoms: C_2  and  C_3
REMARK    2  A    between atoms: C_3  and  N_4
REMARK    3  A    between atoms: C_8  and  C_9
REMARK    4  A    between atoms: C_12  and  C_13
REMARK                            x       y       z     vdW  Elec       q    Type
REMARK                         _______ _______ _______ _____ _____    ______ ____
ROOT
ATOM      1  N   UNL     1      15.061  11.903  33.091  0.00  0.00    +0.000 N 
ATOM      2  C   UNL     1      15.182  12.218  34.471  0.00  0.00    +0.000 C 
ATOM      3  O   UNL     1      14.370  13.049  34.948  0.00  0.00    +0.000 OA
ATOM      4  C   UNL     1      16.204  11.619  35.345  0.00  0.00    +0.000 C 
ATOM      5  C   UNL     1      16.350  11.939  36.591  0.00  0.00    +0.000 C 
ATOM      6  C   UNL     1      17.122  10.664  34.752  0.00  0.00    +0.000 C 
ATOM      7  O   UNL     1      18.037  10.081  35.361  0.00  0.00    +0.000 OA
ATOM      8  N   UNL     1      16.994  10.351  33.360  0.00  0.00    +0.000 NA
ATOM      9  C   UNL     1      15.994  10.955  32.568  0.00  0.00    +0.000 C 
ATOM     10  S   UNL     1      15.881  10.570  30.994  0.00  0.00    +0.000 S 
ENDROOT
BRANCH   5  11
ATOM     11  C   UNL     1      17.334  11.390  37.533  0.00  0.00    +0.000 A 
ATOM     12  C   UNL     1      18.569  12.013  37.681  0.00  0.00    +0.000 A 
ATOM     13  C   UNL     1      19.496  11.573  38.587  0.00  0.00    +0.000 A 
ATOM     14  C   UNL     1      19.242  10.470  39.410  0.00  0.00    +0.000 A 
ATOM     15  C   UNL     1      18.017   9.876  39.242  0.00  0.00    +0.000 A 
ATOM     16  C   UNL     1      17.079  10.305  38.339  0.00  0.00    +0.000 A 
BRANCH  14  17
ATOM     17  C   UNL     1      20.267  10.000  40.392  0.00  0.00    +0.000 C 
ATOM     18  C   UNL     1      21.503   9.485  39.692  0.00  0.00    +0.000 C 
ENDBRANCH  14  17
ENDBRANCH   5  11
BRANCH   1  19
ATOM     19  C   UNL     1      14.072  12.480  32.219  0.00  0.00    +0.000 C 
BRANCH  19  21
ATOM     20  C   UNL     1      13.756  14.886  31.979  0.00  0.00    +0.000 C 
ATOM     21  C   UNL     1      14.483  13.786  31.699  0.00  0.00    +0.000 C 
ENDBRANCH  19  21
ENDBRANCH   1  19
TORSDOF 4
ENDMDL
MODEL 2
REMARK VINA RESULT:      -6.4     18.502     19.977
REMARK  Name = 
REMARK  4 active torsions:
REMARK  status: ('A' for Active; 'I' for Inactive)
REMARK    1  A    between atoms: C_2  and  C_3
REMARK    2  A    between atoms: C_3  and  N_4
REMARK    3  A    between atoms: C_8  and  C_9
REMARK    4  A    between atoms: C_12  and  C_13
REMARK                            x       y       z     vdW  Elec       q    Type
REMARK                         _______ _______ _______ _____ _____    ______ ____
ROOT
ATOM      1  N   UNL     1      33.282   0.487  35.313  0.00  0.00    +0.000 N 
ATOM      2  C   UNL     1      33.457   1.662  34.533  0.00  0.00    +0.000 C 
ATOM      3  O   UNL     1      33.171   1.594  33.311  0.00  0.00    +0.000 OA
ATOM      4  C   UNL     1      33.952   2.931  35.092  0.00  0.00    +0.000 C 
ATOM      5  C   UNL     1      34.159   3.990  34.377  0.00  0.00    +0.000 C 
ATOM      6  C   UNL     1      34.270   2.965  36.508  0.00  0.00    +0.000 C 
ATOM      7  O   UNL     1      34.699   3.960  37.119  0.00  0.00    +0.000 OA
ATOM      8  N   UNL     1      34.091   1.777  37.288  0.00  0.00    +0.000 NA
ATOM      9  C   UNL     1      33.612   0.586  36.700  0.00  0.00    +0.000 C 
ATOM     10  S   UNL     1      33.421  -0.739  37.620  0.00  0.00    +0.000 S 
ENDROOT
BRANCH   5  11
ATOM     11  C   UNL     1      34.642   5.293  34.851  0.00  0.00    +0.000 A 
ATOM     12  C   UNL     1      33.734   6.231  35.330  0.00  0.00    +0.000 A 
ATOM     13  C   UNL     1      34.140   7.437  35.836  0.00  0.00    +0.000 A 
ATOM     14  C   UNL     1      35.495   7.783  35.893  0.00  0.00    +0.000 A 
ATOM     15  C   UNL     1      36.366   6.838  35.413  0.00  0.00    +0.000 A 
ATOM     16  C   UNL     1      35.975   5.628  34.904  0.00  0.00    +0.000 A 
BRANCH  14  17
ATOM     17  C   UNL     1      35.922   9.105  36.445  0.00  0.00    +0.000 C 
ATOM     18  C   UNL     1      36.344  10.050  35.344  0.00  0.00    +0.000 C 
ENDBRANCH  14  17
ENDBRANCH   5  11
BRANCH   1  19
ATOM     19  C   UNL     1      32.804  -0.763  34.785  0.00  0.00    +0.000 C 
BRANCH  19  21
ATOM     20  C   UNL     1      33.542  -2.642  33.415  0.00  0.00    +0.000 C 
ATOM     21  C   UNL     1      33.837  -1.480  34.033  0.00  0.00    +0.000 C 
ENDBRANCH  19  21
ENDBRANCH   1  19
TORSDOF 4
ENDMDL
MODEL 3
REMARK VINA RESULT:      -6.0     21.276     23.036
REMARK  Name = 
REMARK  4 active torsions:
REMARK  status: ('A' for Active; 'I' for Inactive)
REMARK    1  A    between atoms: C_2  and  C_3
REMARK    2  A    between atoms: C_3  and  N_4
REMARK    3  A    between atoms: C_8  and  C_9
REMARK    4  A    between atoms: C_12  and  C_13
REMARK                            x       y       z     vdW  Elec       q    Type
REMARK                         _______ _______ _______ _____ _____    ______ ____
ROOT
ATOM      1  N   UNL     1      19.150  -7.610  26.904  0.00  0.00    +0.000 N 
ATOM      2  C   UNL     1      19.907  -6.898  25.936  0.00  0.00    +0.000 C 
ATOM      3  O   UNL     1      19.436  -5.811  25.516  0.00  0.00    +0.000 OA
ATOM      4  C   UNL     1      21.199  -7.377  25.415  0.00  0.00    +0.000 C 
ATOM      5  C   UNL     1      21.869  -6.757  24.498  0.00  0.00    +0.000 C 
ATOM      6  C   UNL     1      21.706  -8.636  25.928  0.00  0.00    +0.000 C 
ATOM      7  O   UNL     1      22.776  -9.168  25.582  0.00  0.00    +0.000 OA
ATOM      8  N   UNL     1      20.937  -9.348  26.905  0.00  0.00    +0.000 NA
ATOM      9  C   UNL     1      19.704  -8.842  27.369  0.00  0.00    +0.000 C 
ATOM     10  S   UNL     1      18.864  -9.679  28.480  0.00  0.00    +0.000 S 
ENDROOT
BRANCH   5  11
ATOM     11  C   UNL     1      23.162  -7.158  23.928  0.00  0.00    +0.000 A 
ATOM     12  C   UNL     1      23.204  -8.118  22.923  0.00  0.00    +0.000 A 
ATOM     13  C   UNL     1      24.378  -8.483  22.320  0.00  0.00    +0.000 A 
ATOM     14  C   UNL     1      25.597  -7.903  22.692  0.00  0.00    +0.000 A 
ATOM     15  C   UNL     1      25.524  -6.960  23.685  0.00  0.00    +0.000 A 
ATOM     16  C   UNL     1      24.357  -6.585  24.297  0.00  0.00    +0.000 A 
BRANCH  14  17
ATOM     17  C   UNL     1      26.871  -8.316  22.027  0.00  0.00    +0.000 C 
ATOM     18  C   UNL     1      27.911  -7.224  22.107  0.00  0.00    +0.000 C 
ENDBRANCH  14  17
ENDBRANCH   5  11
BRANCH   1  19
ATOM     19  C   UNL     1      17.884  -7.161  27.422  0.00  0.00    +0.000 C 
BRANCH  19  21
ATOM     20  C   UNL     1      16.482  -8.389  25.850  0.00  0.00    +0.000 C 
ATOM     21  C   UNL     1      16.821  -7.214  26.416  0.00  0.00    +0.000 C 
ENDBRANCH  19  21
ENDBRANCH   1  19
TORSDOF 4
ENDMDL
MODEL 4
REMARK VINA RESULT:      -5.9     20.843     21.955
REMARK  Name = 
REMARK  4 active torsions:
REMARK  status: ('A' for Active; 'I' for Inactive)
REMARK    1  A    between atoms: C_2  and  C_3
REMARK    2  A    between atoms: C_3  and  N_4
REMARK    3  A    between atoms: C_8  and  C_9
REMARK    4  A    between atoms: C_12  and  C_13
REMARK                            x       y       z     vdW  Elec       q    Type
REMARK                         _______ _______ _______ _____ _____    ______ ____
ROOT
ATOM      1  N   UNL     1      22.805   1.619  17.706  0.00  0.00    +0.000 N 
ATOM      2  C   UNL     1      23.096   2.981  17.982  0.00  0.00    +0.000 C 
ATOM      3  O   UNL     1      22.202   3.661  18.546  0.00  0.00    +0.000 OA
ATOM      4  C   UNL     1      24.380   3.615  17.637  0.00  0.00    +0.000 C 
ATOM      5  C   UNL     1      24.632   4.868  17.842  0.00  0.00    +0.000 C 
ATOM      6  C   UNL     1      25.383   2.792  16.986  0.00  0.00    +0.000 C 
ATOM      7  O   UNL     1      26.509   3.186  16.633  0.00  0.00    +0.000 OA
ATOM      8  N   UNL     1      25.083   1.419  16.712  0.00  0.00    +0.000 NA
ATOM      9  C   UNL     1      23.834   0.863  17.065  0.00  0.00    +0.000 C 
ATOM     10  S   UNL     1      23.535  -0.700  16.737  0.00  0.00    +0.000 S 
ENDROOT
BRANCH   5  11
ATOM     11  C   UNL     1      25.881   5.577  17.537  0.00  0.00    +0.000 A 
ATOM     12  C   UNL     1      26.951   5.498  18.422  0.00  0.00    +0.000 A 
ATOM     13  C   UNL     1      28.155   6.093  18.154  0.00  0.00    +0.000 A 
ATOM     14  C   UNL     1      28.364   6.814  16.973  0.00  0.00    +0.000 A 
ATOM     15  C   UNL     1      27.290   6.874  16.121  0.00  0.00    +0.000 A 
ATOM     16  C   UNL     1      26.080   6.284  16.374  0.00  0.00    +0.000 A 
BRANCH  14  17
ATOM     17  C   UNL     1      29.683   7.461  16.698  0.00  0.00    +0.000 C 
ATOM     18  C   UNL     1      30.689   6.460  16.181  0.00  0.00    +0.000 C 
ENDBRANCH  14  17
ENDBRANCH   5  11
BRANCH   1  19
ATOM     19  C   UNL     1      21.555   0.982  18.031  0.00  0.00    +0.000 C 
BRANCH  19  21
ATOM     20  C   UNL     1      19.381   1.884  17.393  0.00  0.00    +0.000 C 
ATOM     21  C   UNL     1      20.517   1.255  17.034  0.00  0.00    +0.000 C 
ENDBRANCH  19  21
ENDBRANCH   1  19
TORSDOF 4
ENDMDL
MODEL 5
REMARK VINA RESULT:      -5.7      4.818      6.461
REMARK  Name = 
REMARK  4 active torsions:
REMARK  status: ('A' for Active; 'I' for Inactive)
REMARK    1  A    between atoms: C_2  and  C_3
REMARK    2  A    between atoms: C_3  and  N_4
REMARK    3  A    between atoms: C_8  and  C_9
REMARK    4  A    between atoms: C_12  and  C_13
REMARK                            x       y       z     vdW  Elec       q    Type
REMARK                         _______ _______ _______ _____ _____    ______ ____
ROOT
ATOM      1  N   UNL     1      18.118  10.287  37.755  0.00  0.00    +0.000 N 
ATOM      2  C   UNL     1      17.006  10.175  38.632  0.00  0.00    +0.000 C 
ATOM      3  O   UNL     1      15.897  10.595  38.217  0.00  0.00    +0.000 OA
ATOM      4  C   UNL     1      17.102   9.597  39.983  0.00  0.00    +0.000 C 
ATOM      5  C   UNL     1      16.103   9.538  40.804  0.00  0.00    +0.000 C 
ATOM      6  C   UNL     1      18.403   9.125  40.422  0.00  0.00    +0.000 C 
ATOM      7  O   UNL     1      18.640   8.618  41.533  0.00  0.00    +0.000 OA
ATOM      8  N   UNL     1      19.520   9.240  39.532  0.00  0.00    +0.000 NA
ATOM      9  C   UNL     1      19.370   9.802  38.246  0.00  0.00    +0.000 C 
ATOM     10  S   UNL     1      20.662   9.912  37.267  0.00  0.00    +0.000 S 
ENDROOT
BRANCH   5  11
ATOM     11  C   UNL     1      16.109   8.976  42.160  0.00  0.00    +0.000 A 
ATOM     12  C   UNL     1      16.354   9.806  43.249  0.00  0.00    +0.000 A 
ATOM     13  C   UNL     1      16.312   9.340  44.536  0.00  0.00    +0.000 A 
ATOM     14  C   UNL     1      16.021   8.000  44.816  0.00  0.00    +0.000 A 
ATOM     15  C   UNL     1      15.784   7.206  43.722  0.00  0.00    +0.000 A 
ATOM     16  C   UNL     1      15.822   7.657  42.429  0.00  0.00    +0.000 A 
BRANCH  14  17
ATOM     17  C   UNL     1      15.984   7.507  46.227  0.00  0.00    +0.000 C 
ATOM     18  C   UNL     1      14.612   6.991  46.593  0.00  0.00    +0.000 C 
ENDBRANCH  14  17
ENDBRANCH   5  11
BRANCH   1  19
ATOM     19  C   UNL     1      18.046  10.852  36.433  0.00  0.00    +0.000 C 
BRANCH  19  21
ATOM     20  C   UNL     1      17.747   8.802  35.145  0.00  0.00    +0.000 C 
ATOM     21  C   UNL     1      17.277  10.012  35.512  0.00  0.00    +0.000 C 
ENDBRANCH  19  21
ENDBRANCH   1  19
TORSDOF 4
ENDMDL
MODEL 6
REMARK VINA RESULT:      -5.7      1.820      2.620
REMARK  Name = 
REMARK  4 active torsions:
REMARK  status: ('A' for Active; 'I' for Inactive)
REMARK    1  A    between atoms: C_2  and  C_3
REMARK    2  A    between atoms: C_3  and  N_4
REMARK    3  A    between atoms: C_8  and  C_9
REMARK    4  A    between atoms: C_12  and  C_13
REMARK                            x       y       z     vdW  Elec       q    Type
REMARK                         _______ _______ _______ _____ _____    ______ ____
ROOT
ATOM      1  N   UNL     1      15.614  11.275  35.420  0.00  0.00    +0.000 N 
ATOM      2  C   UNL     1      15.845  11.076  36.808  0.00  0.00    +0.000 C 
ATOM      3  O   UNL     1      14.969  11.490  37.606  0.00  0.00    +0.000 OA
ATOM      4  C   UNL     1      17.051  10.415  37.334  0.00  0.00    +0.000 C 
ATOM      5  C   UNL     1      17.290  10.274  38.599  0.00  0.00    +0.000 C 
ATOM      6  C   UNL     1      18.038   9.952  36.376  0.00  0.00    +0.000 C 
ATOM      7  O   UNL     1      19.104   9.381  36.669  0.00  0.00    +0.000 OA
ATOM      8  N   UNL     1      17.798  10.155  34.979  0.00  0.00    +0.000 NA
ATOM      9  C   UNL     1      16.623  10.796  34.529  0.00  0.00    +0.000 C 
ATOM     10  S   UNL     1      16.387  11.005  32.935  0.00  0.00    +0.000 S 
ENDROOT
BRANCH   5  11
ATOM     11  C   UNL     1      18.458   9.625  39.209  0.00  0.00    +0.000 A 
ATOM     12  C   UNL     1      19.571  10.387  39.546  0.00  0.00    +0.000 A 
ATOM     13  C   UNL     1      20.660   9.839  40.169  0.00  0.00    +0.000 A 
ATOM     14  C   UNL     1      20.703   8.478  40.495  0.00  0.00    +0.000 A 
ATOM     15  C   UNL     1      19.591   7.753  40.150  0.00  0.00    +0.000 A 
ATOM     16  C   UNL     1      18.495   8.287  39.527  0.00  0.00    +0.000 A 
BRANCH  14  17
ATOM     17  C   UNL     1      21.902   7.895  41.171  0.00  0.00    +0.000 C 
ATOM     18  C   UNL     1      22.131   6.463  40.745  0.00  0.00    +0.000 C 
ENDBRANCH  14  17
ENDBRANCH   5  11
BRANCH   1  19
ATOM     19  C   UNL     1      14.444  11.922  34.886  0.00  0.00    +0.000 C 
BRANCH  19  21
ATOM     20  C   UNL     1      13.487  14.144  34.581  0.00  0.00    +0.000 C 
ATOM     21  C   UNL     1      14.520  13.381  34.991  0.00  0.00    +0.000 C 
ENDBRANCH  19  21
ENDBRANCH   1  19
TORSDOF 4
ENDMDL
MODEL 7
REMARK VINA RESULT:      -5.7     17.550     20.514
REMARK  Name = 
REMARK  4 active torsions:
REMARK  status: ('A' for Active; 'I' for Inactive)
REMARK    1  A    between atoms: C_2  and  C_3
REMARK    2  A    between atoms: C_3  and  N_4
REMARK    3  A    between atoms: C_8  and  C_9
REMARK    4  A    between atoms: C_12  and  C_13
REMARK                            x       y       z     vdW  Elec       q    Type
REMARK                         _______ _______ _______ _____ _____    ______ ____
ROOT
ATOM      1  N   UNL     1      34.068   3.526  35.038  0.00  0.00    +0.000 N 
ATOM      2  C   UNL     1      33.810   2.389  34.228  0.00  0.00    +0.000 C 
ATOM      3  O   UNL     1      33.675   2.576  32.993  0.00  0.00    +0.000 OA
ATOM      4  C   UNL     1      33.697   1.024  34.771  0.00  0.00    +0.000 C 
ATOM      5  C   UNL     1      33.414  -0.009  34.044  0.00  0.00    +0.000 C 
ATOM      6  C   UNL     1      33.861   0.854  36.203  0.00  0.00    +0.000 C 
ATOM      7  O   UNL     1      33.789  -0.233  36.804  0.00  0.00    +0.000 OA
ATOM      8  N   UNL     1      34.121   2.005  37.014  0.00  0.00    +0.000 NA
ATOM      9  C   UNL     1      34.220   3.291  36.440  0.00  0.00    +0.000 C 
ATOM     10  S   UNL     1      34.519   4.571  37.394  0.00  0.00    +0.000 S 
ENDROOT
BRANCH   5  11
ATOM     11  C   UNL     1      33.289  -1.400  34.499  0.00  0.00    +0.000 A 
ATOM     12  C   UNL     1      32.049  -1.884  34.899  0.00  0.00    +0.000 A 
ATOM     13  C   UNL     1      31.870  -3.189  35.276  0.00  0.00    +0.000 A 
ATOM     14  C   UNL     1      32.934  -4.098  35.277  0.00  0.00    +0.000 A 
ATOM     15  C   UNL     1      34.145  -3.590  34.878  0.00  0.00    +0.000 A 
ATOM     16  C   UNL     1      34.339  -2.289  34.498  0.00  0.00    +0.000 A 
BRANCH  14  17
ATOM     17  C   UNL     1      32.723  -5.518  35.696  0.00  0.00    +0.000 C 
ATOM     18  C   UNL     1      33.921  -6.054  36.442  0.00  0.00    +0.000 C 
ENDBRANCH  14  17
ENDBRANCH   5  11
BRANCH   1  19
ATOM     19  C   UNL     1      34.178   4.867  34.528  0.00  0.00    +0.000 C 
BRANCH  19  21
ATOM     20  C   UNL     1      32.040   5.501  33.540  0.00  0.00    +0.000 C 
ATOM     21  C   UNL     1      32.902   5.585  34.573  0.00  0.00    +0.000 C 
ENDBRANCH  19  21
ENDBRANCH   1  19
TORSDOF 4
ENDMDL
MODEL 8
REMARK VINA RESULT:      -5.6     21.786     23.230
REMARK  Name = 
REMARK  4 active torsions:
REMARK  status: ('A' for Active; 'I' for Inactive)
REMARK    1  A    between atoms: C_2  and  C_3
REMARK    2  A    between atoms: C_3  and  N_4
REMARK    3  A    between atoms: C_8  and  C_9
REMARK    4  A    between atoms: C_12  and  C_13
REMARK                            x       y       z     vdW  Elec       q    Type
REMARK                         _______ _______ _______ _____ _____    ______ ____
ROOT
ATOM      1  N   UNL     1      29.494  27.714  20.245  0.00  0.00    +0.000 N 
ATOM      2  C   UNL     1      29.557  26.329  20.552  0.00  0.00    +0.000 C 
ATOM      3  O   UNL     1      29.824  25.539  19.612  0.00  0.00    +0.000 OA
ATOM      4  C   UNL     1      29.327  25.793  21.904  0.00  0.00    +0.000 C 
ATOM      5  C   UNL     1      29.335  24.528  22.179  0.00  0.00    +0.000 C 
ATOM      6  C   UNL     1      29.022  26.741  22.960  0.00  0.00    +0.000 C 
ATOM      7  O   UNL     1      28.800  26.440  24.147  0.00  0.00    +0.000 OA
ATOM      8  N   UNL     1      28.959  28.137  22.644  0.00  0.00    +0.000 NA
ATOM      9  C   UNL     1      29.190  28.595  21.329  0.00  0.00    +0.000 C 
ATOM     10  S   UNL     1      29.112  30.187  21.013  0.00  0.00    +0.000 S 
ENDROOT
BRANCH   5  11
ATOM     11  C   UNL     1      29.123  23.910  23.494  0.00  0.00    +0.000 A 
ATOM     12  C   UNL     1      27.831  23.613  23.915  0.00  0.00    +0.000 A 
ATOM     13  C   UNL     1      27.586  22.985  25.107  0.00  0.00    +0.000 A 
ATOM     14  C   UNL     1      28.630  22.612  25.961  0.00  0.00    +0.000 A 
ATOM     15  C   UNL     1      29.892  22.919  25.519  0.00  0.00    +0.000 A 
ATOM     16  C   UNL     1      30.153  23.547  24.330  0.00  0.00    +0.000 A 
BRANCH  14  17
ATOM     17  C   UNL     1      28.344  21.930  27.260  0.00  0.00    +0.000 C 
ATOM     18  C   UNL     1      28.055  22.932  28.354  0.00  0.00    +0.000 C 
ENDBRANCH  14  17
ENDBRANCH   5  11
BRANCH   1  19
ATOM     19  C   UNL     1      29.712  28.256  18.930  0.00  0.00    +0.000 C 
BRANCH  19  21
ATOM     20  C   UNL     1      31.811  27.749  17.797  0.00  0.00    +0.000 C 
ATOM     21  C   UNL     1      31.128  28.521  18.666  0.00  0.00    +0.000 C 
ENDBRANCH  19  21
ENDBRANCH   1  19
TORSDOF 4
ENDMDL
MODEL 9
REMARK VINA RESULT:      -5.6     20.545     22.123
REMARK  Name = 
REMARK  4 active torsions:
REMARK  status: ('A' for Active; 'I' for Inactive)
REMARK    1  A    between atoms: C_2  and  C_3
REMARK    2  A    between atoms: C_3  and  N_4
REMARK    3  A    between atoms: C_8  and  C_9
REMARK    4  A    between atoms: C_12  and  C_13
REMARK                            x       y       z     vdW  Elec       q    Type
REMARK                         _______ _______ _______ _____ _____    ______ ____
ROOT
ATOM      1  N   UNL     1      26.523   4.977  16.955  0.00  0.00    +0.000 N 
ATOM      2  C   UNL     1      25.588   4.379  17.841  0.00  0.00    +0.000 C 
ATOM      3  O   UNL     1      25.866   4.383  19.066  0.00  0.00    +0.000 OA
ATOM      4  C   UNL     1      24.329   3.765  17.386  0.00  0.00    +0.000 C 
ATOM      5  C   UNL     1      23.497   3.175  18.183  0.00  0.00    +0.000 C 
ATOM      6  C   UNL     1      24.048   3.782  15.962  0.00  0.00    +0.000 C 
ATOM      7  O   UNL     1      23.031   3.301  15.430  0.00  0.00    +0.000 OA
ATOM      8  N   UNL     1      24.995   4.387  15.074  0.00  0.00    +0.000 NA
ATOM      9  C   UNL     1      26.187   4.962  15.566  0.00  0.00    +0.000 C 
ATOM     10  S   UNL     1      27.234   5.641  14.526  0.00  0.00    +0.000 S 
ENDROOT
BRANCH   5  11
ATOM     11  C   UNL     1      22.221   2.546  17.818  0.00  0.00    +0.000 A 
ATOM     12  C   UNL     1      21.033   3.250  17.983  0.00  0.00    +0.000 A 
ATOM     13  C   UNL     1      19.826   2.728  17.603  0.00  0.00    +0.000 A 
ATOM     14  C   UNL     1      19.731   1.455  17.030  0.00  0.00    +0.000 A 
ATOM     15  C   UNL     1      20.919   0.785  16.880  0.00  0.00    +0.000 A 
ATOM     16  C   UNL     1      22.134   1.293  17.255  0.00  0.00    +0.000 A 
BRANCH  14  17
ATOM     17  C   UNL     1      18.404   0.898  16.625  0.00  0.00    +0.000 C 
ATOM     18  C   UNL     1      17.873   1.588  15.390  0.00  0.00    +0.000 C 
ENDBRANCH  14  17
ENDBRANCH   5  11
BRANCH   1  19
ATOM     19  C   UNL     1      27.760   5.578  17.379  0.00  0.00    +0.000 C 
BRANCH  19  21
ATOM     20  C   UNL     1      27.976   7.251  19.140  0.00  0.00    +0.000 C 
ATOM     21  C   UNL     1      27.570   6.936  17.894  0.00  0.00    +0.000 C 
ENDBRANCH  19  21
ENDBRANCH   1  19
TORSDOF 4
ENDMDL
MODEL 10
REMARK VINA RESULT:      -5.6      8.496     12.103
REMARK  Name = 
REMARK  4 active torsions:
REMARK  status: ('A' for Active; 'I' for Inactive)
REMARK    1  A    between atoms: C_2  and  C_3
REMARK    2  A    between atoms: C_3  and  N_4
REMARK    3  A    between atoms: C_8  and  C_9
REMARK    4  A    between atoms: C_12  and  C_13
REMARK                            x       y       z     vdW  Elec       q    Type
REMARK                         _______ _______ _______ _____ _____    ______ ____
ROOT
ATOM      1  N   UNL     1      22.672   1.729  41.322  0.00  0.00    +0.000 N 
ATOM      2  C   UNL     1      21.356   2.044  40.889  0.00  0.00    +0.000 C 
ATOM      3  O   UNL     1      20.770   1.205  40.161  0.00  0.00    +0.000 OA
ATOM      4  C   UNL     1      20.667   3.293  41.255  0.00  0.00    +0.000 C 
ATOM      5  C   UNL     1      19.488   3.607  40.824  0.00  0.00    +0.000 C 
ATOM      6  C   UNL     1      21.382   4.234  42.098  0.00  0.00    +0.000 C 
ATOM      7  O   UNL     1      20.934   5.328  42.485  0.00  0.00    +0.000 OA
ATOM      8  N   UNL     1      22.708   3.910  42.531  0.00  0.00    +0.000 NA
ATOM      9  C   UNL     1      23.321   2.696  42.151  0.00  0.00    +0.000 C 
ATOM     10  S   UNL     1      24.826   2.365  42.665  0.00  0.00    +0.000 S 
ENDROOT
BRANCH   5  11
ATOM     11  C   UNL     1      18.728   4.823  41.142  0.00  0.00    +0.000 A 
ATOM     12  C   UNL     1      18.809   5.926  40.299  0.00  0.00    +0.000 A 
ATOM     13  C   UNL     1      18.075   7.061  40.521  0.00  0.00    +0.000 A 
ATOM     14  C   UNL     1      17.206   7.163  41.613  0.00  0.00    +0.000 A 
ATOM     15  C   UNL     1      17.147   6.059  42.426  0.00  0.00    +0.000 A 
ATOM     16  C   UNL     1      17.875   4.918  42.217  0.00  0.00    +0.000 A 
BRANCH  14  17
ATOM     17  C   UNL     1      16.415   8.411  41.843  0.00  0.00    +0.000 C 
ATOM     18  C   UNL     1      16.489   9.336  40.651  0.00  0.00    +0.000 C 
ENDBRANCH  14  17
ENDBRANCH   5  11
BRANCH   1  19
ATOM     19  C   UNL     1      23.363   0.516  40.973  0.00  0.00    +0.000 C 
BRANCH  19  21
ATOM     20  C   UNL     1      22.476  -1.755  41.048  0.00  0.00    +0.000 C 
ATOM     21  C   UNL     1      22.858  -0.644  41.710  0.00  0.00    +0.000 C 
ENDBRANCH  19  21
ENDBRANCH   1  19
TORSDOF 4
ENDMDL
