MODEL 1
REMARK VINA RESULT:      -7.5      0.000      0.000
REMARK  Name = 
REMARK  2 active torsions:
REMARK  status: ('A' for Active; 'I' for Inactive)
REMARK    1  A    between atoms: C_5  and  C_6
REMARK    2  A    between atoms: N_8  and  N_9
REMARK                            x       y       z     vdW  Elec       q    Type
REMARK                         _______ _______ _______ _____ _____    ______ ____
ROOT
ATOM      1  C   UNL     1      16.426  11.997  36.816  0.00  0.00    +0.000 C 
ATOM      2  O   UNL     1      16.862  13.159  36.907  0.00  0.00    +0.000 OA
ATOM      3  N   UNL     1      15.334  11.746  35.967  0.00  0.00    +0.000 NA
ENDROOT
BRANCH   3   4
ATOM      4  N   UNL     1      14.677  12.681  35.201  0.00  0.00    +0.000 NA
ATOM      5  C   UNL     1      14.581  12.701  33.934  0.00  0.00    +0.000 C 
ATOM      6  C   UNL     1      13.777  13.894  33.498  0.00  0.00    +0.000 C 
ATOM      7  C   UNL     1      13.456  13.836  32.028  0.00  0.00    +0.000 C 
ATOM      8  C   UNL     1      14.736  14.109  31.273  0.00  0.00    +0.000 C 
ATOM      9  C   UNL     1      14.840  13.059  30.179  0.00  0.00    +0.000 C 
ATOM     10  C   UNL     1      15.082  11.704  30.844  0.00  0.00    +0.000 C 
ATOM     11  C   UNL     1      15.985  11.949  32.026  0.00  0.00    +0.000 C 
ATOM     12  C   UNL     1      15.274  11.574  33.305  0.00  0.00    +0.000 C 
ENDBRANCH   3   4
BRANCH   1  17
ATOM     13  N   UNL     1      18.831   7.810  39.801  0.00  0.00    +0.000 NA
ATOM     14  C   UNL     1      18.242   8.850  39.048  0.00  0.00    +0.000 A 
ATOM     15  C   UNL     1      17.146   9.520  39.545  0.00  0.00    +0.000 A 
ATOM     16  C   UNL     1      16.554  10.548  38.813  0.00  0.00    +0.000 A 
ATOM     17  C   UNL     1      17.048  10.915  37.587  0.00  0.00    +0.000 A 
ATOM     18  C   UNL     1      18.142  10.245  37.094  0.00  0.00    +0.000 A 
ATOM     19  C   UNL     1      18.720   9.230  37.824  0.00  0.00    +0.000 A 
ENDBRANCH   1  17
TORSDOF 2
ENDMDL
MODEL 2
REMARK VINA RESULT:      -6.9      2.007      7.576
REMARK  Name = 
REMARK  2 active torsions:
REMARK  status: ('A' for Active; 'I' for Inactive)
REMARK    1  A    between atoms: C_5  and  C_6
REMARK    2  A    between atoms: N_8  and  N_9
REMARK                            x       y       z     vdW  Elec       q    Type
REMARK                         _______ _______ _______ _____ _____    ______ ____
ROOT
ATOM      1  C   UNL     1      14.957  11.867  36.213  0.00  0.00    +0.000 C 
ATOM      2  O   UNL     1      14.283  12.161  37.216  0.00  0.00    +0.000 OA
ATOM      3  N   UNL     1      16.006  10.939  36.347  0.00  0.00    +0.000 NA
ENDROOT
BRANCH   3   4
ATOM      4  N   UNL     1      16.374  10.303  37.510  0.00  0.00    +0.000 NA
ATOM      5  C   UNL     1      17.427  10.508  38.194  0.00  0.00    +0.000 C 
ATOM      6  C   UNL     1      17.445   9.602  39.393  0.00  0.00    +0.000 C 
ATOM      7  C   UNL     1      18.558   9.964  40.341  0.00  0.00    +0.000 C 
ATOM      8  C   UNL     1      19.858   9.546  39.693  0.00  0.00    +0.000 C 
ATOM      9  C   UNL     1      20.824  10.710  39.842  0.00  0.00    +0.000 C 
ATOM     10  C   UNL     1      20.322  11.856  38.963  0.00  0.00    +0.000 C 
ATOM     11  C   UNL     1      19.754  11.236  37.713  0.00  0.00    +0.000 C 
ATOM     12  C   UNL     1      18.279  11.545  37.607  0.00  0.00    +0.000 C 
ENDBRANCH   3   4
BRANCH   1  17
ATOM     13  N   UNL     1      13.793  14.247  31.193  0.00  0.00    +0.000 NA
ATOM     14  C   UNL     1      14.075  13.665  32.448  0.00  0.00    +0.000 A 
ATOM     15  C   UNL     1      14.849  12.527  32.518  0.00  0.00    +0.000 A 
ATOM     16  C   UNL     1      15.135  11.941  33.750  0.00  0.00    +0.000 A 
ATOM     17  C   UNL     1      14.656  12.482  34.916  0.00  0.00    +0.000 A 
ATOM     18  C   UNL     1      13.884  13.618  34.843  0.00  0.00    +0.000 A 
ATOM     19  C   UNL     1      13.606  14.189  33.622  0.00  0.00    +0.000 A 
ENDBRANCH   1  17
TORSDOF 2
ENDMDL
MODEL 3
REMARK VINA RESULT:      -6.7      3.853      8.293
REMARK  Name = 
REMARK  2 active torsions:
REMARK  status: ('A' for Active; 'I' for Inactive)
REMARK    1  A    between atoms: C_5  and  C_6
REMARK    2  A    between atoms: N_8  and  N_9
REMARK                            x       y       z     vdW  Elec       q    Type
REMARK                         _______ _______ _______ _____ _____    ______ ____
ROOT
ATOM      1  C   UNL     1      18.301  10.229  36.917  0.00  0.00    +0.000 C 
ATOM      2  O   UNL     1      17.807  10.214  38.058  0.00  0.00    +0.000 OA
ATOM      3  N   UNL     1      19.671   9.951  36.766  0.00  0.00    +0.000 NA
ENDROOT
BRANCH   3   4
ATOM      4  N   UNL     1      20.550   9.654  37.783  0.00  0.00    +0.000 NA
ATOM      5  C   UNL     1      21.813   9.793  37.766  0.00  0.00    +0.000 C 
ATOM      6  C   UNL     1      22.396   9.353  39.080  0.00  0.00    +0.000 C 
ATOM      7  C   UNL     1      23.856   9.704  39.182  0.00  0.00    +0.000 C 
ATOM      8  C   UNL     1      24.610   8.780  38.254  0.00  0.00    +0.000 C 
ATOM      9  C   UNL     1      25.579   9.641  37.459  0.00  0.00    +0.000 C 
ATOM     10  C   UNL     1      24.762  10.528  36.519  0.00  0.00    +0.000 C 
ATOM     11  C   UNL     1      23.596   9.703  36.037  0.00  0.00    +0.000 C 
ATOM     12  C   UNL     1      22.299  10.328  36.492  0.00  0.00    +0.000 C 
ENDBRANCH   3   4
BRANCH   1  17
ATOM     13  N   UNL     1      15.049  11.401  32.415  0.00  0.00    +0.000 NA
ATOM     14  C   UNL     1      15.849  11.116  33.543  0.00  0.00    +0.000 A 
ATOM     15  C   UNL     1      16.996  10.367  33.399  0.00  0.00    +0.000 A 
ATOM     16  C   UNL     1      17.796  10.078  34.503  0.00  0.00    +0.000 A 
ATOM     17  C   UNL     1      17.460  10.532  35.754  0.00  0.00    +0.000 A 
ATOM     18  C   UNL     1      16.315  11.279  35.895  0.00  0.00    +0.000 A 
ATOM     19  C   UNL     1      15.531  11.559  34.798  0.00  0.00    +0.000 A 
ENDBRANCH   1  17
TORSDOF 2
ENDMDL
MODEL 4
REMARK VINA RESULT:      -6.5     20.526     23.622
REMARK  Name = 
REMARK  2 active torsions:
REMARK  status: ('A' for Active; 'I' for Inactive)
REMARK    1  A    between atoms: C_5  and  C_6
REMARK    2  A    between atoms: N_8  and  N_9
REMARK                            x       y       z     vdW  Elec       q    Type
REMARK                         _______ _______ _______ _____ _____    ______ ____
ROOT
ATOM      1  C   UNL     1      33.551  -2.341  34.020  0.00  0.00    +0.000 C 
ATOM      2  O   UNL     1      33.551  -2.751  35.194  0.00  0.00    +0.000 OA
ATOM      3  N   UNL     1      33.534  -3.281  32.973  0.00  0.00    +0.000 NA
ENDROOT
BRANCH   3   4
ATOM      4  N   UNL     1      33.514  -4.649  33.119  0.00  0.00    +0.000 NA
ATOM      5  C   UNL     1      33.475  -5.516  32.190  0.00  0.00    +0.000 C 
ATOM      6  C   UNL     1      33.468  -6.899  32.779  0.00  0.00    +0.000 C 
ATOM      7  C   UNL     1      33.642  -7.952  31.717  0.00  0.00    +0.000 C 
ATOM      8  C   UNL     1      32.358  -8.012  30.923  0.00  0.00    +0.000 C 
ATOM      9  C   UNL     1      32.743  -8.019  29.452  0.00  0.00    +0.000 C 
ATOM     10  C   UNL     1      33.328  -6.649  29.110  0.00  0.00    +0.000 C 
ATOM     11  C   UNL     1      32.541  -5.627  29.890  0.00  0.00    +0.000 C 
ATOM     12  C   UNL     1      33.448  -4.906  30.859  0.00  0.00    +0.000 C 
ENDBRANCH   3   4
BRANCH   1  17
ATOM     13  N   UNL     1      33.624   3.232  32.946  0.00  0.00    +0.000 NA
ATOM     14  C   UNL     1      33.615   1.843  33.202  0.00  0.00    +0.000 A 
ATOM     15  C   UNL     1      32.872   1.344  34.250  0.00  0.00    +0.000 A 
ATOM     16  C   UNL     1      32.854  -0.024  34.515  0.00  0.00    +0.000 A 
ATOM     17  C   UNL     1      33.571  -0.902  33.742  0.00  0.00    +0.000 A 
ATOM     18  C   UNL     1      34.311  -0.401  32.697  0.00  0.00    +0.000 A 
ATOM     19  C   UNL     1      34.324   0.952  32.443  0.00  0.00    +0.000 A 
ENDBRANCH   1  17
TORSDOF 2
ENDMDL
MODEL 5
REMARK VINA RESULT:      -6.5     22.017     23.297
REMARK  Name = 
REMARK  2 active torsions:
REMARK  status: ('A' for Active; 'I' for Inactive)
REMARK    1  A    between atoms: C_5  and  C_6
REMARK    2  A    between atoms: N_8  and  N_9
REMARK                            x       y       z     vdW  Elec       q    Type
REMARK                         _______ _______ _______ _____ _____    ______ ____
ROOT
ATOM      1  C   UNL     1      23.570  -6.741  24.386  0.00  0.00    +0.000 C 
ATOM      2  O   UNL     1      23.961  -5.879  25.193  0.00  0.00    +0.000 OA
ATOM      3  N   UNL     1      22.190  -6.877  24.153  0.00  0.00    +0.000 NA
ENDROOT
BRANCH   3   4
ATOM      4  N   UNL     1      21.196  -6.131  24.743  0.00  0.00    +0.000 NA
ATOM      5  C   UNL     1      20.344  -6.532  25.597  0.00  0.00    +0.000 C 
ATOM      6  C   UNL     1      19.435  -5.400  25.987  0.00  0.00    +0.000 C 
ATOM      7  C   UNL     1      18.557  -5.773  27.152  0.00  0.00    +0.000 C 
ATOM      8  C   UNL     1      17.527  -6.756  26.646  0.00  0.00    +0.000 C 
ATOM      9  C   UNL     1      17.475  -7.900  27.646  0.00  0.00    +0.000 C 
ATOM     10  C   UNL     1      18.796  -8.666  27.557  0.00  0.00    +0.000 C 
ATOM     11  C   UNL     1      19.200  -8.679  26.105  0.00  0.00    +0.000 C 
ATOM     12  C   UNL     1      20.511  -7.949  25.928  0.00  0.00    +0.000 C 
ENDBRANCH   3   4
BRANCH   1  17
ATOM     13  N   UNL     1      27.323 -10.055  21.712  0.00  0.00    +0.000 NA
ATOM     14  C   UNL     1      26.399  -9.220  22.376  0.00  0.00    +0.000 A 
ATOM     15  C   UNL     1      25.178  -9.724  22.769  0.00  0.00    +0.000 A 
ATOM     16  C   UNL     1      24.255  -8.912  23.426  0.00  0.00    +0.000 A 
ATOM     17  C   UNL     1      24.540  -7.597  23.695  0.00  0.00    +0.000 A 
ATOM     18  C   UNL     1      25.759  -7.097  23.301  0.00  0.00    +0.000 A 
ATOM     19  C   UNL     1      26.664  -7.907  22.653  0.00  0.00    +0.000 A 
ENDBRANCH   1  17
TORSDOF 2
ENDMDL
MODEL 6
REMARK VINA RESULT:      -6.4     22.826     25.239
REMARK  Name = 
REMARK  2 active torsions:
REMARK  status: ('A' for Active; 'I' for Inactive)
REMARK    1  A    between atoms: C_5  and  C_6
REMARK    2  A    between atoms: N_8  and  N_9
REMARK                            x       y       z     vdW  Elec       q    Type
REMARK                         _______ _______ _______ _____ _____    ______ ____
ROOT
ATOM      1  C   UNL     1      29.110  25.420  21.021  0.00  0.00    +0.000 C 
ATOM      2  O   UNL     1      29.771  24.420  20.690  0.00  0.00    +0.000 OA
ATOM      3  N   UNL     1      29.334  26.634  20.348  0.00  0.00    +0.000 NA
ENDROOT
BRANCH   3   4
ATOM      4  N   UNL     1      30.236  26.837  19.329  0.00  0.00    +0.000 NA
ATOM      5  C   UNL     1      30.092  27.596  18.320  0.00  0.00    +0.000 C 
ATOM      6  C   UNL     1      31.314  27.528  17.446  0.00  0.00    +0.000 C 
ATOM      7  C   UNL     1      31.276  28.573  16.362  0.00  0.00    +0.000 C 
ATOM      8  C   UNL     1      30.229  28.147  15.359  0.00  0.00    +0.000 C 
ATOM      9  C   UNL     1      29.379  29.371  15.057  0.00  0.00    +0.000 C 
ATOM     10  C   UNL     1      28.575  29.710  16.313  0.00  0.00    +0.000 C 
ATOM     11  C   UNL     1      28.181  28.402  16.950  0.00  0.00    +0.000 C 
ATOM     12  C   UNL     1      28.800  28.288  18.323  0.00  0.00    +0.000 C 
ENDBRANCH   3   4
BRANCH   1  17
ATOM     13  N   UNL     1      25.269  25.053  25.184  0.00  0.00    +0.000 NA
ATOM     14  C   UNL     1      26.223  25.130  24.145  0.00  0.00    +0.000 A 
ATOM     15  C   UNL     1      26.802  26.342  23.835  0.00  0.00    +0.000 A 
ATOM     16  C   UNL     1      27.745  26.434  22.812  0.00  0.00    +0.000 A 
ATOM     17  C   UNL     1      28.118  25.324  22.096  0.00  0.00    +0.000 A 
ATOM     18  C   UNL     1      27.539  24.117  22.409  0.00  0.00    +0.000 A 
ATOM     19  C   UNL     1      26.608  24.037  23.419  0.00  0.00    +0.000 A 
ENDBRANCH   1  17
TORSDOF 2
ENDMDL
MODEL 7
REMARK VINA RESULT:      -6.4     18.138     20.309
REMARK  Name = 
REMARK  2 active torsions:
REMARK  status: ('A' for Active; 'I' for Inactive)
REMARK    1  A    between atoms: C_5  and  C_6
REMARK    2  A    between atoms: N_8  and  N_9
REMARK                            x       y       z     vdW  Elec       q    Type
REMARK                         _______ _______ _______ _____ _____    ______ ____
ROOT
ATOM      1  C   UNL     1      27.549  23.078  27.446  0.00  0.00    +0.000 C 
ATOM      2  O   UNL     1      26.615  23.158  28.264  0.00  0.00    +0.000 OA
ATOM      3  N   UNL     1      28.858  22.895  27.927  0.00  0.00    +0.000 NA
ENDROOT
BRANCH   3   4
ATOM      4  N   UNL     1      29.224  22.791  29.249  0.00  0.00    +0.000 NA
ATOM      5  C   UNL     1      30.387  22.556  29.704  0.00  0.00    +0.000 C 
ATOM      6  C   UNL     1      30.354  22.525  31.207  0.00  0.00    +0.000 C 
ATOM      7  C   UNL     1      31.742  22.469  31.789  0.00  0.00    +0.000 C 
ATOM      8  C   UNL     1      32.290  21.086  31.522  0.00  0.00    +0.000 C 
ATOM      9  C   UNL     1      33.701  21.262  30.985  0.00  0.00    +0.000 C 
ATOM     10  C   UNL     1      33.604  21.897  29.598  0.00  0.00    +0.000 C 
ATOM     11  C   UNL     1      32.390  21.307  28.928  0.00  0.00    +0.000 C 
ATOM     12  C   UNL     1      31.380  22.393  28.639  0.00  0.00    +0.000 C 
ENDBRANCH   3   4
BRANCH   1  17
ATOM     13  N   UNL     1      26.510  23.455  21.879  0.00  0.00    +0.000 NA
ATOM     14  C   UNL     1      26.754  23.361  23.266  0.00  0.00    +0.000 A 
ATOM     15  C   UNL     1      28.050  23.309  23.732  0.00  0.00    +0.000 A 
ATOM     16  C   UNL     1      28.307  23.216  25.099  0.00  0.00    +0.000 A 
ATOM     17  C   UNL     1      27.280  23.175  26.008  0.00  0.00    +0.000 A 
ATOM     18  C   UNL     1      25.988  23.228  25.540  0.00  0.00    +0.000 A 
ATOM     19  C   UNL     1      25.744  23.319  24.188  0.00  0.00    +0.000 A 
ENDBRANCH   1  17
TORSDOF 2
ENDMDL
MODEL 8
REMARK VINA RESULT:      -6.2     28.589     30.124
REMARK  Name = 
REMARK  2 active torsions:
REMARK  status: ('A' for Active; 'I' for Inactive)
REMARK    1  A    between atoms: C_5  and  C_6
REMARK    2  A    between atoms: N_8  and  N_9
REMARK                            x       y       z     vdW  Elec       q    Type
REMARK                         _______ _______ _______ _____ _____    ______ ____
ROOT
ATOM      1  C   UNL     1      36.238  19.181  13.326  0.00  0.00    +0.000 C 
ATOM      2  O   UNL     1      37.053  20.085  13.067  0.00  0.00    +0.000 OA
ATOM      3  N   UNL     1      35.118  19.018  12.492  0.00  0.00    +0.000 NA
ENDROOT
BRANCH   3   4
ATOM      4  N   UNL     1      34.821  19.778  11.384  0.00  0.00    +0.000 NA
ATOM      5  C   UNL     1      33.841  20.575  11.244  0.00  0.00    +0.000 C 
ATOM      6  C   UNL     1      33.883  21.207   9.881  0.00  0.00    +0.000 C 
ATOM      7  C   UNL     1      32.872  22.316   9.754  0.00  0.00    +0.000 C 
ATOM      8  C   UNL     1      31.504  21.677   9.690  0.00  0.00    +0.000 C 
ATOM      9  C   UNL     1      30.608  22.444  10.648  0.00  0.00    +0.000 C 
ATOM     10  C   UNL     1      31.085  22.160  12.072  0.00  0.00    +0.000 C 
ATOM     11  C   UNL     1      31.516  20.716  12.112  0.00  0.00    +0.000 C 
ATOM     12  C   UNL     1      32.989  20.626  12.435  0.00  0.00    +0.000 C 
ENDBRANCH   3   4
BRANCH   1  17
ATOM     13  N   UNL     1      37.066  15.798  17.808  0.00  0.00    +0.000 NA
ATOM     14  C   UNL     1      36.849  16.631  16.688  0.00  0.00    +0.000 A 
ATOM     15  C   UNL     1      37.632  17.749  16.505  0.00  0.00    +0.000 A 
ATOM     16  C   UNL     1      37.430  18.582  15.405  0.00  0.00    +0.000 A 
ATOM     17  C   UNL     1      36.451  18.306  14.484  0.00  0.00    +0.000 A 
ATOM     18  C   UNL     1      35.672  17.190  14.670  0.00  0.00    +0.000 A 
ATOM     19  C   UNL     1      35.878  16.374  15.759  0.00  0.00    +0.000 A 
ENDBRANCH   1  17
TORSDOF 2
ENDMDL
MODEL 9
REMARK VINA RESULT:      -6.2      6.113      8.129
REMARK  Name = 
REMARK  2 active torsions:
REMARK  status: ('A' for Active; 'I' for Inactive)
REMARK    1  A    between atoms: C_5  and  C_6
REMARK    2  A    between atoms: N_8  and  N_9
REMARK                            x       y       z     vdW  Elec       q    Type
REMARK                         _______ _______ _______ _____ _____    ______ ____
ROOT
ATOM      1  C   UNL     1      18.809   9.187  38.321  0.00  0.00    +0.000 C 
ATOM      2  O   UNL     1      18.280   9.263  37.198  0.00  0.00    +0.000 OA
ATOM      3  N   UNL     1      20.175   9.493  38.450  0.00  0.00    +0.000 NA
ENDROOT
BRANCH   3   4
ATOM      4  N   UNL     1      21.014   9.881  37.430  0.00  0.00    +0.000 NA
ATOM      5  C   UNL     1      22.275   9.729  37.378  0.00  0.00    +0.000 C 
ATOM      6  C   UNL     1      22.807  10.293  36.089  0.00  0.00    +0.000 C 
ATOM      7  C   UNL     1      24.257   9.939  35.889  0.00  0.00    +0.000 C 
ATOM      8  C   UNL     1      25.063  10.757  36.871  0.00  0.00    +0.000 C 
ATOM      9  C   UNL     1      26.052   9.812  37.533  0.00  0.00    +0.000 C 
ATOM     10  C   UNL     1      25.263   8.844  38.415  0.00  0.00    +0.000 C 
ATOM     11  C   UNL     1      24.131   9.628  39.027  0.00  0.00    +0.000 C 
ATOM     12  C   UNL     1      22.806   9.064  38.570  0.00  0.00    +0.000 C 
ENDBRANCH   3   4
BRANCH   1  17
ATOM     13  N   UNL     1      15.728   7.623  42.825  0.00  0.00    +0.000 NA
ATOM     14  C   UNL     1      16.487   8.024  41.703  0.00  0.00    +0.000 A 
ATOM     15  C   UNL     1      17.513   7.225  41.248  0.00  0.00    +0.000 A 
ATOM     16  C   UNL     1      18.271   7.608  40.143  0.00  0.00    +0.000 A 
ATOM     17  C   UNL     1      18.012   8.784  39.485  0.00  0.00    +0.000 A 
ATOM     18  C   UNL     1      16.988   9.579  39.941  0.00  0.00    +0.000 A 
ATOM     19  C   UNL     1      16.246   9.193  41.034  0.00  0.00    +0.000 A 
ENDBRANCH   1  17
TORSDOF 2
ENDMDL
MODEL 10
REMARK VINA RESULT:      -6.1     22.361     23.905
REMARK  Name = 
REMARK  2 active torsions:
REMARK  status: ('A' for Active; 'I' for Inactive)
REMARK    1  A    between atoms: C_5  and  C_6
REMARK    2  A    between atoms: N_8  and  N_9
REMARK                            x       y       z     vdW  Elec       q    Type
REMARK                         _______ _______ _______ _____ _____    ______ ____
ROOT
ATOM      1  C   UNL     1      22.028  -6.381  24.524  0.00  0.00    +0.000 C 
ATOM      2  O   UNL     1      22.061  -5.562  23.589  0.00  0.00    +0.000 OA
ATOM      3  N   UNL     1      23.174  -7.150  24.795  0.00  0.00    +0.000 NA
ENDROOT
BRANCH   3   4
ATOM      4  N   UNL     1      24.366  -7.087  24.111  0.00  0.00    +0.000 NA
ATOM      5  C   UNL     1      25.106  -8.064  23.774  0.00  0.00    +0.000 C 
ATOM      6  C   UNL     1      26.318  -7.561  23.040  0.00  0.00    +0.000 C 
ATOM      7  C   UNL     1      27.106  -8.692  22.434  0.00  0.00    +0.000 C 
ATOM      8  C   UNL     1      27.787  -9.427  23.566  0.00  0.00    +0.000 C 
ATOM      9  C   UNL     1      27.555 -10.912  23.335  0.00  0.00    +0.000 C 
ATOM     10  C   UNL     1      26.068 -11.197  23.548  0.00  0.00    +0.000 C 
ATOM     11  C   UNL     1      25.610 -10.320  24.685  0.00  0.00    +0.000 C 
ATOM     12  C   UNL     1      24.556  -9.353  24.199  0.00  0.00    +0.000 C 
ENDBRANCH   3   4
BRANCH   1  17
ATOM     13  N   UNL     1      17.309  -6.974  27.623  0.00  0.00    +0.000 NA
ATOM     14  C   UNL     1      18.485  -6.841  26.852  0.00  0.00    +0.000 A 
ATOM     15  C   UNL     1      18.908  -5.590  26.458  0.00  0.00    +0.000 A 
ATOM     16  C   UNL     1      20.067  -5.443  25.697  0.00  0.00    +0.000 A 
ATOM     17  C   UNL     1      20.809  -6.535  25.325  0.00  0.00    +0.000 A 
ATOM     18  C   UNL     1      20.383  -7.781  25.719  0.00  0.00    +0.000 A 
ATOM     19  C   UNL     1      19.238  -7.917  26.471  0.00  0.00    +0.000 A 
ENDBRANCH   1  17
TORSDOF 2
ENDMDL
