MODEL 1
REMARK VINA RESULT:      -6.2      0.000      0.000
REMARK  Name = 
REMARK  4 active torsions:
REMARK  status: ('A' for Active; 'I' for Inactive)
REMARK    1  A    between atoms: O_2  and  C_3
REMARK    2  A    between atoms: C_5  and  N_6
REMARK    3  A    between atoms: C_11  and  N_12
REMARK    4  A    between atoms: C_16  and  C_17
REMARK                            x       y       z     vdW  Elec       q    Type
REMARK                         _______ _______ _______ _____ _____    ______ ____
ROOT
ATOM      1  C   UNL     1      27.338  23.167  26.618  0.00  0.00    +0.000 A 
ATOM      2  C   UNL     1      27.009  23.097  27.927  0.00  0.00    +0.000 A 
ATOM      3  C   UNL     1      26.107  23.961  28.510  0.00  0.00    +0.000 A 
ATOM      4  C   UNL     1      25.528  24.920  27.733  0.00  0.00    +0.000 A 
ATOM      5  C   UNL     1      25.850  25.007  26.396  0.00  0.00    +0.000 A 
ATOM      6  C   UNL     1      26.752  24.141  25.824  0.00  0.00    +0.000 A 
ENDROOT
BRANCH   6   7
ATOM      7  N   UNL     1      27.073  24.244  24.444  0.00  0.00    +0.000 N 
ATOM      8  C   UNL     1      26.388  23.721  23.391  0.00  0.00    +0.000 A 
ATOM      9  C   UNL     1      25.139  22.919  23.476  0.00  0.00    +0.000 C 
ATOM     10  C   UNL     1      27.030  24.049  22.216  0.00  0.00    +0.000 A 
ATOM     11  C   UNL     1      28.140  24.792  22.536  0.00  0.00    +0.000 A 
ATOM     12  C   UNL     1      28.126  24.886  23.910  0.00  0.00    +0.000 A 
ATOM     13  C   UNL     1      29.155  25.613  24.725  0.00  0.00    +0.000 C 
BRANCH  11  14
ATOM     14  C   UNL     1      29.174  25.393  21.637  0.00  0.00    +0.000 C 
ATOM     15  O   UNL     1      29.722  24.408  20.817  0.00  0.00    +0.000 OA
ENDBRANCH  11  14
ENDBRANCH   6   7
BRANCH   3  16
ATOM     16  N   UNL     1      25.827  23.808  29.890  0.00  0.00    +0.000 N 
ATOM     17  O   UNL     1      25.480  24.757  30.596  0.00  0.00    +0.000 OA
ATOM     18  O   UNL     1      25.942  22.571  30.473  0.00  0.00    +0.000 OA
ENDBRANCH   3  16
BRANCH   1  20
ATOM     19  C   UNL     1      29.582  22.347  26.525  0.00  0.00    +0.000 C 
ATOM     20  O   UNL     1      28.246  22.284  26.072  0.00  0.00    +0.000 OA
ENDBRANCH   1  20
TORSDOF 4
ENDMDL
MODEL 2
REMARK VINA RESULT:      -6.1      1.586      2.937
REMARK  Name = 
REMARK  4 active torsions:
REMARK  status: ('A' for Active; 'I' for Inactive)
REMARK    1  A    between atoms: O_2  and  C_3
REMARK    2  A    between atoms: C_5  and  N_6
REMARK    3  A    between atoms: C_11  and  N_12
REMARK    4  A    between atoms: C_16  and  C_17
REMARK                            x       y       z     vdW  Elec       q    Type
REMARK                         _______ _______ _______ _____ _____    ______ ____
ROOT
ATOM      1  C   UNL     1      27.477  24.567  27.289  0.00  0.00    +0.000 A 
ATOM      2  C   UNL     1      26.898  24.354  28.492  0.00  0.00    +0.000 A 
ATOM      3  C   UNL     1      26.882  23.114  29.097  0.00  0.00    +0.000 A 
ATOM      4  C   UNL     1      27.474  22.069  28.452  0.00  0.00    +0.000 A 
ATOM      5  C   UNL     1      28.070  22.266  27.226  0.00  0.00    +0.000 A 
ATOM      6  C   UNL     1      28.080  23.506  26.632  0.00  0.00    +0.000 A 
ENDROOT
BRANCH   6   7
ATOM      7  N   UNL     1      28.699  23.692  25.367  0.00  0.00    +0.000 N 
ATOM      8  C   UNL     1      30.009  23.963  25.115  0.00  0.00    +0.000 A 
ATOM      9  C   UNL     1      31.077  24.121  26.136  0.00  0.00    +0.000 C 
ATOM     10  C   UNL     1      30.204  24.070  23.754  0.00  0.00    +0.000 A 
ATOM     11  C   UNL     1      28.993  23.863  23.138  0.00  0.00    +0.000 A 
ATOM     12  C   UNL     1      28.102  23.635  24.164  0.00  0.00    +0.000 A 
ATOM     13  C   UNL     1      26.639  23.357  23.976  0.00  0.00    +0.000 C 
BRANCH  11  14
ATOM     14  C   UNL     1      28.654  23.870  21.682  0.00  0.00    +0.000 C 
ATOM     15  O   UNL     1      29.703  24.428  20.952  0.00  0.00    +0.000 OA
ENDBRANCH  11  14
ENDBRANCH   6   7
BRANCH   3  16
ATOM     16  N   UNL     1      26.250  22.991  30.358  0.00  0.00    +0.000 N 
ATOM     17  O   UNL     1      25.988  23.974  31.055  0.00  0.00    +0.000 OA
ATOM     18  O   UNL     1      25.913  21.748  30.831  0.00  0.00    +0.000 OA
ENDBRANCH   3  16
BRANCH   1  20
ATOM     19  C   UNL     1      26.230  26.353  26.305  0.00  0.00    +0.000 C 
ATOM     20  O   UNL     1      27.471  25.822  26.718  0.00  0.00    +0.000 OA
ENDBRANCH   1  20
TORSDOF 4
ENDMDL
MODEL 3
REMARK VINA RESULT:      -6.0      1.221      2.213
REMARK  Name = 
REMARK  4 active torsions:
REMARK  status: ('A' for Active; 'I' for Inactive)
REMARK    1  A    between atoms: O_2  and  C_3
REMARK    2  A    between atoms: C_5  and  N_6
REMARK    3  A    between atoms: C_11  and  N_12
REMARK    4  A    between atoms: C_16  and  C_17
REMARK                            x       y       z     vdW  Elec       q    Type
REMARK                         _______ _______ _______ _____ _____    ______ ____
ROOT
ATOM      1  C   UNL     1      26.555  24.478  26.707  0.00  0.00    +0.000 A 
ATOM      2  C   UNL     1      26.406  24.131  28.005  0.00  0.00    +0.000 A 
ATOM      3  C   UNL     1      26.959  22.983  28.532  0.00  0.00    +0.000 A 
ATOM      4  C   UNL     1      27.681  22.172  27.708  0.00  0.00    +0.000 A 
ATOM      5  C   UNL     1      27.845  22.508  26.383  0.00  0.00    +0.000 A 
ATOM      6  C   UNL     1      27.289  23.655  25.867  0.00  0.00    +0.000 A 
ENDROOT
BRANCH   6   7
ATOM      7  N   UNL     1      27.467  23.988  24.497  0.00  0.00    +0.000 N 
ATOM      8  C   UNL     1      26.618  23.733  23.464  0.00  0.00    +0.000 A 
ATOM      9  C   UNL     1      25.307  23.040  23.564  0.00  0.00    +0.000 C 
ATOM     10  C   UNL     1      27.160  24.219  22.293  0.00  0.00    +0.000 A 
ATOM     11  C   UNL     1      28.372  24.790  22.595  0.00  0.00    +0.000 A 
ATOM     12  C   UNL     1      28.518  24.625  23.955  0.00  0.00    +0.000 A 
ATOM     13  C   UNL     1      29.703  25.095  24.748  0.00  0.00    +0.000 C 
BRANCH  11  14
ATOM     14  C   UNL     1      29.360  25.459  21.693  0.00  0.00    +0.000 C 
ATOM     15  O   UNL     1      29.720  24.595  20.659  0.00  0.00    +0.000 OA
ENDBRANCH  11  14
ENDBRANCH   6   7
BRANCH   3  16
ATOM     16  N   UNL     1      26.747  22.706  29.904  0.00  0.00    +0.000 N 
ATOM     17  O   UNL     1      27.295  21.759  30.472  0.00  0.00    +0.000 OA
ATOM     18  O   UNL     1      25.907  23.507  30.637  0.00  0.00    +0.000 OA
ENDBRANCH   3  16
BRANCH   1  20
ATOM     19  C   UNL     1      24.577  25.733  26.228  0.00  0.00    +0.000 C 
ATOM     20  O   UNL     1      25.986  25.635  26.218  0.00  0.00    +0.000 OA
ENDBRANCH   1  20
TORSDOF 4
ENDMDL
MODEL 4
REMARK VINA RESULT:      -5.9      1.498      6.361
REMARK  Name = 
REMARK  4 active torsions:
REMARK  status: ('A' for Active; 'I' for Inactive)
REMARK    1  A    between atoms: O_2  and  C_3
REMARK    2  A    between atoms: C_5  and  N_6
REMARK    3  A    between atoms: C_11  and  N_12
REMARK    4  A    between atoms: C_16  and  C_17
REMARK                            x       y       z     vdW  Elec       q    Type
REMARK                         _______ _______ _______ _____ _____    ______ ____
ROOT
ATOM      1  C   UNL     1      27.302  23.750  24.176  0.00  0.00    +0.000 A 
ATOM      2  C   UNL     1      27.876  24.066  22.994  0.00  0.00    +0.000 A 
ATOM      3  C   UNL     1      28.873  25.013  22.885  0.00  0.00    +0.000 A 
ATOM      4  C   UNL     1      29.291  25.650  24.015  0.00  0.00    +0.000 A 
ATOM      5  C   UNL     1      28.719  25.341  25.230  0.00  0.00    +0.000 A 
ATOM      6  C   UNL     1      27.725  24.396  25.328  0.00  0.00    +0.000 A 
ENDROOT
BRANCH   6   7
ATOM      7  N   UNL     1      27.145  24.089  26.588  0.00  0.00    +0.000 N 
ATOM      8  C   UNL     1      26.041  24.649  27.152  0.00  0.00    +0.000 A 
ATOM      9  C   UNL     1      25.201  25.718  26.549  0.00  0.00    +0.000 C 
ATOM     10  C   UNL     1      25.809  24.072  28.382  0.00  0.00    +0.000 A 
ATOM     11  C   UNL     1      26.787  23.131  28.597  0.00  0.00    +0.000 A 
ATOM     12  C   UNL     1      27.582  23.176  27.472  0.00  0.00    +0.000 A 
ATOM     13  C   UNL     1      28.792  22.317  27.249  0.00  0.00    +0.000 C 
BRANCH  11  14
ATOM     14  C   UNL     1      26.996  22.227  29.769  0.00  0.00    +0.000 C 
ATOM     15  O   UNL     1      25.951  22.380  30.680  0.00  0.00    +0.000 OA
ENDBRANCH  11  14
ENDBRANCH   6   7
BRANCH   3  16
ATOM     16  N   UNL     1      29.411  25.274  21.601  0.00  0.00    +0.000 N 
ATOM     17  O   UNL     1      29.704  24.368  20.819  0.00  0.00    +0.000 OA
ATOM     18  O   UNL     1      29.618  26.571  21.203  0.00  0.00    +0.000 OA
ENDBRANCH   3  16
BRANCH   1  20
ATOM     19  C   UNL     1      25.116  23.035  23.523  0.00  0.00    +0.000 C 
ATOM     20  O   UNL     1      26.307  22.797  24.244  0.00  0.00    +0.000 OA
ENDBRANCH   1  20
TORSDOF 4
ENDMDL
MODEL 5
REMARK VINA RESULT:      -5.8      1.667      6.305
REMARK  Name = 
REMARK  4 active torsions:
REMARK  status: ('A' for Active; 'I' for Inactive)
REMARK    1  A    between atoms: O_2  and  C_3
REMARK    2  A    between atoms: C_5  and  N_6
REMARK    3  A    between atoms: C_11  and  N_12
REMARK    4  A    between atoms: C_16  and  C_17
REMARK                            x       y       z     vdW  Elec       q    Type
REMARK                         _______ _______ _______ _____ _____    ______ ____
ROOT
ATOM      1  C   UNL     1      28.296  25.166  25.254  0.00  0.00    +0.000 A 
ATOM      2  C   UNL     1      28.705  25.404  23.988  0.00  0.00    +0.000 A 
ATOM      3  C   UNL     1      28.239  24.679  22.911  0.00  0.00    +0.000 A 
ATOM      4  C   UNL     1      27.331  23.688  23.138  0.00  0.00    +0.000 A 
ATOM      5  C   UNL     1      26.901  23.431  24.420  0.00  0.00    +0.000 A 
ATOM      6  C   UNL     1      27.373  24.159  25.488  0.00  0.00    +0.000 A 
ENDROOT
BRANCH   6   7
ATOM      7  N   UNL     1      26.919  23.881  26.805  0.00  0.00    +0.000 N 
ATOM      8  C   UNL     1      25.858  24.436  27.452  0.00  0.00    +0.000 A 
ATOM      9  C   UNL     1      24.943  25.468  26.898  0.00  0.00    +0.000 C 
ATOM     10  C   UNL     1      25.754  23.894  28.716  0.00  0.00    +0.000 A 
ATOM     11  C   UNL     1      26.769  22.980  28.866  0.00  0.00    +0.000 A 
ATOM     12  C   UNL     1      27.456  23.006  27.672  0.00  0.00    +0.000 A 
ATOM     13  C   UNL     1      28.659  22.164  27.363  0.00  0.00    +0.000 C 
BRANCH  11  14
ATOM     14  C   UNL     1      27.106  22.118  30.041  0.00  0.00    +0.000 C 
ATOM     15  O   UNL     1      25.954  21.851  30.780  0.00  0.00    +0.000 OA
ENDBRANCH  11  14
ENDBRANCH   6   7
BRANCH   3  16
ATOM     16  N   UNL     1      28.729  25.004  21.622  0.00  0.00    +0.000 N 
ATOM     17  O   UNL     1      28.309  25.975  20.990  0.00  0.00    +0.000 OA
ATOM     18  O   UNL     1      29.700  24.222  21.048  0.00  0.00    +0.000 OA
ENDBRANCH   3  16
BRANCH   1  20
ATOM     19  C   UNL     1      29.634  27.001  26.001  0.00  0.00    +0.000 C 
ATOM     20  O   UNL     1      28.786  25.912  26.304  0.00  0.00    +0.000 OA
ENDBRANCH   1  20
TORSDOF 4
ENDMDL
MODEL 6
REMARK VINA RESULT:      -5.7      1.827      6.523
REMARK  Name = 
REMARK  4 active torsions:
REMARK  status: ('A' for Active; 'I' for Inactive)
REMARK    1  A    between atoms: O_2  and  C_3
REMARK    2  A    between atoms: C_5  and  N_6
REMARK    3  A    between atoms: C_11  and  N_12
REMARK    4  A    between atoms: C_16  and  C_17
REMARK                            x       y       z     vdW  Elec       q    Type
REMARK                         _______ _______ _______ _____ _____    ______ ____
ROOT
ATOM      1  C   UNL     1      28.958  25.035  25.131  0.00  0.00    +0.000 A 
ATOM      2  C   UNL     1      29.163  25.380  23.840  0.00  0.00    +0.000 A 
ATOM      3  C   UNL     1      28.695  24.621  22.788  0.00  0.00    +0.000 A 
ATOM      4  C   UNL     1      28.000  23.482  23.067  0.00  0.00    +0.000 A 
ATOM      5  C   UNL     1      27.780  23.113  24.375  0.00  0.00    +0.000 A 
ATOM      6  C   UNL     1      28.252  23.877  25.417  0.00  0.00    +0.000 A 
ENDROOT
BRANCH   6   7
ATOM      7  N   UNL     1      28.017  23.483  26.762  0.00  0.00    +0.000 N 
ATOM      8  C   UNL     1      28.801  22.693  27.545  0.00  0.00    +0.000 A 
ATOM      9  C   UNL     1      30.089  22.069  27.140  0.00  0.00    +0.000 C 
ATOM     10  C   UNL     1      28.219  22.552  28.787  0.00  0.00    +0.000 A 
ATOM     11  C   UNL     1      27.046  23.268  28.785  0.00  0.00    +0.000 A 
ATOM     12  C   UNL     1      26.964  23.821  27.526  0.00  0.00    +0.000 A 
ATOM     13  C   UNL     1      25.841  24.695  27.051  0.00  0.00    +0.000 C 
BRANCH  11  14
ATOM     14  C   UNL     1      26.040  23.446  29.877  0.00  0.00    +0.000 C 
ATOM     15  O   UNL     1      26.001  22.306  30.678  0.00  0.00    +0.000 OA
ENDBRANCH  11  14
ENDBRANCH   6   7
BRANCH   3  16
ATOM     16  N   UNL     1      28.961  25.066  21.470  0.00  0.00    +0.000 N 
ATOM     17  O   UNL     1      29.708  24.446  20.710  0.00  0.00    +0.000 OA
ATOM     18  O   UNL     1      28.377  26.220  21.012  0.00  0.00    +0.000 OA
ENDBRANCH   3  16
BRANCH   1  20
ATOM     19  C   UNL     1      28.821  27.068  26.381  0.00  0.00    +0.000 C 
ATOM     20  O   UNL     1      29.443  25.820  26.155  0.00  0.00    +0.000 OA
ENDBRANCH   1  20
TORSDOF 4
ENDMDL
MODEL 7
REMARK VINA RESULT:      -5.4     18.009     20.128
REMARK  Name = 
REMARK  4 active torsions:
REMARK  status: ('A' for Active; 'I' for Inactive)
REMARK    1  A    between atoms: O_2  and  C_3
REMARK    2  A    between atoms: C_5  and  N_6
REMARK    3  A    between atoms: C_11  and  N_12
REMARK    4  A    between atoms: C_16  and  C_17
REMARK                            x       y       z     vdW  Elec       q    Type
REMARK                         _______ _______ _______ _____ _____    ______ ____
ROOT
ATOM      1  C   UNL     1      20.417  11.558  38.165  0.00  0.00    +0.000 A 
ATOM      2  C   UNL     1      21.735  11.503  37.868  0.00  0.00    +0.000 A 
ATOM      3  C   UNL     1      22.260  10.562  37.007  0.00  0.00    +0.000 A 
ATOM      4  C   UNL     1      21.415   9.657  36.438  0.00  0.00    +0.000 A 
ATOM      5  C   UNL     1      20.069   9.697  36.728  0.00  0.00    +0.000 A 
ATOM      6  C   UNL     1      19.555  10.639  37.588  0.00  0.00    +0.000 A 
ENDROOT
BRANCH   6   7
ATOM      7  N   UNL     1      18.164  10.668  37.877  0.00  0.00    +0.000 N 
ATOM      8  C   UNL     1      17.509  10.009  38.872  0.00  0.00    +0.000 A 
ATOM      9  C   UNL     1      18.132   9.107  39.877  0.00  0.00    +0.000 C 
ATOM     10  C   UNL     1      16.164  10.303  38.812  0.00  0.00    +0.000 A 
ATOM     11  C   UNL     1      15.968  11.164  37.758  0.00  0.00    +0.000 A 
ATOM     12  C   UNL     1      17.220  11.359  37.216  0.00  0.00    +0.000 A 
ATOM     13  C   UNL     1      17.509  12.234  36.031  0.00  0.00    +0.000 C 
BRANCH  11  14
ATOM     14  C   UNL     1      14.703  11.786  37.261  0.00  0.00    +0.000 C 
ATOM     15  O   UNL     1      13.604  11.072  37.737  0.00  0.00    +0.000 OA
ENDBRANCH  11  14
ENDBRANCH   6   7
BRANCH   3  16
ATOM     16  N   UNL     1      23.654  10.585  36.759  0.00  0.00    +0.000 N 
ATOM     17  O   UNL     1      24.250  11.627  36.477  0.00  0.00    +0.000 OA
ATOM     18  O   UNL     1      24.376   9.420  36.831  0.00  0.00    +0.000 OA
ENDBRANCH   3  16
BRANCH   1  20
ATOM     19  C   UNL     1      19.900  13.854  38.584  0.00  0.00    +0.000 C 
ATOM     20  O   UNL     1      19.931  12.515  39.031  0.00  0.00    +0.000 OA
ENDBRANCH   1  20
TORSDOF 4
ENDMDL
MODEL 8
REMARK VINA RESULT:      -5.3     32.441     33.760
REMARK  Name = 
REMARK  4 active torsions:
REMARK  status: ('A' for Active; 'I' for Inactive)
REMARK    1  A    between atoms: O_2  and  C_3
REMARK    2  A    between atoms: C_5  and  N_6
REMARK    3  A    between atoms: C_11  and  N_12
REMARK    4  A    between atoms: C_16  and  C_17
REMARK                            x       y       z     vdW  Elec       q    Type
REMARK                         _______ _______ _______ _____ _____    ______ ____
ROOT
ATOM      1  C   UNL     1      17.776  -9.103  26.219  0.00  0.00    +0.000 A 
ATOM      2  C   UNL     1      16.897  -9.887  26.882  0.00  0.00    +0.000 A 
ATOM      3  C   UNL     1      16.988 -10.118  28.239  0.00  0.00    +0.000 A 
ATOM      4  C   UNL     1      18.003  -9.529  28.931  0.00  0.00    +0.000 A 
ATOM      5  C   UNL     1      18.909  -8.726  28.275  0.00  0.00    +0.000 A 
ATOM      6  C   UNL     1      18.810  -8.503  26.921  0.00  0.00    +0.000 A 
ENDROOT
BRANCH   6   7
ATOM      7  N   UNL     1      19.751  -7.671  26.258  0.00  0.00    +0.000 N 
ATOM      8  C   UNL     1      19.677  -6.327  26.058  0.00  0.00    +0.000 A 
ATOM      9  C   UNL     1      18.569  -5.440  26.504  0.00  0.00    +0.000 C 
ATOM     10  C   UNL     1      20.794  -5.900  25.373  0.00  0.00    +0.000 A 
ATOM     11  C   UNL     1      21.587  -6.997  25.137  0.00  0.00    +0.000 A 
ATOM     12  C   UNL     1      20.909  -8.058  25.696  0.00  0.00    +0.000 A 
ATOM     13  C   UNL     1      21.393  -9.478  25.686  0.00  0.00    +0.000 C 
BRANCH  11  14
ATOM     14  C   UNL     1      22.905  -7.084  24.434  0.00  0.00    +0.000 C 
ATOM     15  O   UNL     1      23.821  -6.222  25.035  0.00  0.00    +0.000 OA
ENDBRANCH  11  14
ENDBRANCH   6   7
BRANCH   3  16
ATOM     16  N   UNL     1      16.019 -10.956  28.842  0.00  0.00    +0.000 N 
ATOM     17  O   UNL     1      15.077 -11.429  28.204  0.00  0.00    +0.000 OA
ATOM     18  O   UNL     1      16.119 -11.257  30.177  0.00  0.00    +0.000 OA
ENDBRANCH   3  16
BRANCH   1  20
ATOM     19  C   UNL     1      17.934  -9.981  24.001  0.00  0.00    +0.000 C 
ATOM     20  O   UNL     1      17.651  -8.897  24.861  0.00  0.00    +0.000 OA
ENDBRANCH   1  20
TORSDOF 4
ENDMDL
MODEL 9
REMARK VINA RESULT:      -5.2      2.437      3.305
REMARK  Name = 
REMARK  4 active torsions:
REMARK  status: ('A' for Active; 'I' for Inactive)
REMARK    1  A    between atoms: O_2  and  C_3
REMARK    2  A    between atoms: C_5  and  N_6
REMARK    3  A    between atoms: C_11  and  N_12
REMARK    4  A    between atoms: C_16  and  C_17
REMARK                            x       y       z     vdW  Elec       q    Type
REMARK                         _______ _______ _______ _____ _____    ______ ____
ROOT
ATOM      1  C   UNL     1      28.778  24.205  27.261  0.00  0.00    +0.000 A 
ATOM      2  C   UNL     1      29.281  23.862  28.467  0.00  0.00    +0.000 A 
ATOM      3  C   UNL     1      30.119  22.780  28.640  0.00  0.00    +0.000 A 
ATOM      4  C   UNL     1      30.448  22.033  27.549  0.00  0.00    +0.000 A 
ATOM      5  C   UNL     1      29.946  22.366  26.310  0.00  0.00    +0.000 A 
ATOM      6  C   UNL     1      29.111  23.447  26.149  0.00  0.00    +0.000 A 
ENDROOT
BRANCH   6   7
ATOM      7  N   UNL     1      28.601  23.777  24.865  0.00  0.00    +0.000 N 
ATOM      8  C   UNL     1      27.364  23.504  24.367  0.00  0.00    +0.000 A 
ATOM      9  C   UNL     1      26.275  22.789  25.084  0.00  0.00    +0.000 C 
ATOM     10  C   UNL     1      27.266  23.995  23.083  0.00  0.00    +0.000 A 
ATOM     11  C   UNL     1      28.464  24.588  22.766  0.00  0.00    +0.000 A 
ATOM     12  C   UNL     1      29.250  24.431  23.887  0.00  0.00    +0.000 A 
ATOM     13  C   UNL     1      30.662  24.924  24.013  0.00  0.00    +0.000 C 
BRANCH  11  14
ATOM     14  C   UNL     1      28.883  25.270  21.503  0.00  0.00    +0.000 C 
ATOM     15  O   UNL     1      29.674  24.412  20.740  0.00  0.00    +0.000 OA
ENDBRANCH  11  14
ENDBRANCH   6   7
BRANCH   3  16
ATOM     16  N   UNL     1      30.595  22.502  29.944  0.00  0.00    +0.000 N 
ATOM     17  O   UNL     1      29.851  22.515  30.927  0.00  0.00    +0.000 OA
ATOM     18  O   UNL     1      31.921  22.206  30.135  0.00  0.00    +0.000 OA
ENDBRANCH   3  16
BRANCH   1  20
ATOM     19  C   UNL     1      28.528  26.579  27.141  0.00  0.00    +0.000 C 
ATOM     20  O   UNL     1      27.943  25.294  27.130  0.00  0.00    +0.000 OA
ENDBRANCH   1  20
TORSDOF 4
ENDMDL
MODEL 10
REMARK VINA RESULT:      -5.2     17.814     20.534
REMARK  Name = 
REMARK  4 active torsions:
REMARK  status: ('A' for Active; 'I' for Inactive)
REMARK    1  A    between atoms: O_2  and  C_3
REMARK    2  A    between atoms: C_5  and  N_6
REMARK    3  A    between atoms: C_11  and  N_12
REMARK    4  A    between atoms: C_16  and  C_17
REMARK                            x       y       z     vdW  Elec       q    Type
REMARK                         _______ _______ _______ _____ _____    ______ ____
ROOT
ATOM      1  C   UNL     1      20.906  11.658  38.356  0.00  0.00    +0.000 A 
ATOM      2  C   UNL     1      22.166  11.803  37.890  0.00  0.00    +0.000 A 
ATOM      3  C   UNL     1      22.747  10.892  37.032  0.00  0.00    +0.000 A 
ATOM      4  C   UNL     1      22.018   9.808  36.644  0.00  0.00    +0.000 A 
ATOM      5  C   UNL     1      20.732   9.643  37.108  0.00  0.00    +0.000 A 
ATOM      6  C   UNL     1      20.162  10.557  37.963  0.00  0.00    +0.000 A 
ENDROOT
BRANCH   6   7
ATOM      7  N   UNL     1      18.834  10.372  38.433  0.00  0.00    +0.000 N 
ATOM      8  C   UNL     1      17.677  10.722  37.808  0.00  0.00    +0.000 A 
ATOM      9  C   UNL     1      17.568  11.383  36.481  0.00  0.00    +0.000 C 
ATOM     10  C   UNL     1      16.602  10.369  38.597  0.00  0.00    +0.000 A 
ATOM     11  C   UNL     1      17.094   9.785  39.740  0.00  0.00    +0.000 A 
ATOM     12  C   UNL     1      18.464   9.808  39.595  0.00  0.00    +0.000 A 
ATOM     13  C   UNL     1      19.437   9.273  40.605  0.00  0.00    +0.000 C 
BRANCH  11  14
ATOM     14  C   UNL     1      16.356   9.228  40.916  0.00  0.00    +0.000 C 
ATOM     15  O   UNL     1      16.424   7.836  40.903  0.00  0.00    +0.000 OA
ENDBRANCH  11  14
ENDBRANCH   6   7
BRANCH   3  16
ATOM     16  N   UNL     1      24.074  11.132  36.599  0.00  0.00    +0.000 N 
ATOM     17  O   UNL     1      24.677  10.338  35.874  0.00  0.00    +0.000 OA
ATOM     18  O   UNL     1      24.720  12.277  36.991  0.00  0.00    +0.000 OA
ENDBRANCH   3  16
BRANCH   1  20
ATOM     19  C   UNL     1      20.006  13.849  38.678  0.00  0.00    +0.000 C 
ATOM     20  O   UNL     1      20.361  12.591  39.213  0.00  0.00    +0.000 OA
ENDBRANCH   1  20
TORSDOF 4
ENDMDL
