MODEL 1
REMARK VINA RESULT:      -7.1      0.000      0.000
REMARK  Name = 
REMARK  2 active torsions:
REMARK  status: ('A' for Active; 'I' for Inactive)
REMARK    1  A    between atoms: C_11  and  N_12
REMARK    2  A    between atoms: N_12  and  C_13
REMARK                            x       y       z     vdW  Elec       q    Type
REMARK                         _______ _______ _______ _____ _____    ______ ____
ROOT
ATOM      1  C   UNL     1      27.577  22.147  30.496  0.00  0.00    +0.000 C 
ATOM      2  C   UNL     1      26.787  23.133  29.690  0.00  0.00    +0.000 A 
ATOM      3  C   UNL     1      26.079  24.159  30.311  0.00  0.00    +0.000 A 
ATOM      4  C   UNL     1      25.349  25.074  29.593  0.00  0.00    +0.000 A 
ATOM      5  C   UNL     1      24.603  26.156  30.262  0.00  0.00    +0.000 C 
ATOM      6  C   UNL     1      25.316  24.972  28.222  0.00  0.00    +0.000 A 
ATOM      7  N   UNL     1      24.622  25.839  27.499  0.00  0.00    +0.000 NA
ATOM      8  C   UNL     1      24.588  25.742  26.156  0.00  0.00    +0.000 A 
ATOM      9  C   UNL     1      23.781  26.757  25.395  0.00  0.00    +0.000 C 
ATOM     10  C   UNL     1      25.263  24.754  25.470  0.00  0.00    +0.000 A 
ATOM     11  C   UNL     1      25.997  23.834  26.186  0.00  0.00    +0.000 A 
ATOM     12  C   UNL     1      26.016  23.954  27.558  0.00  0.00    +0.000 A 
ATOM     13  C   UNL     1      26.735  23.058  28.316  0.00  0.00    +0.000 A 
ENDROOT
BRANCH  11  14
ATOM     14  N   UNL     1      26.730  22.773  25.571  0.00  0.00    +0.000 NA
BRANCH  14  15
ATOM     15  C   UNL     1      28.037  22.936  25.068  0.00  0.00    +0.000 A 
ATOM     16  C   UNL     1      29.106  22.575  25.829  0.00  0.00    +0.000 A 
ATOM     17  C   UNL     1      30.391  22.727  25.356  0.00  0.00    +0.000 A 
ATOM     18  C   UNL     1      30.603  23.245  24.108  0.00  0.00    +0.000 A 
ATOM     19  C   UNL     1      29.524  23.619  23.315  0.00  0.00    +0.000 A 
ATOM     20  O   UNL     1      29.759  24.151  22.034  0.00  0.00    +0.000 OA
ATOM     21  C   UNL     1      28.269  23.454  23.819  0.00  0.00    +0.000 A 
ENDBRANCH  14  15
ENDBRANCH  11  14
TORSDOF 2
ENDMDL
MODEL 2
REMARK VINA RESULT:      -7.0     17.407     19.397
REMARK  Name = 
REMARK  2 active torsions:
REMARK  status: ('A' for Active; 'I' for Inactive)
REMARK    1  A    between atoms: C_11  and  N_12
REMARK    2  A    between atoms: N_12  and  C_13
REMARK                            x       y       z     vdW  Elec       q    Type
REMARK                         _______ _______ _______ _____ _____    ______ ____
ROOT
ATOM      1  C   UNL     1      16.606  11.589  33.532  0.00  0.00    +0.000 C 
ATOM      2  C   UNL     1      16.524  11.248  34.989  0.00  0.00    +0.000 A 
ATOM      3  C   UNL     1      15.372  11.524  35.724  0.00  0.00    +0.000 A 
ATOM      4  C   UNL     1      15.274  11.219  37.059  0.00  0.00    +0.000 A 
ATOM      5  C   UNL     1      14.050  11.516  37.826  0.00  0.00    +0.000 C 
ATOM      6  C   UNL     1      16.343  10.626  37.688  0.00  0.00    +0.000 A 
ATOM      7  N   UNL     1      16.280  10.318  38.975  0.00  0.00    +0.000 NA
ATOM      8  C   UNL     1      17.327   9.737  39.594  0.00  0.00    +0.000 A 
ATOM      9  C   UNL     1      17.191   9.415  41.056  0.00  0.00    +0.000 C 
ATOM     10  C   UNL     1      18.499   9.433  38.934  0.00  0.00    +0.000 A 
ATOM     11  C   UNL     1      18.603   9.737  37.595  0.00  0.00    +0.000 A 
ATOM     12  C   UNL     1      17.521  10.331  36.984  0.00  0.00    +0.000 A 
ATOM     13  C   UNL     1      17.576  10.653  35.648  0.00  0.00    +0.000 A 
ENDROOT
BRANCH  11  14
ATOM     14  N   UNL     1      19.773   9.464  36.821  0.00  0.00    +0.000 NA
BRANCH  14  15
ATOM     15  C   UNL     1      21.003  10.117  37.037  0.00  0.00    +0.000 A 
ATOM     16  C   UNL     1      21.062  11.190  37.872  0.00  0.00    +0.000 A 
ATOM     17  C   UNL     1      22.255  11.843  38.096  0.00  0.00    +0.000 A 
ATOM     18  C   UNL     1      23.397  11.414  37.477  0.00  0.00    +0.000 A 
ATOM     19  C   UNL     1      23.356  10.320  36.620  0.00  0.00    +0.000 A 
ATOM     20  O   UNL     1      24.539   9.891  35.991  0.00  0.00    +0.000 OA
ATOM     21  C   UNL     1      22.159   9.702  36.424  0.00  0.00    +0.000 A 
ENDBRANCH  14  15
ENDBRANCH  11  14
TORSDOF 2
ENDMDL
MODEL 3
REMARK VINA RESULT:      -6.8      3.504      5.746
REMARK  Name = 
REMARK  2 active torsions:
REMARK  status: ('A' for Active; 'I' for Inactive)
REMARK    1  A    between atoms: C_11  and  N_12
REMARK    2  A    between atoms: N_12  and  C_13
REMARK                            x       y       z     vdW  Elec       q    Type
REMARK                         _______ _______ _______ _____ _____    ______ ____
ROOT
ATOM      1  C   UNL     1      32.946  23.949  24.856  0.00  0.00    +0.000 C 
ATOM      2  C   UNL     1      31.469  23.702  24.791  0.00  0.00    +0.000 A 
ATOM      3  C   UNL     1      30.781  23.186  25.887  0.00  0.00    +0.000 A 
ATOM      4  C   UNL     1      29.429  22.953  25.850  0.00  0.00    +0.000 A 
ATOM      5  C   UNL     1      28.712  22.406  27.018  0.00  0.00    +0.000 C 
ATOM      6  C   UNL     1      28.734  23.238  24.699  0.00  0.00    +0.000 A 
ATOM      7  N   UNL     1      27.428  23.026  24.631  0.00  0.00    +0.000 NA
ATOM      8  C   UNL     1      26.745  23.304  23.503  0.00  0.00    +0.000 A 
ATOM      9  C   UNL     1      25.266  23.039  23.491  0.00  0.00    +0.000 C 
ATOM     10  C   UNL     1      27.355  23.818  22.377  0.00  0.00    +0.000 A 
ATOM     11  C   UNL     1      28.712  24.053  22.409  0.00  0.00    +0.000 A 
ATOM     12  C   UNL     1      29.389  23.760  23.573  0.00  0.00    +0.000 A 
ATOM     13  C   UNL     1      30.745  23.978  23.653  0.00  0.00    +0.000 A 
ENDROOT
BRANCH  11  14
ATOM     14  N   UNL     1      29.439  24.581  21.298  0.00  0.00    +0.000 NA
BRANCH  14  15
ATOM     15  C   UNL     1      29.442  25.951  20.967  0.00  0.00    +0.000 A 
ATOM     16  C   UNL     1      29.087  26.874  21.903  0.00  0.00    +0.000 A 
ATOM     17  C   UNL     1      29.084  28.219  21.600  0.00  0.00    +0.000 A 
ATOM     18  C   UNL     1      29.441  28.638  20.348  0.00  0.00    +0.000 A 
ATOM     19  C   UNL     1      29.806  27.711  19.379  0.00  0.00    +0.000 A 
ATOM     20  O   UNL     1      30.171  28.159  18.096  0.00  0.00    +0.000 OA
ATOM     21  C   UNL     1      29.797  26.391  19.717  0.00  0.00    +0.000 A 
ENDBRANCH  14  15
ENDBRANCH  11  14
TORSDOF 2
ENDMDL
MODEL 4
REMARK VINA RESULT:      -6.8      1.860      3.934
REMARK  Name = 
REMARK  2 active torsions:
REMARK  status: ('A' for Active; 'I' for Inactive)
REMARK    1  A    between atoms: C_11  and  N_12
REMARK    2  A    between atoms: N_12  and  C_13
REMARK                            x       y       z     vdW  Elec       q    Type
REMARK                         _______ _______ _______ _____ _____    ______ ____
ROOT
ATOM      1  C   UNL     1      23.675  25.690  27.407  0.00  0.00    +0.000 C 
ATOM      2  C   UNL     1      24.968  24.949  27.561  0.00  0.00    +0.000 A 
ATOM      3  C   UNL     1      25.513  24.717  28.823  0.00  0.00    +0.000 A 
ATOM      4  C   UNL     1      26.695  24.040  28.988  0.00  0.00    +0.000 A 
ATOM      5  C   UNL     1      27.262  23.801  30.328  0.00  0.00    +0.000 C 
ATOM      6  C   UNL     1      27.360  23.578  27.877  0.00  0.00    +0.000 A 
ATOM      7  N   UNL     1      28.503  22.919  28.002  0.00  0.00    +0.000 NA
ATOM      8  C   UNL     1      29.157  22.465  26.915  0.00  0.00    +0.000 A 
ATOM      9  C   UNL     1      30.449  21.727  27.125  0.00  0.00    +0.000 C 
ATOM     10  C   UNL     1      28.680  22.655  25.634  0.00  0.00    +0.000 A 
ATOM     11  C   UNL     1      27.495  23.335  25.462  0.00  0.00    +0.000 A 
ATOM     12  C   UNL     1      26.845  23.789  26.589  0.00  0.00    +0.000 A 
ATOM     13  C   UNL     1      25.657  24.473  26.468  0.00  0.00    +0.000 A 
ENDROOT
BRANCH  11  14
ATOM     14  N   UNL     1      26.917  23.584  24.179  0.00  0.00    +0.000 NA
BRANCH  14  15
ATOM     15  C   UNL     1      27.442  24.528  23.274  0.00  0.00    +0.000 A 
ATOM     16  C   UNL     1      27.058  25.831  23.355  0.00  0.00    +0.000 A 
ATOM     17  C   UNL     1      27.560  26.769  22.479  0.00  0.00    +0.000 A 
ATOM     18  C   UNL     1      28.454  26.395  21.514  0.00  0.00    +0.000 A 
ATOM     19  C   UNL     1      28.858  25.068  21.415  0.00  0.00    +0.000 A 
ATOM     20  O   UNL     1      29.778  24.699  20.417  0.00  0.00    +0.000 OA
ATOM     21  C   UNL     1      28.340  24.171  22.299  0.00  0.00    +0.000 A 
ENDBRANCH  14  15
ENDBRANCH  11  14
TORSDOF 2
ENDMDL
MODEL 5
REMARK VINA RESULT:      -6.7      3.246      6.099
REMARK  Name = 
REMARK  2 active torsions:
REMARK  status: ('A' for Active; 'I' for Inactive)
REMARK    1  A    between atoms: C_11  and  N_12
REMARK    2  A    between atoms: N_12  and  C_13
REMARK                            x       y       z     vdW  Elec       q    Type
REMARK                         _______ _______ _______ _____ _____    ______ ____
ROOT
ATOM      1  C   UNL     1      32.633  24.323  25.811  0.00  0.00    +0.000 C 
ATOM      2  C   UNL     1      31.277  24.190  25.189  0.00  0.00    +0.000 A 
ATOM      3  C   UNL     1      31.009  24.733  23.934  0.00  0.00    +0.000 A 
ATOM      4  C   UNL     1      29.774  24.622  23.345  0.00  0.00    +0.000 A 
ATOM      5  C   UNL     1      29.504  25.201  22.016  0.00  0.00    +0.000 C 
ATOM      6  C   UNL     1      28.774  23.957  24.013  0.00  0.00    +0.000 A 
ATOM      7  N   UNL     1      27.571  23.832  23.471  0.00  0.00    +0.000 NA
ATOM      8  C   UNL     1      26.588  23.180  24.124  0.00  0.00    +0.000 A 
ATOM      9  C   UNL     1      25.247  23.075  23.455  0.00  0.00    +0.000 C 
ATOM     10  C   UNL     1      26.777  22.616  25.369  0.00  0.00    +0.000 A 
ATOM     11  C   UNL     1      28.014  22.725  25.965  0.00  0.00    +0.000 A 
ATOM     12  C   UNL     1      29.001  23.395  25.278  0.00  0.00    +0.000 A 
ATOM     13  C   UNL     1      30.254  23.529  25.832  0.00  0.00    +0.000 A 
ENDROOT
BRANCH  11  14
ATOM     14  N   UNL     1      28.311  22.176  27.251  0.00  0.00    +0.000 NA
BRANCH  14  15
ATOM     15  C   UNL     1      27.676  22.608  28.432  0.00  0.00    +0.000 A 
ATOM     16  C   UNL     1      27.744  23.917  28.798  0.00  0.00    +0.000 A 
ATOM     17  C   UNL     1      27.129  24.359  29.950  0.00  0.00    +0.000 A 
ATOM     18  C   UNL     1      26.442  23.479  30.739  0.00  0.00    +0.000 A 
ATOM     19  C   UNL     1      26.361  22.138  30.382  0.00  0.00    +0.000 A 
ATOM     20  O   UNL     1      25.650  21.245  31.204  0.00  0.00    +0.000 OA
ATOM     21  C   UNL     1      26.981  21.740  29.237  0.00  0.00    +0.000 A 
ENDBRANCH  14  15
ENDBRANCH  11  14
TORSDOF 2
ENDMDL
MODEL 6
REMARK VINA RESULT:      -6.6      2.851      6.072
REMARK  Name = 
REMARK  2 active torsions:
REMARK  status: ('A' for Active; 'I' for Inactive)
REMARK    1  A    between atoms: C_11  and  N_12
REMARK    2  A    between atoms: N_12  and  C_13
REMARK                            x       y       z     vdW  Elec       q    Type
REMARK                         _______ _______ _______ _____ _____    ______ ____
ROOT
ATOM      1  C   UNL     1      31.876  22.771  29.235  0.00  0.00    +0.000 C 
ATOM      2  C   UNL     1      31.512  23.090  27.817  0.00  0.00    +0.000 A 
ATOM      3  C   UNL     1      32.456  23.617  26.938  0.00  0.00    +0.000 A 
ATOM      4  C   UNL     1      32.145  23.915  25.634  0.00  0.00    +0.000 A 
ATOM      5  C   UNL     1      33.153  24.473  24.714  0.00  0.00    +0.000 C 
ATOM      6  C   UNL     1      30.866  23.687  25.185  0.00  0.00    +0.000 A 
ATOM      7  N   UNL     1      30.534  23.963  23.932  0.00  0.00    +0.000 NA
ATOM      8  C   UNL     1      29.281  23.740  23.489  0.00  0.00    +0.000 A 
ATOM      9  C   UNL     1      28.969  24.076  22.057  0.00  0.00    +0.000 C 
ATOM     10  C   UNL     1      28.293  23.220  24.299  0.00  0.00    +0.000 A 
ATOM     11  C   UNL     1      28.599  22.920  25.607  0.00  0.00    +0.000 A 
ATOM     12  C   UNL     1      29.886  23.156  26.037  0.00  0.00    +0.000 A 
ATOM     13  C   UNL     1      30.240  22.872  27.336  0.00  0.00    +0.000 A 
ENDROOT
BRANCH  11  14
ATOM     14  N   UNL     1      27.648  22.379  26.527  0.00  0.00    +0.000 NA
BRANCH  14  15
ATOM     15  C   UNL     1      26.845  23.183  27.360  0.00  0.00    +0.000 A 
ATOM     16  C   UNL     1      26.040  24.133  26.812  0.00  0.00    +0.000 A 
ATOM     17  C   UNL     1      25.247  24.930  27.609  0.00  0.00    +0.000 A 
ATOM     18  C   UNL     1      25.264  24.771  28.967  0.00  0.00    +0.000 A 
ATOM     19  C   UNL     1      26.081  23.806  29.546  0.00  0.00    +0.000 A 
ATOM     20  O   UNL     1      26.087  23.654  30.945  0.00  0.00    +0.000 OA
ATOM     21  C   UNL     1      26.849  23.038  28.725  0.00  0.00    +0.000 A 
ENDBRANCH  14  15
ENDBRANCH  11  14
TORSDOF 2
ENDMDL
MODEL 7
REMARK VINA RESULT:      -6.6     32.192     33.801
REMARK  Name = 
REMARK  2 active torsions:
REMARK  status: ('A' for Active; 'I' for Inactive)
REMARK    1  A    between atoms: C_11  and  N_12
REMARK    2  A    between atoms: N_12  and  C_13
REMARK                            x       y       z     vdW  Elec       q    Type
REMARK                         _______ _______ _______ _____ _____    ______ ____
ROOT
ATOM      1  C   UNL     1      22.558 -11.121  24.611  0.00  0.00    +0.000 C 
ATOM      2  C   UNL     1      21.980  -9.759  24.846  0.00  0.00    +0.000 A 
ATOM      3  C   UNL     1      22.550  -8.630  24.261  0.00  0.00    +0.000 A 
ATOM      4  C   UNL     1      22.036  -7.372  24.461  0.00  0.00    +0.000 A 
ATOM      5  C   UNL     1      22.648  -6.185  23.836  0.00  0.00    +0.000 C 
ATOM      6  C   UNL     1      20.928  -7.224  25.261  0.00  0.00    +0.000 A 
ATOM      7  N   UNL     1      20.407  -6.024  25.474  0.00  0.00    +0.000 NA
ATOM      8  C   UNL     1      19.322  -5.876  26.258  0.00  0.00    +0.000 A 
ATOM      9  C   UNL     1      18.781  -4.488  26.459  0.00  0.00    +0.000 C 
ATOM     10  C   UNL     1      18.701  -6.945  26.871  0.00  0.00    +0.000 A 
ATOM     11  C   UNL     1      19.213  -8.209  26.673  0.00  0.00    +0.000 A 
ATOM     12  C   UNL     1      20.323  -8.335  25.868  0.00  0.00    +0.000 A 
ATOM     13  C   UNL     1      20.870  -9.577  25.641  0.00  0.00    +0.000 A 
ENDROOT
BRANCH  11  14
ATOM     14  N   UNL     1      18.646  -9.381  27.263  0.00  0.00    +0.000 NA
BRANCH  14  15
ATOM     15  C   UNL     1      18.660  -9.624  28.651  0.00  0.00    +0.000 A 
ATOM     16  C   UNL     1      19.844  -9.639  29.323  0.00  0.00    +0.000 A 
ATOM     17  C   UNL     1      19.879  -9.875  30.681  0.00  0.00    +0.000 A 
ATOM     18  C   UNL     1      18.717 -10.096  31.367  0.00  0.00    +0.000 A 
ATOM     19  C   UNL     1      17.499 -10.084  30.698  0.00  0.00    +0.000 A 
ATOM     20  O   UNL     1      16.312 -10.312  31.418  0.00  0.00    +0.000 OA
ATOM     21  C   UNL     1      17.505  -9.847  29.357  0.00  0.00    +0.000 A 
ENDBRANCH  14  15
ENDBRANCH  11  14
TORSDOF 2
ENDMDL
MODEL 8
REMARK VINA RESULT:      -6.3      2.434      4.142
REMARK  Name = 
REMARK  2 active torsions:
REMARK  status: ('A' for Active; 'I' for Inactive)
REMARK    1  A    between atoms: C_11  and  N_12
REMARK    2  A    between atoms: N_12  and  C_13
REMARK                            x       y       z     vdW  Elec       q    Type
REMARK                         _______ _______ _______ _____ _____    ______ ____
ROOT
ATOM      1  C   UNL     1      26.177  23.392  29.450  0.00  0.00    +0.000 C 
ATOM      2  C   UNL     1      26.458  23.584  27.991  0.00  0.00    +0.000 A 
ATOM      3  C   UNL     1      25.576  24.296  27.180  0.00  0.00    +0.000 A 
ATOM      4  C   UNL     1      25.814  24.485  25.842  0.00  0.00    +0.000 A 
ATOM      5  C   UNL     1      24.872  25.240  24.994  0.00  0.00    +0.000 C 
ATOM      6  C   UNL     1      26.955  23.957  25.286  0.00  0.00    +0.000 A 
ATOM      7  N   UNL     1      27.214  24.123  23.997  0.00  0.00    +0.000 NA
ATOM      8  C   UNL     1      28.332  23.606  23.450  0.00  0.00    +0.000 A 
ATOM      9  C   UNL     1      28.566  23.828  21.982  0.00  0.00    +0.000 C 
ATOM     10  C   UNL     1      29.253  22.890  24.187  0.00  0.00    +0.000 A 
ATOM     11  C   UNL     1      29.018  22.697  25.531  0.00  0.00    +0.000 A 
ATOM     12  C   UNL     1      27.870  23.235  26.067  0.00  0.00    +0.000 A 
ATOM     13  C   UNL     1      27.592  23.069  27.405  0.00  0.00    +0.000 A 
ENDROOT
BRANCH  11  14
ATOM     14  N   UNL     1      29.909  21.971  26.381  0.00  0.00    +0.000 NA
BRANCH  14  15
ATOM     15  C   UNL     1      31.002  22.572  27.036  0.00  0.00    +0.000 A 
ATOM     16  C   UNL     1      31.427  22.082  28.233  0.00  0.00    +0.000 A 
ATOM     17  C   UNL     1      32.494  22.655  28.890  0.00  0.00    +0.000 A 
ATOM     18  C   UNL     1      33.139  23.728  28.340  0.00  0.00    +0.000 A 
ATOM     19  C   UNL     1      32.720  24.243  27.119  0.00  0.00    +0.000 A 
ATOM     20  O   UNL     1      33.394  25.347  26.566  0.00  0.00    +0.000 OA
ATOM     21  C   UNL     1      31.662  23.649  26.500  0.00  0.00    +0.000 A 
ENDBRANCH  14  15
ENDBRANCH  11  14
TORSDOF 2
ENDMDL
MODEL 9
REMARK VINA RESULT:      -6.1      2.494      3.699
REMARK  Name = 
REMARK  2 active torsions:
REMARK  status: ('A' for Active; 'I' for Inactive)
REMARK    1  A    between atoms: C_11  and  N_12
REMARK    2  A    between atoms: N_12  and  C_13
REMARK                            x       y       z     vdW  Elec       q    Type
REMARK                         _______ _______ _______ _____ _____    ______ ____
ROOT
ATOM      1  C   UNL     1      25.248  25.285  30.170  0.00  0.00    +0.000 C 
ATOM      2  C   UNL     1      25.268  25.082  28.685  0.00  0.00    +0.000 A 
ATOM      3  C   UNL     1      24.468  25.857  27.847  0.00  0.00    +0.000 A 
ATOM      4  C   UNL     1      24.471  25.690  26.485  0.00  0.00    +0.000 A 
ATOM      5  C   UNL     1      23.619  26.515  25.609  0.00  0.00    +0.000 C 
ATOM      6  C   UNL     1      25.286  24.731  25.932  0.00  0.00    +0.000 A 
ATOM      7  N   UNL     1      25.313  24.544  24.620  0.00  0.00    +0.000 NA
ATOM      8  C   UNL     1      26.111  23.605  24.076  0.00  0.00    +0.000 A 
ATOM      9  C   UNL     1      26.093  23.444  22.582  0.00  0.00    +0.000 C 
ATOM     10  C   UNL     1      26.931  22.801  24.840  0.00  0.00    +0.000 A 
ATOM     11  C   UNL     1      26.932  22.964  26.207  0.00  0.00    +0.000 A 
ATOM     12  C   UNL     1      26.108  23.930  26.740  0.00  0.00    +0.000 A 
ATOM     13  C   UNL     1      26.074  24.131  28.101  0.00  0.00    +0.000 A 
ENDROOT
BRANCH  11  14
ATOM     14  N   UNL     1      27.744  22.182  27.086  0.00  0.00    +0.000 NA
BRANCH  14  15
ATOM     15  C   UNL     1      29.089  22.494  27.366  0.00  0.00    +0.000 A 
ATOM     16  C   UNL     1      30.010  22.479  26.364  0.00  0.00    +0.000 A 
ATOM     17  C   UNL     1      31.331  22.781  26.618  0.00  0.00    +0.000 A 
ATOM     18  C   UNL     1      31.728  23.100  27.887  0.00  0.00    +0.000 A 
ATOM     19  C   UNL     1      30.802  23.120  28.923  0.00  0.00    +0.000 A 
ATOM     20  O   UNL     1      31.227  23.450  30.223  0.00  0.00    +0.000 OA
ATOM     21  C   UNL     1      29.507  22.816  28.633  0.00  0.00    +0.000 A 
ENDBRANCH  14  15
ENDBRANCH  11  14
TORSDOF 2
ENDMDL
MODEL 10
REMARK VINA RESULT:      -6.1     22.094     23.763
REMARK  Name = 
REMARK  2 active torsions:
REMARK  status: ('A' for Active; 'I' for Inactive)
REMARK    1  A    between atoms: C_11  and  N_12
REMARK    2  A    between atoms: N_12  and  C_13
REMARK                            x       y       z     vdW  Elec       q    Type
REMARK                         _______ _______ _______ _____ _____    ______ ____
ROOT
ATOM      1  C   UNL     1      27.678  -0.338  16.993  0.00  0.00    +0.000 C 
ATOM      2  C   UNL     1      26.240   0.080  17.026  0.00  0.00    +0.000 A 
ATOM      3  C   UNL     1      25.248  -0.726  16.472  0.00  0.00    +0.000 A 
ATOM      4  C   UNL     1      23.924  -0.363  16.492  0.00  0.00    +0.000 A 
ATOM      5  C   UNL     1      22.883  -1.225  15.902  0.00  0.00    +0.000 C 
ATOM      6  C   UNL     1      23.568   0.830  17.075  0.00  0.00    +0.000 A 
ATOM      7  N   UNL     1      22.299   1.209  17.111  0.00  0.00    +0.000 NA
ATOM      8  C   UNL     1      21.948   2.378  17.682  0.00  0.00    +0.000 A 
ATOM      9  C   UNL     1      20.491   2.750  17.689  0.00  0.00    +0.000 C 
ATOM     10  C   UNL     1      22.872   3.229  18.252  0.00  0.00    +0.000 A 
ATOM     11  C   UNL     1      24.201   2.870  18.234  0.00  0.00    +0.000 A 
ATOM     12  C   UNL     1      24.536   1.671  17.645  0.00  0.00    +0.000 A 
ATOM     13  C   UNL     1      25.851   1.269  17.603  0.00  0.00    +0.000 A 
ENDROOT
BRANCH  11  14
ATOM     14  N   UNL     1      25.236   3.681  18.795  0.00  0.00    +0.000 NA
BRANCH  14  15
ATOM     15  C   UNL     1      25.858   4.728  18.086  0.00  0.00    +0.000 A 
ATOM     16  C   UNL     1      26.745   5.542  18.721  0.00  0.00    +0.000 A 
ATOM     17  C   UNL     1      27.364   6.572  18.046  0.00  0.00    +0.000 A 
ATOM     18  C   UNL     1      27.090   6.784  16.723  0.00  0.00    +0.000 A 
ATOM     19  C   UNL     1      26.188   5.962  16.057  0.00  0.00    +0.000 A 
ATOM     20  O   UNL     1      25.917   6.194  14.696  0.00  0.00    +0.000 OA
ATOM     21  C   UNL     1      25.596   4.956  16.759  0.00  0.00    +0.000 A 
ENDBRANCH  14  15
ENDBRANCH  11  14
TORSDOF 2
ENDMDL
