MODEL 1
REMARK VINA RESULT:      -7.3      0.000      0.000
REMARK  Name = 
REMARK  4 active torsions:
REMARK  status: ('A' for Active; 'I' for Inactive)
REMARK    1  A    between atoms: C_2  and  C_3
REMARK    2  A    between atoms: C_3  and  C_4
REMARK    3  A    between atoms: C_4  and  C_5
REMARK    4  A    between atoms: N_11  and  C_12
REMARK                            x       y       z     vdW  Elec       q    Type
REMARK                         _______ _______ _______ _____ _____    ______ ____
ROOT
ATOM      1  O   UNL     1      12.575  14.119  35.708  0.00  0.00    +0.000 OA
ATOM      2  C   UNL     1      13.435  13.617  34.912  0.00  0.00    +0.000 C 
ATOM      3  N   UNL     1      14.052  12.424  35.313  0.00  0.00    +0.000 NA
ENDROOT
BRANCH   3   4
ATOM      4  C   UNL     1      13.736  11.789  36.561  0.00  0.00    +0.000 A 
ATOM      5  C   UNL     1      12.468  11.324  36.852  0.00  0.00    +0.000 A 
ATOM      6  C   UNL     1      12.185  10.717  38.059  0.00  0.00    +0.000 A 
ATOM      7  C   UNL     1      13.153  10.547  39.026  0.00  0.00    +0.000 A 
ATOM      8  C   UNL     1      14.421  11.008  38.745  0.00  0.00    +0.000 A 
ATOM      9  C   UNL     1      14.695  11.614  37.537  0.00  0.00    +0.000 A 
ATOM     10  O   UNL     1      15.986  12.060  37.300  0.00  0.00    +0.000 OA
ENDBRANCH   3   4
BRANCH   2  11
ATOM     11  C   UNL     1      13.722  14.315  33.635  0.00  0.00    +0.000 C 
BRANCH  11  12
ATOM     12  C   UNL     1      14.446  13.393  32.679  0.00  0.00    +0.000 C 
BRANCH  12  13
ATOM     13  C   UNL     1      14.253  13.815  31.253  0.00  0.00    +0.000 C 
ATOM     14  C   UNL     1      15.519  14.237  30.572  0.00  0.00    +0.000 C 
ATOM     15  C   UNL     1      16.559  13.143  30.704  0.00  0.00    +0.000 C 
ATOM     16  C   UNL     1      15.942  11.893  31.299  0.00  0.00    +0.000 C 
ATOM     17  C   UNL     1      14.667  11.504  30.609  0.00  0.00    +0.000 C 
ATOM     18  C   UNL     1      13.691  12.633  30.493  0.00  0.00    +0.000 C 
ENDBRANCH  12  13
ENDBRANCH  11  12
ENDBRANCH   2  11
TORSDOF 4
ENDMDL
MODEL 2
REMARK VINA RESULT:      -7.1      2.884      6.645
REMARK  Name = 
REMARK  4 active torsions:
REMARK  status: ('A' for Active; 'I' for Inactive)
REMARK    1  A    between atoms: C_2  and  C_3
REMARK    2  A    between atoms: C_3  and  C_4
REMARK    3  A    between atoms: C_4  and  C_5
REMARK    4  A    between atoms: N_11  and  C_12
REMARK                            x       y       z     vdW  Elec       q    Type
REMARK                         _______ _______ _______ _____ _____    ______ ____
ROOT
ATOM      1  O   UNL     1      17.457  11.615  33.615  0.00  0.00    +0.000 OA
ATOM      2  C   UNL     1      16.701  10.649  33.965  0.00  0.00    +0.000 C 
ATOM      3  N   UNL     1      15.387  10.664  33.479  0.00  0.00    +0.000 NA
ENDROOT
BRANCH   3   4
ATOM      4  C   UNL     1      14.905  11.715  32.628  0.00  0.00    +0.000 A 
ATOM      5  C   UNL     1      14.926  11.616  31.250  0.00  0.00    +0.000 A 
ATOM      6  C   UNL     1      14.457  12.638  30.449  0.00  0.00    +0.000 A 
ATOM      7  C   UNL     1      13.947  13.801  30.988  0.00  0.00    +0.000 A 
ATOM      8  C   UNL     1      13.922  13.908  32.361  0.00  0.00    +0.000 A 
ATOM      9  C   UNL     1      14.393  12.882  33.154  0.00  0.00    +0.000 A 
ATOM     10  O   UNL     1      14.345  13.037  34.530  0.00  0.00    +0.000 OA
ENDBRANCH   3   4
BRANCH   2  11
ATOM     11  C   UNL     1      17.253   9.590  34.845  0.00  0.00    +0.000 C 
BRANCH  11  12
ATOM     12  C   UNL     1      17.917  10.205  36.057  0.00  0.00    +0.000 C 
BRANCH  12  13
ATOM     13  C   UNL     1      16.907  10.735  37.030  0.00  0.00    +0.000 C 
ATOM     14  C   UNL     1      17.055  10.184  38.415  0.00  0.00    +0.000 C 
ATOM     15  C   UNL     1      18.474  10.395  38.900  0.00  0.00    +0.000 C 
ATOM     16  C   UNL     1      19.242  11.269  37.929  0.00  0.00    +0.000 C 
ATOM     17  C   UNL     1      18.485  12.512  37.560  0.00  0.00    +0.000 C 
ATOM     18  C   UNL     1      17.086  12.237  37.108  0.00  0.00    +0.000 C 
ENDBRANCH  12  13
ENDBRANCH  11  12
ENDBRANCH   2  11
TORSDOF 4
ENDMDL
MODEL 3
REMARK VINA RESULT:      -7.0      2.815      6.497
REMARK  Name = 
REMARK  4 active torsions:
REMARK  status: ('A' for Active; 'I' for Inactive)
REMARK    1  A    between atoms: C_2  and  C_3
REMARK    2  A    between atoms: C_3  and  C_4
REMARK    3  A    between atoms: C_4  and  C_5
REMARK    4  A    between atoms: N_11  and  C_12
REMARK                            x       y       z     vdW  Elec       q    Type
REMARK                         _______ _______ _______ _____ _____    ______ ____
ROOT
ATOM      1  O   UNL     1      17.513  11.806  33.300  0.00  0.00    +0.000 OA
ATOM      2  C   UNL     1      16.789  10.930  33.879  0.00  0.00    +0.000 C 
ATOM      3  N   UNL     1      15.404  11.021  33.683  0.00  0.00    +0.000 NA
ENDROOT
BRANCH   3   4
ATOM      4  C   UNL     1      14.819  12.049  32.870  0.00  0.00    +0.000 A 
ATOM      5  C   UNL     1      14.264  13.191  33.413  0.00  0.00    +0.000 A 
ATOM      6  C   UNL     1      13.706  14.168  32.613  0.00  0.00    +0.000 A 
ATOM      7  C   UNL     1      13.679  14.049  31.240  0.00  0.00    +0.000 A 
ATOM      8  C   UNL     1      14.230  12.912  30.689  0.00  0.00    +0.000 A 
ATOM      9  C   UNL     1      14.786  11.940  31.496  0.00  0.00    +0.000 A 
ATOM     10  O   UNL     1      15.329  10.816  30.895  0.00  0.00    +0.000 OA
ENDBRANCH   3   4
BRANCH   2  11
ATOM     11  C   UNL     1      17.448   9.890  34.707  0.00  0.00    +0.000 C 
BRANCH  11  12
ATOM     12  C   UNL     1      16.881   9.893  36.109  0.00  0.00    +0.000 C 
BRANCH  12  13
ATOM     13  C   UNL     1      17.746  10.672  37.053  0.00  0.00    +0.000 C 
ATOM     14  C   UNL     1      17.579  12.157  36.939  0.00  0.00    +0.000 C 
ATOM     15  C   UNL     1      16.115  12.518  37.083  0.00  0.00    +0.000 C 
ATOM     16  C   UNL     1      15.307  11.304  37.496  0.00  0.00    +0.000 C 
ATOM     17  C   UNL     1      15.920  10.581  38.659  0.00  0.00    +0.000 C 
ATOM     18  C   UNL     1      17.371  10.271  38.463  0.00  0.00    +0.000 C 
ENDBRANCH  12  13
ENDBRANCH  11  12
ENDBRANCH   2  11
TORSDOF 4
ENDMDL
MODEL 4
REMARK VINA RESULT:      -6.6      3.069      6.609
REMARK  Name = 
REMARK  4 active torsions:
REMARK  status: ('A' for Active; 'I' for Inactive)
REMARK    1  A    between atoms: C_2  and  C_3
REMARK    2  A    between atoms: C_3  and  C_4
REMARK    3  A    between atoms: C_4  and  C_5
REMARK    4  A    between atoms: N_11  and  C_12
REMARK                            x       y       z     vdW  Elec       q    Type
REMARK                         _______ _______ _______ _____ _____    ______ ____
ROOT
ATOM      1  O   UNL     1      14.392  11.488  35.618  0.00  0.00    +0.000 OA
ATOM      2  C   UNL     1      15.546  12.013  35.761  0.00  0.00    +0.000 C 
ATOM      3  N   UNL     1      16.276  12.271  34.592  0.00  0.00    +0.000 NA
ENDROOT
BRANCH   3   4
ATOM      4  C   UNL     1      15.757  11.961  33.290  0.00  0.00    +0.000 A 
ATOM      5  C   UNL     1      14.764  12.713  32.694  0.00  0.00    +0.000 A 
ATOM      6  C   UNL     1      14.278  12.398  31.441  0.00  0.00    +0.000 A 
ATOM      7  C   UNL     1      14.762  11.321  30.729  0.00  0.00    +0.000 A 
ATOM      8  C   UNL     1      15.753  10.565  31.316  0.00  0.00    +0.000 A 
ATOM      9  C   UNL     1      16.233  10.886  32.569  0.00  0.00    +0.000 A 
ATOM     10  O   UNL     1      17.230  10.096  33.116  0.00  0.00    +0.000 OA
ENDBRANCH   3   4
BRANCH   2  11
ATOM     11  C   UNL     1      16.031  12.312  37.130  0.00  0.00    +0.000 C 
BRANCH  11  12
ATOM     12  C   UNL     1      17.369  11.650  37.374  0.00  0.00    +0.000 C 
BRANCH  12  13
ATOM     13  C   UNL     1      17.230  10.164  37.519  0.00  0.00    +0.000 C 
ATOM     14  C   UNL     1      18.174   9.382  36.658  0.00  0.00    +0.000 C 
ATOM     15  C   UNL     1      19.595   9.846  36.906  0.00  0.00    +0.000 C 
ATOM     16  C   UNL     1      19.644  10.802  38.081  0.00  0.00    +0.000 C 
ATOM     17  C   UNL     1      18.910  10.270  39.278  0.00  0.00    +0.000 C 
ATOM     18  C   UNL     1      17.521   9.812  38.962  0.00  0.00    +0.000 C 
ENDBRANCH  12  13
ENDBRANCH  11  12
ENDBRANCH   2  11
TORSDOF 4
ENDMDL
MODEL 5
REMARK VINA RESULT:      -6.4      2.968      6.774
REMARK  Name = 
REMARK  4 active torsions:
REMARK  status: ('A' for Active; 'I' for Inactive)
REMARK    1  A    between atoms: C_2  and  C_3
REMARK    2  A    between atoms: C_3  and  C_4
REMARK    3  A    between atoms: C_4  and  C_5
REMARK    4  A    between atoms: N_11  and  C_12
REMARK                            x       y       z     vdW  Elec       q    Type
REMARK                         _______ _______ _______ _____ _____    ______ ____
ROOT
ATOM      1  O   UNL     1      16.703  12.854  35.528  0.00  0.00    +0.000 OA
ATOM      2  C   UNL     1      15.777  12.096  35.971  0.00  0.00    +0.000 C 
ATOM      3  N   UNL     1      14.662  11.906  35.144  0.00  0.00    +0.000 NA
ENDROOT
BRANCH   3   4
ATOM      4  C   UNL     1      14.557  12.533  33.856  0.00  0.00    +0.000 A 
ATOM      5  C   UNL     1      15.170  12.015  32.732  0.00  0.00    +0.000 A 
ATOM      6  C   UNL     1      15.056  12.633  31.503  0.00  0.00    +0.000 A 
ATOM      7  C   UNL     1      14.327  13.792  31.343  0.00  0.00    +0.000 A 
ATOM      8  C   UNL     1      13.712  14.316  32.459  0.00  0.00    +0.000 A 
ATOM      9  C   UNL     1      13.831  13.692  33.684  0.00  0.00    +0.000 A 
ATOM     10  O   UNL     1      13.193  14.257  34.776  0.00  0.00    +0.000 OA
ENDBRANCH   3   4
BRANCH   2  11
ATOM     11  C   UNL     1      15.940  11.475  37.308  0.00  0.00    +0.000 C 
BRANCH  11  12
ATOM     12  C   UNL     1      17.406  11.322  37.645  0.00  0.00    +0.000 C 
BRANCH  12  13
ATOM     13  C   UNL     1      17.849   9.893  37.548  0.00  0.00    +0.000 C 
ATOM     14  C   UNL     1      19.194   9.718  36.912  0.00  0.00    +0.000 C 
ATOM     15  C   UNL     1      20.213  10.580  37.629  0.00  0.00    +0.000 C 
ATOM     16  C   UNL     1      19.609  11.187  38.879  0.00  0.00    +0.000 C 
ATOM     17  C   UNL     1      18.904  10.167  39.725  0.00  0.00    +0.000 C 
ATOM     18  C   UNL     1      17.926   9.337  38.954  0.00  0.00    +0.000 C 
ENDBRANCH  12  13
ENDBRANCH  11  12
ENDBRANCH   2  11
TORSDOF 4
ENDMDL
MODEL 6
REMARK VINA RESULT:      -6.4      2.505      3.240
REMARK  Name = 
REMARK  4 active torsions:
REMARK  status: ('A' for Active; 'I' for Inactive)
REMARK    1  A    between atoms: C_2  and  C_3
REMARK    2  A    between atoms: C_3  and  C_4
REMARK    3  A    between atoms: C_4  and  C_5
REMARK    4  A    between atoms: N_11  and  C_12
REMARK                            x       y       z     vdW  Elec       q    Type
REMARK                         _______ _______ _______ _____ _____    ______ ____
ROOT
ATOM      1  O   UNL     1      15.590  12.831  36.759  0.00  0.00    +0.000 OA
ATOM      2  C   UNL     1      15.415  12.136  35.704  0.00  0.00    +0.000 C 
ATOM      3  N   UNL     1      16.035  10.880  35.661  0.00  0.00    +0.000 NA
ENDROOT
BRANCH   3   4
ATOM      4  C   UNL     1      16.832  10.390  36.750  0.00  0.00    +0.000 A 
ATOM      5  C   UNL     1      16.404  10.447  38.061  0.00  0.00    +0.000 A 
ATOM      6  C   UNL     1      17.186   9.970  39.094  0.00  0.00    +0.000 A 
ATOM      7  C   UNL     1      18.427   9.416  38.863  0.00  0.00    +0.000 A 
ATOM      8  C   UNL     1      18.863   9.356  37.557  0.00  0.00    +0.000 A 
ATOM      9  C   UNL     1      18.075   9.835  36.531  0.00  0.00    +0.000 A 
ATOM     10  O   UNL     1      18.557   9.750  35.235  0.00  0.00    +0.000 OA
ENDBRANCH   3   4
BRANCH   2  11
ATOM     11  C   UNL     1      14.580  12.692  34.611  0.00  0.00    +0.000 C 
BRANCH  11  12
ATOM     12  C   UNL     1      15.163  12.328  33.264  0.00  0.00    +0.000 C 
BRANCH  12  13
ATOM     13  C   UNL     1      14.091  12.124  32.236  0.00  0.00    +0.000 C 
ATOM     14  C   UNL     1      13.859  13.316  31.359  0.00  0.00    +0.000 C 
ATOM     15  C   UNL     1      15.168  13.752  30.734  0.00  0.00    +0.000 C 
ATOM     16  C   UNL     1      16.258  12.739  31.021  0.00  0.00    +0.000 C 
ATOM     17  C   UNL     1      15.823  11.335  30.718  0.00  0.00    +0.000 C 
ATOM     18  C   UNL     1      14.515  10.973  31.348  0.00  0.00    +0.000 C 
ENDBRANCH  12  13
ENDBRANCH  11  12
ENDBRANCH   2  11
TORSDOF 4
ENDMDL
MODEL 7
REMARK VINA RESULT:      -6.1      3.834      8.463
REMARK  Name = 
REMARK  4 active torsions:
REMARK  status: ('A' for Active; 'I' for Inactive)
REMARK    1  A    between atoms: C_2  and  C_3
REMARK    2  A    between atoms: C_3  and  C_4
REMARK    3  A    between atoms: C_4  and  C_5
REMARK    4  A    between atoms: N_11  and  C_12
REMARK                            x       y       z     vdW  Elec       q    Type
REMARK                         _______ _______ _______ _____ _____    ______ ____
ROOT
ATOM      1  O   UNL     1      18.888  11.469  37.416  0.00  0.00    +0.000 OA
ATOM      2  C   UNL     1      18.224  10.525  37.961  0.00  0.00    +0.000 C 
ATOM      3  N   UNL     1      17.201   9.946  37.197  0.00  0.00    +0.000 NA
ENDROOT
BRANCH   3   4
ATOM      4  C   UNL     1      16.907  10.389  35.863  0.00  0.00    +0.000 A 
ATOM      5  C   UNL     1      17.548   9.868  34.756  0.00  0.00    +0.000 A 
ATOM      6  C   UNL     1      17.250  10.308  33.481  0.00  0.00    +0.000 A 
ATOM      7  C   UNL     1      16.302  11.283  33.257  0.00  0.00    +0.000 A 
ATOM      8  C   UNL     1      15.658  11.809  34.356  0.00  0.00    +0.000 A 
ATOM      9  C   UNL     1      15.961  11.364  35.627  0.00  0.00    +0.000 A 
ATOM     10  O   UNL     1      15.286  11.922  36.700  0.00  0.00    +0.000 OA
ENDBRANCH   3   4
BRANCH   2  11
ATOM     11  C   UNL     1      18.572  10.109  39.341  0.00  0.00    +0.000 C 
BRANCH  11  12
ATOM     12  C   UNL     1      17.570   9.101  39.858  0.00  0.00    +0.000 C 
BRANCH  12  13
ATOM     13  C   UNL     1      18.045   8.448  41.121  0.00  0.00    +0.000 C 
ATOM     14  C   UNL     1      17.828   9.278  42.349  0.00  0.00    +0.000 C 
ATOM     15  C   UNL     1      16.373   9.690  42.436  0.00  0.00    +0.000 C 
ATOM     16  C   UNL     1      15.555   8.975  41.380  0.00  0.00    +0.000 C 
ATOM     17  C   UNL     1      15.817   7.497  41.361  0.00  0.00    +0.000 C 
ATOM     18  C   UNL     1      17.273   7.158  41.293  0.00  0.00    +0.000 C 
ENDBRANCH  12  13
ENDBRANCH  11  12
ENDBRANCH   2  11
TORSDOF 4
ENDMDL
MODEL 8
REMARK VINA RESULT:      -6.0      3.710      8.244
REMARK  Name = 
REMARK  4 active torsions:
REMARK  status: ('A' for Active; 'I' for Inactive)
REMARK    1  A    between atoms: C_2  and  C_3
REMARK    2  A    between atoms: C_3  and  C_4
REMARK    3  A    between atoms: C_4  and  C_5
REMARK    4  A    between atoms: N_11  and  C_12
REMARK                            x       y       z     vdW  Elec       q    Type
REMARK                         _______ _______ _______ _____ _____    ______ ____
ROOT
ATOM      1  O   UNL     1      18.268  11.932  37.437  0.00  0.00    +0.000 OA
ATOM      2  C   UNL     1      17.940  10.728  37.703  0.00  0.00    +0.000 C 
ATOM      3  N   UNL     1      16.968  10.139  36.883  0.00  0.00    +0.000 NA
ENDROOT
BRANCH   3   4
ATOM      4  C   UNL     1      16.363  10.851  35.792  0.00  0.00    +0.000 A 
ATOM      5  C   UNL     1      15.290  11.701  35.972  0.00  0.00    +0.000 A 
ATOM      6  C   UNL     1      14.723  12.376  34.909  0.00  0.00    +0.000 A 
ATOM      7  C   UNL     1      15.202  12.233  33.625  0.00  0.00    +0.000 A 
ATOM      8  C   UNL     1      16.273  11.386  33.436  0.00  0.00    +0.000 A 
ATOM      9  C   UNL     1      16.833  10.715  34.503  0.00  0.00    +0.000 A 
ATOM     10  O   UNL     1      17.909   9.876  34.263  0.00  0.00    +0.000 OA
ENDBRANCH   3   4
BRANCH   2  11
ATOM     11  C   UNL     1      18.598  10.042  38.842  0.00  0.00    +0.000 C 
BRANCH  11  12
ATOM     12  C   UNL     1      17.574   9.644  39.882  0.00  0.00    +0.000 C 
BRANCH  12  13
ATOM     13  C   UNL     1      18.207   8.912  41.027  0.00  0.00    +0.000 C 
ATOM     14  C   UNL     1      17.954   9.544  42.362  0.00  0.00    +0.000 C 
ATOM     15  C   UNL     1      16.464   9.732  42.563  0.00  0.00    +0.000 C 
ATOM     16  C   UNL     1      15.688   9.045  41.456  0.00  0.00    +0.000 C 
ATOM     17  C   UNL     1      16.146   7.634  41.232  0.00  0.00    +0.000 C 
ATOM     18  C   UNL     1      17.627   7.514  41.059  0.00  0.00    +0.000 C 
ENDBRANCH  12  13
ENDBRANCH  11  12
ENDBRANCH   2  11
TORSDOF 4
ENDMDL
MODEL 9
REMARK VINA RESULT:      -5.9     21.903     23.780
REMARK  Name = 
REMARK  4 active torsions:
REMARK  status: ('A' for Active; 'I' for Inactive)
REMARK    1  A    between atoms: C_2  and  C_3
REMARK    2  A    between atoms: C_3  and  C_4
REMARK    3  A    between atoms: C_4  and  C_5
REMARK    4  A    between atoms: N_11  and  C_12
REMARK                            x       y       z     vdW  Elec       q    Type
REMARK                         _______ _______ _______ _____ _____    ______ ____
ROOT
ATOM      1  O   UNL     1      20.021  -9.144  23.965  0.00  0.00    +0.000 OA
ATOM      2  C   UNL     1      21.104  -9.154  24.639  0.00  0.00    +0.000 C 
ATOM      3  N   UNL     1      21.111  -8.430  25.840  0.00  0.00    +0.000 NA
ENDROOT
BRANCH   3   4
ATOM      4  C   UNL     1      19.957  -7.708  26.296  0.00  0.00    +0.000 A 
ATOM      5  C   UNL     1      19.695  -6.411  25.901  0.00  0.00    +0.000 A 
ATOM      6  C   UNL     1      18.580  -5.733  26.352  0.00  0.00    +0.000 A 
ATOM      7  C   UNL     1      17.680  -6.320  27.215  0.00  0.00    +0.000 A 
ATOM      8  C   UNL     1      17.933  -7.614  27.616  0.00  0.00    +0.000 A 
ATOM      9  C   UNL     1      19.050  -8.283  27.161  0.00  0.00    +0.000 A 
ATOM     10  O   UNL     1      19.260  -9.584  27.591  0.00  0.00    +0.000 OA
ENDBRANCH   3   4
BRANCH   2  11
ATOM     11  C   UNL     1      22.264  -9.918  24.119  0.00  0.00    +0.000 C 
BRANCH  11  12
ATOM     12  C   UNL     1      23.496  -9.042  24.075  0.00  0.00    +0.000 C 
BRANCH  12  13
ATOM     13  C   UNL     1      23.761  -8.531  22.691  0.00  0.00    +0.000 C 
ATOM     14  C   UNL     1      22.811  -7.459  22.251  0.00  0.00    +0.000 C 
ATOM     15  C   UNL     1      22.792  -6.342  23.274  0.00  0.00    +0.000 C 
ATOM     16  C   UNL     1      23.878  -6.554  24.310  0.00  0.00    +0.000 C 
ATOM     17  C   UNL     1      25.211  -6.848  23.687  0.00  0.00    +0.000 C 
ATOM     18  C   UNL     1      25.157  -7.947  22.672  0.00  0.00    +0.000 C 
ENDBRANCH  12  13
ENDBRANCH  11  12
ENDBRANCH   2  11
TORSDOF 4
ENDMDL
MODEL 10
REMARK VINA RESULT:      -5.9      6.364      8.461
REMARK  Name = 
REMARK  4 active torsions:
REMARK  status: ('A' for Active; 'I' for Inactive)
REMARK    1  A    between atoms: C_2  and  C_3
REMARK    2  A    between atoms: C_3  and  C_4
REMARK    3  A    between atoms: C_4  and  C_5
REMARK    4  A    between atoms: N_11  and  C_12
REMARK                            x       y       z     vdW  Elec       q    Type
REMARK                         _______ _______ _______ _____ _____    ______ ____
ROOT
ATOM      1  O   UNL     1      20.926   9.340  39.262  0.00  0.00    +0.000 OA
ATOM      2  C   UNL     1      20.169  10.061  38.530  0.00  0.00    +0.000 C 
ATOM      3  N   UNL     1      20.769  10.706  37.440  0.00  0.00    +0.000 NA
ENDROOT
BRANCH   3   4
ATOM      4  C   UNL     1      22.168  10.570  37.153  0.00  0.00    +0.000 A 
ATOM      5  C   UNL     1      22.655   9.600  36.298  0.00  0.00    +0.000 A 
ATOM      6  C   UNL     1      24.005   9.485  36.035  0.00  0.00    +0.000 A 
ATOM      7  C   UNL     1      24.927  10.332  36.612  0.00  0.00    +0.000 A 
ATOM      8  C   UNL     1      24.451  11.303  37.466  0.00  0.00    +0.000 A 
ATOM      9  C   UNL     1      23.100  11.411  37.724  0.00  0.00    +0.000 A 
ATOM     10  O   UNL     1      22.670  12.404  38.589  0.00  0.00    +0.000 OA
ENDBRANCH   3   4
BRANCH   2  11
ATOM     11  C   UNL     1      18.730  10.165  38.873  0.00  0.00    +0.000 C 
BRANCH  11  12
ATOM     12  C   UNL     1      18.006  11.022  37.859  0.00  0.00    +0.000 C 
BRANCH  12  13
ATOM     13  C   UNL     1      16.818  10.309  37.284  0.00  0.00    +0.000 C 
ATOM     14  C   UNL     1      15.515  10.999  37.546  0.00  0.00    +0.000 C 
ATOM     15  C   UNL     1      15.595  12.437  37.077  0.00  0.00    +0.000 C 
ATOM     16  C   UNL     1      16.881  12.675  36.312  0.00  0.00    +0.000 C 
ATOM     17  C   UNL     1      17.120  11.630  35.261  0.00  0.00    +0.000 C 
ATOM     18  C   UNL     1      17.007  10.233  35.784  0.00  0.00    +0.000 C 
ENDBRANCH  12  13
ENDBRANCH  11  12
ENDBRANCH   2  11
TORSDOF 4
ENDMDL
