MODEL 1
REMARK VINA RESULT:      -6.6      0.000      0.000
REMARK  Name = 
REMARK  3 active torsions:
REMARK  status: ('A' for Active; 'I' for Inactive)
REMARK    1  A    between atoms: C_6  and  N_7
REMARK    2  A    between atoms: N_7  and  C_8
REMARK    3  A    between atoms: C_12  and  C_13
REMARK                            x       y       z     vdW  Elec       q    Type
REMARK                         _______ _______ _______ _____ _____    ______ ____
ROOT
ATOM      1  C   UNL     1      33.851  20.815  31.611  0.00  0.00    +0.000 C 
ATOM      2  C   UNL     1      32.681  21.430  30.897  0.00  0.00    +0.000 A 
ATOM      3  C   UNL     1      31.659  22.051  31.581  0.00  0.00    +0.000 A 
ATOM      4  C   UNL     1      30.588  22.612  30.904  0.00  0.00    +0.000 A 
ATOM      5  N   UNL     1      30.549  22.548  29.569  0.00  0.00    +0.000 N 
ATOM      6  C   UNL     1      29.612  23.016  28.645  0.00  0.00    +0.000 A 
ATOM      7  C   UNL     1      30.063  22.682  27.406  0.00  0.00    +0.000 A 
ATOM      8  N   UNL     1      31.256  22.019  27.577  0.00  0.00    +0.000 NA
ATOM      9  C   UNL     1      31.514  21.958  28.886  0.00  0.00    +0.000 A 
ATOM     10  C   UNL     1      32.620  21.374  29.531  0.00  0.00    +0.000 A 
ENDROOT
BRANCH   7  11
ATOM     11  C   UNL     1      29.470  22.894  26.080  0.00  0.00    +0.000 A 
ATOM     12  C   UNL     1      28.083  22.747  25.907  0.00  0.00    +0.000 A 
ATOM     13  C   UNL     1      27.484  22.886  24.675  0.00  0.00    +0.000 A 
ATOM     14  C   UNL     1      28.222  23.177  23.547  0.00  0.00    +0.000 A 
ATOM     15  O   UNL     1      27.605  23.315  22.309  0.00  0.00    +0.000 OA
ATOM     16  C   UNL     1      29.584  23.322  23.713  0.00  0.00    +0.000 A 
ATOM     17  C   UNL     1      30.172  23.181  24.953  0.00  0.00    +0.000 A 
ENDBRANCH   7  11
BRANCH   6  18
ATOM     18  N   UNL     1      28.479  23.643  29.086  0.00  0.00    +0.000 NA
BRANCH  18  19
ATOM     19  C   UNL     1      27.211  23.380  29.516  0.00  0.00    +0.000 C 
ATOM     20  C   UNL     1      26.060  23.776  28.586  0.00  0.00    +0.000 C 
ATOM     21  C   UNL     1      27.005  21.885  29.847  0.00  0.00    +0.000 C 
ATOM     22  C   UNL     1      26.870  24.122  30.841  0.00  0.00    +0.000 C 
ENDBRANCH  18  19
ENDBRANCH   6  18
TORSDOF 3
ENDMDL
MODEL 2
REMARK VINA RESULT:      -6.3     19.035     21.963
REMARK  Name = 
REMARK  3 active torsions:
REMARK  status: ('A' for Active; 'I' for Inactive)
REMARK    1  A    between atoms: C_6  and  N_7
REMARK    2  A    between atoms: N_7  and  C_8
REMARK    3  A    between atoms: C_12  and  C_13
REMARK                            x       y       z     vdW  Elec       q    Type
REMARK                         _______ _______ _______ _____ _____    ______ ____
ROOT
ATOM      1  C   UNL     1      14.165  13.102  34.998  0.00  0.00    +0.000 C 
ATOM      2  C   UNL     1      15.109  12.300  35.847  0.00  0.00    +0.000 A 
ATOM      3  C   UNL     1      16.370  11.961  35.407  0.00  0.00    +0.000 A 
ATOM      4  C   UNL     1      17.226  11.220  36.206  0.00  0.00    +0.000 A 
ATOM      5  N   UNL     1      16.820  10.830  37.419  0.00  0.00    +0.000 N 
ATOM      6  C   UNL     1      17.458  10.089  38.416  0.00  0.00    +0.000 A 
ATOM      7  C   UNL     1      16.589   9.980  39.457  0.00  0.00    +0.000 A 
ATOM      8  N   UNL     1      15.440  10.643  39.095  0.00  0.00    +0.000 NA
ATOM      9  C   UNL     1      15.616  11.139  37.867  0.00  0.00    +0.000 A 
ATOM     10  C   UNL     1      14.713  11.889  37.091  0.00  0.00    +0.000 A 
ENDROOT
BRANCH   7  11
ATOM     11  C   UNL     1      16.717   9.286  40.745  0.00  0.00    +0.000 A 
ATOM     12  C   UNL     1      15.718   8.386  41.152  0.00  0.00    +0.000 A 
ATOM     13  C   UNL     1      15.765   7.748  42.372  0.00  0.00    +0.000 A 
ATOM     14  C   UNL     1      16.802   7.965  43.255  0.00  0.00    +0.000 A 
ATOM     15  O   UNL     1      16.838   7.314  44.483  0.00  0.00    +0.000 OA
ATOM     16  C   UNL     1      17.785   8.848  42.859  0.00  0.00    +0.000 A 
ATOM     17  C   UNL     1      17.726   9.481  41.634  0.00  0.00    +0.000 A 
ENDBRANCH   7  11
BRANCH   6  18
ATOM     18  N   UNL     1      18.718   9.603  38.201  0.00  0.00    +0.000 NA
BRANCH  18  19
ATOM     19  C   UNL     1      20.032   9.931  38.367  0.00  0.00    +0.000 C 
ATOM     20  C   UNL     1      20.826   9.136  39.408  0.00  0.00    +0.000 C 
ATOM     21  C   UNL     1      20.829   9.833  37.047  0.00  0.00    +0.000 C 
ATOM     22  C   UNL     1      20.221  11.407  38.826  0.00  0.00    +0.000 C 
ENDBRANCH  18  19
ENDBRANCH   6  18
TORSDOF 3
ENDMDL
MODEL 3
REMARK VINA RESULT:      -6.0      2.477      5.794
REMARK  Name = 
REMARK  3 active torsions:
REMARK  status: ('A' for Active; 'I' for Inactive)
REMARK    1  A    between atoms: C_6  and  N_7
REMARK    2  A    between atoms: N_7  and  C_8
REMARK    3  A    between atoms: C_12  and  C_13
REMARK                            x       y       z     vdW  Elec       q    Type
REMARK                         _______ _______ _______ _____ _____    ______ ____
ROOT
ATOM      1  C   UNL     1      23.078  26.873  29.596  0.00  0.00    +0.000 C 
ATOM      2  C   UNL     1      24.232  26.173  28.937  0.00  0.00    +0.000 A 
ATOM      3  C   UNL     1      25.085  25.355  29.646  0.00  0.00    +0.000 A 
ATOM      4  C   UNL     1      26.144  24.719  29.020  0.00  0.00    +0.000 A 
ATOM      5  N   UNL     1      26.339  24.902  27.710  0.00  0.00    +0.000 N 
ATOM      6  C   UNL     1      27.305  24.398  26.837  0.00  0.00    +0.000 A 
ATOM      7  C   UNL     1      27.040  24.905  25.603  0.00  0.00    +0.000 A 
ATOM      8  N   UNL     1      25.930  25.708  25.727  0.00  0.00    +0.000 NA
ATOM      9  C   UNL     1      25.538  25.680  27.004  0.00  0.00    +0.000 A 
ATOM     10  C   UNL     1      24.450  26.347  27.597  0.00  0.00    +0.000 A 
ENDROOT
BRANCH   7  11
ATOM     11  C   UNL     1      27.745  24.739  24.326  0.00  0.00    +0.000 A 
ATOM     12  C   UNL     1      28.691  25.697  23.925  0.00  0.00    +0.000 A 
ATOM     13  C   UNL     1      29.343  25.614  22.714  0.00  0.00    +0.000 A 
ATOM     14  C   UNL     1      29.094  24.582  21.835  0.00  0.00    +0.000 A 
ATOM     15  O   UNL     1      29.759  24.510  20.615  0.00  0.00    +0.000 OA
ATOM     16  C   UNL     1      28.165  23.640  22.225  0.00  0.00    +0.000 A 
ATOM     17  C   UNL     1      27.520  23.734  23.441  0.00  0.00    +0.000 A 
ENDBRANCH   7  11
BRANCH   6  18
ATOM     18  N   UNL     1      28.294  23.582  27.315  0.00  0.00    +0.000 NA
BRANCH  18  19
ATOM     19  C   UNL     1      29.646  23.407  27.276  0.00  0.00    +0.000 C 
ATOM     20  C   UNL     1      30.309  22.792  28.513  0.00  0.00    +0.000 C 
ATOM     21  C   UNL     1      30.089  22.545  26.072  0.00  0.00    +0.000 C 
ATOM     22  C   UNL     1      30.412  24.751  27.094  0.00  0.00    +0.000 C 
ENDBRANCH  18  19
ENDBRANCH   6  18
TORSDOF 3
ENDMDL
MODEL 4
REMARK VINA RESULT:      -6.0     18.111     20.441
REMARK  Name = 
REMARK  3 active torsions:
REMARK  status: ('A' for Active; 'I' for Inactive)
REMARK    1  A    between atoms: C_6  and  N_7
REMARK    2  A    between atoms: N_7  and  C_8
REMARK    3  A    between atoms: C_12  and  C_13
REMARK                            x       y       z     vdW  Elec       q    Type
REMARK                         _______ _______ _______ _____ _____    ______ ____
ROOT
ATOM      1  C   UNL     1      25.355  10.015  37.492  0.00  0.00    +0.000 C 
ATOM      2  C   UNL     1      23.858   9.918  37.563  0.00  0.00    +0.000 A 
ATOM      3  C   UNL     1      23.055  10.317  36.517  0.00  0.00    +0.000 A 
ATOM      4  C   UNL     1      21.675  10.220  36.603  0.00  0.00    +0.000 A 
ATOM      5  N   UNL     1      21.119   9.732  37.717  0.00  0.00    +0.000 N 
ATOM      6  C   UNL     1      19.785   9.524  38.073  0.00  0.00    +0.000 A 
ATOM      7  C   UNL     1      19.777   9.001  39.328  0.00  0.00    +0.000 A 
ATOM      8  N   UNL     1      21.089   8.894  39.728  0.00  0.00    +0.000 NA
ATOM      9  C   UNL     1      21.864   9.342  38.736  0.00  0.00    +0.000 A 
ATOM     10  C   UNL     1      23.268   9.422  38.694  0.00  0.00    +0.000 A 
ENDROOT
BRANCH   7  11
ATOM     11  C   UNL     1      18.661   8.622  40.203  0.00  0.00    +0.000 A 
ATOM     12  C   UNL     1      18.106   9.576  41.074  0.00  0.00    +0.000 A 
ATOM     13  C   UNL     1      17.091   9.258  41.949  0.00  0.00    +0.000 A 
ATOM     14  C   UNL     1      16.571   7.983  42.013  0.00  0.00    +0.000 A 
ATOM     15  O   UNL     1      15.547   7.676  42.902  0.00  0.00    +0.000 OA
ATOM     16  C   UNL     1      17.114   7.044  41.160  0.00  0.00    +0.000 A 
ATOM     17  C   UNL     1      18.130   7.375  40.287  0.00  0.00    +0.000 A 
ENDBRANCH   7  11
BRANCH   6  18
ATOM     18  N   UNL     1      18.788   9.879  37.206  0.00  0.00    +0.000 NA
BRANCH  18  19
ATOM     19  C   UNL     1      17.821  10.823  37.020  0.00  0.00    +0.000 C 
ATOM     20  C   UNL     1      18.180  12.272  37.367  0.00  0.00    +0.000 C 
ATOM     21  C   UNL     1      17.295  10.842  35.567  0.00  0.00    +0.000 C 
ATOM     22  C   UNL     1      16.555  10.553  37.887  0.00  0.00    +0.000 C 
ENDBRANCH  18  19
ENDBRANCH   6  18
TORSDOF 3
ENDMDL
MODEL 5
REMARK VINA RESULT:      -5.9      1.651      3.633
REMARK  Name = 
REMARK  3 active torsions:
REMARK  status: ('A' for Active; 'I' for Inactive)
REMARK    1  A    between atoms: C_6  and  N_7
REMARK    2  A    between atoms: N_7  and  C_8
REMARK    3  A    between atoms: C_12  and  C_13
REMARK                            x       y       z     vdW  Elec       q    Type
REMARK                         _______ _______ _______ _____ _____    ______ ____
ROOT
ATOM      1  C   UNL     1      30.497  22.293  33.118  0.00  0.00    +0.000 C 
ATOM      2  C   UNL     1      30.573  22.473  31.629  0.00  0.00    +0.000 A 
ATOM      3  C   UNL     1      31.775  22.640  30.978  0.00  0.00    +0.000 A 
ATOM      4  C   UNL     1      31.823  22.805  29.603  0.00  0.00    +0.000 A 
ATOM      5  N   UNL     1      30.685  22.801  28.901  0.00  0.00    +0.000 N 
ATOM      6  C   UNL     1      30.439  22.944  27.534  0.00  0.00    +0.000 A 
ATOM      7  C   UNL     1      29.093  22.863  27.355  0.00  0.00    +0.000 A 
ATOM      8  N   UNL     1      28.531  22.675  28.596  0.00  0.00    +0.000 NA
ATOM      9  C   UNL     1      29.516  22.644  29.497  0.00  0.00    +0.000 A 
ATOM     10  C   UNL     1      29.419  22.474  30.891  0.00  0.00    +0.000 A 
ENDROOT
BRANCH   7  11
ATOM     11  C   UNL     1      28.278  22.977  26.138  0.00  0.00    +0.000 A 
ATOM     12  C   UNL     1      26.877  22.985  26.239  0.00  0.00    +0.000 A 
ATOM     13  C   UNL     1      26.067  23.040  25.127  0.00  0.00    +0.000 A 
ATOM     14  C   UNL     1      26.597  23.088  23.855  0.00  0.00    +0.000 A 
ATOM     15  O   UNL     1      25.769  23.143  22.740  0.00  0.00    +0.000 OA
ATOM     16  C   UNL     1      27.973  23.080  23.752  0.00  0.00    +0.000 A 
ATOM     17  C   UNL     1      28.773  23.025  24.875  0.00  0.00    +0.000 A 
ENDBRANCH   7  11
BRANCH   6  18
ATOM     18  N   UNL     1      31.481  23.160  26.675  0.00  0.00    +0.000 NA
BRANCH  18  19
ATOM     19  C   UNL     1      32.126  24.160  26.008  0.00  0.00    +0.000 C 
ATOM     20  C   UNL     1      33.498  24.585  26.541  0.00  0.00    +0.000 C 
ATOM     21  C   UNL     1      32.324  23.831  24.512  0.00  0.00    +0.000 C 
ATOM     22  C   UNL     1      31.316  25.490  26.010  0.00  0.00    +0.000 C 
ENDBRANCH  18  19
ENDBRANCH   6  18
TORSDOF 3
ENDMDL
MODEL 6
REMARK VINA RESULT:      -5.7      2.213      4.659
REMARK  Name = 
REMARK  3 active torsions:
REMARK  status: ('A' for Active; 'I' for Inactive)
REMARK    1  A    between atoms: C_6  and  N_7
REMARK    2  A    between atoms: N_7  and  C_8
REMARK    3  A    between atoms: C_12  and  C_13
REMARK                            x       y       z     vdW  Elec       q    Type
REMARK                         _______ _______ _______ _____ _____    ______ ____
ROOT
ATOM      1  C   UNL     1      26.107  25.788  32.559  0.00  0.00    +0.000 C 
ATOM      2  C   UNL     1      26.648  25.164  31.304  0.00  0.00    +0.000 A 
ATOM      3  C   UNL     1      27.795  24.402  31.310  0.00  0.00    +0.000 A 
ATOM      4  C   UNL     1      28.279  23.835  30.142  0.00  0.00    +0.000 A 
ATOM      5  N   UNL     1      27.620  24.032  28.995  0.00  0.00    +0.000 N 
ATOM      6  C   UNL     1      27.872  23.591  27.694  0.00  0.00    +0.000 A 
ATOM      7  C   UNL     1      26.882  24.083  26.901  0.00  0.00    +0.000 A 
ATOM      8  N   UNL     1      26.042  24.812  27.711  0.00  0.00    +0.000 NA
ATOM      9  C   UNL     1      26.517  24.758  28.958  0.00  0.00    +0.000 A 
ATOM     10  C   UNL     1      25.990  25.354  30.119  0.00  0.00    +0.000 A 
ENDROOT
BRANCH   7  11
ATOM     11  C   UNL     1      26.662  23.964  25.454  0.00  0.00    +0.000 A 
ATOM     12  C   UNL     1      25.580  23.206  24.976  0.00  0.00    +0.000 A 
ATOM     13  C   UNL     1      25.359  23.022  23.629  0.00  0.00    +0.000 A 
ATOM     14  C   UNL     1      26.196  23.576  22.683  0.00  0.00    +0.000 A 
ATOM     15  O   UNL     1      25.961  23.382  21.326  0.00  0.00    +0.000 OA
ATOM     16  C   UNL     1      27.259  24.321  23.149  0.00  0.00    +0.000 A 
ATOM     17  C   UNL     1      27.469  24.498  24.501  0.00  0.00    +0.000 A 
ENDBRANCH   7  11
BRANCH   6  18
ATOM     18  N   UNL     1      28.985  22.840  27.434  0.00  0.00    +0.000 NA
BRANCH  18  19
ATOM     19  C   UNL     1      30.284  22.959  27.033  0.00  0.00    +0.000 C 
ATOM     20  C   UNL     1      31.358  22.368  27.953  0.00  0.00    +0.000 C 
ATOM     21  C   UNL     1      30.522  22.343  25.636  0.00  0.00    +0.000 C 
ATOM     22  C   UNL     1      30.723  24.445  26.882  0.00  0.00    +0.000 C 
ENDBRANCH  18  19
ENDBRANCH   6  18
TORSDOF 3
ENDMDL
MODEL 7
REMARK VINA RESULT:      -5.7      3.592      7.061
REMARK  Name = 
REMARK  3 active torsions:
REMARK  status: ('A' for Active; 'I' for Inactive)
REMARK    1  A    between atoms: C_6  and  N_7
REMARK    2  A    between atoms: N_7  and  C_8
REMARK    3  A    between atoms: C_12  and  C_13
REMARK                            x       y       z     vdW  Elec       q    Type
REMARK                         _______ _______ _______ _____ _____    ______ ____
ROOT
ATOM      1  C   UNL     1      20.836  27.689  27.308  0.00  0.00    +0.000 C 
ATOM      2  C   UNL     1      22.172  27.030  27.115  0.00  0.00    +0.000 A 
ATOM      3  C   UNL     1      22.898  26.536  28.177  0.00  0.00    +0.000 A 
ATOM      4  C   UNL     1      24.129  25.933  27.978  0.00  0.00    +0.000 A 
ATOM      5  N   UNL     1      24.617  25.829  26.738  0.00  0.00    +0.000 N 
ATOM      6  C   UNL     1      25.806  25.281  26.252  0.00  0.00    +0.000 A 
ATOM      7  C   UNL     1      25.803  25.440  24.901  0.00  0.00    +0.000 A 
ATOM      8  N   UNL     1      24.628  26.077  24.573  0.00  0.00    +0.000 NA
ATOM      9  C   UNL     1      23.944  26.294  25.699  0.00  0.00    +0.000 A 
ATOM     10  C   UNL     1      22.691  26.915  25.853  0.00  0.00    +0.000 A 
ENDROOT
BRANCH   7  11
ATOM     11  C   UNL     1      26.806  25.083  23.890  0.00  0.00    +0.000 A 
ATOM     12  C   UNL     1      27.999  25.822  23.805  0.00  0.00    +0.000 A 
ATOM     13  C   UNL     1      28.950  25.560  22.844  0.00  0.00    +0.000 A 
ATOM     14  C   UNL     1      28.774  24.556  21.915  0.00  0.00    +0.000 A 
ATOM     15  O   UNL     1      29.742  24.302  20.950  0.00  0.00    +0.000 OA
ATOM     16  C   UNL     1      27.604  23.829  21.996  0.00  0.00    +0.000 A 
ATOM     17  C   UNL     1      26.659  24.101  22.964  0.00  0.00    +0.000 A 
ENDBRANCH   7  11
BRANCH   6  18
ATOM     18  N   UNL     1      26.718  24.755  27.125  0.00  0.00    +0.000 NA
BRANCH  18  19
ATOM     19  C   UNL     1      27.618  23.738  27.244  0.00  0.00    +0.000 C 
ATOM     20  C   UNL     1      27.481  22.563  26.270  0.00  0.00    +0.000 C 
ATOM     21  C   UNL     1      29.077  24.232  27.125  0.00  0.00    +0.000 C 
ATOM     22  C   UNL     1      27.554  23.051  28.640  0.00  0.00    +0.000 C 
ENDBRANCH  18  19
ENDBRANCH   6  18
TORSDOF 3
ENDMDL
MODEL 8
REMARK VINA RESULT:      -5.7      2.876      6.543
REMARK  Name = 
REMARK  3 active torsions:
REMARK  status: ('A' for Active; 'I' for Inactive)
REMARK    1  A    between atoms: C_6  and  N_7
REMARK    2  A    between atoms: N_7  and  C_8
REMARK    3  A    between atoms: C_12  and  C_13
REMARK                            x       y       z     vdW  Elec       q    Type
REMARK                         _______ _______ _______ _____ _____    ______ ____
ROOT
ATOM      1  C   UNL     1      24.065  26.555  31.229  0.00  0.00    +0.000 C 
ATOM      2  C   UNL     1      25.121  25.689  30.604  0.00  0.00    +0.000 A 
ATOM      3  C   UNL     1      25.033  25.270  29.294  0.00  0.00    +0.000 A 
ATOM      4  C   UNL     1      26.018  24.471  28.736  0.00  0.00    +0.000 A 
ATOM      5  N   UNL     1      27.065  24.102  29.480  0.00  0.00    +0.000 N 
ATOM      6  C   UNL     1      28.182  23.317  29.186  0.00  0.00    +0.000 A 
ATOM      7  C   UNL     1      28.944  23.259  30.311  0.00  0.00    +0.000 A 
ATOM      8  N   UNL     1      28.298  23.998  31.274  0.00  0.00    +0.000 NA
ATOM      9  C   UNL     1      27.176  24.487  30.740  0.00  0.00    +0.000 A 
ATOM     10  C   UNL     1      26.201  25.299  31.349  0.00  0.00    +0.000 A 
ENDROOT
BRANCH   7  11
ATOM     11  C   UNL     1      30.203  22.552  30.582  0.00  0.00    +0.000 A 
ATOM     12  C   UNL     1      30.385  21.909  31.817  0.00  0.00    +0.000 A 
ATOM     13  C   UNL     1      31.565  21.275  32.140  0.00  0.00    +0.000 A 
ATOM     14  C   UNL     1      32.627  21.243  31.261  0.00  0.00    +0.000 A 
ATOM     15  O   UNL     1      33.812  20.600  31.600  0.00  0.00    +0.000 OA
ATOM     16  C   UNL     1      32.451  21.875  30.047  0.00  0.00    +0.000 A 
ATOM     17  C   UNL     1      31.264  22.506  29.735  0.00  0.00    +0.000 A 
ENDBRANCH   7  11
BRANCH   6  18
ATOM     18  N   UNL     1      28.306  22.751  27.947  0.00  0.00    +0.000 NA
BRANCH  18  19
ATOM     19  C   UNL     1      28.829  22.991  26.711  0.00  0.00    +0.000 C 
ATOM     20  C   UNL     1      30.082  22.203  26.314  0.00  0.00    +0.000 C 
ATOM     21  C   UNL     1      27.797  22.760  25.584  0.00  0.00    +0.000 C 
ATOM     22  C   UNL     1      29.271  24.474  26.533  0.00  0.00    +0.000 C 
ENDBRANCH  18  19
ENDBRANCH   6  18
TORSDOF 3
ENDMDL
MODEL 9
REMARK VINA RESULT:      -5.7     24.335     26.732
REMARK  Name = 
REMARK  3 active torsions:
REMARK  status: ('A' for Active; 'I' for Inactive)
REMARK    1  A    between atoms: C_6  and  N_7
REMARK    2  A    between atoms: N_7  and  C_8
REMARK    3  A    between atoms: C_12  and  C_13
REMARK                            x       y       z     vdW  Elec       q    Type
REMARK                         _______ _______ _______ _____ _____    ______ ____
ROOT
ATOM      1  C   UNL     1      30.701  -7.917  35.851  0.00  0.00    +0.000 C 
ATOM      2  C   UNL     1      31.448  -6.621  35.982  0.00  0.00    +0.000 A 
ATOM      3  C   UNL     1      32.243  -6.349  37.074  0.00  0.00    +0.000 A 
ATOM      4  C   UNL     1      32.924  -5.146  37.176  0.00  0.00    +0.000 A 
ATOM      5  N   UNL     1      32.806  -4.240  36.201  0.00  0.00    +0.000 N 
ATOM      6  C   UNL     1      33.365  -2.969  36.043  0.00  0.00    +0.000 A 
ATOM      7  C   UNL     1      32.912  -2.472  34.861  0.00  0.00    +0.000 A 
ATOM      8  N   UNL     1      32.089  -3.427  34.310  0.00  0.00    +0.000 NA
ATOM      9  C   UNL     1      32.050  -4.471  35.142  0.00  0.00    +0.000 A 
ATOM     10  C   UNL     1      31.341  -5.678  34.996  0.00  0.00    +0.000 A 
ENDROOT
BRANCH   7  11
ATOM     11  C   UNL     1      33.148  -1.177  34.212  0.00  0.00    +0.000 A 
ATOM     12  C   UNL     1      34.152  -1.062  33.235  0.00  0.00    +0.000 A 
ATOM     13  C   UNL     1      34.447   0.140  32.632  0.00  0.00    +0.000 A 
ATOM     14  C   UNL     1      33.767   1.294  32.961  0.00  0.00    +0.000 A 
ATOM     15  O   UNL     1      34.075   2.502  32.344  0.00  0.00    +0.000 OA
ATOM     16  C   UNL     1      32.781   1.185  33.919  0.00  0.00    +0.000 A 
ATOM     17  C   UNL     1      32.494  -0.025  34.516  0.00  0.00    +0.000 A 
ENDBRANCH   7  11
BRANCH   6  18
ATOM     18  N   UNL     1      34.170  -2.455  37.022  0.00  0.00    +0.000 NA
BRANCH  18  19
ATOM     19  C   UNL     1      34.399  -1.309  37.724  0.00  0.00    +0.000 C 
ATOM     20  C   UNL     1      33.182  -0.442  38.066  0.00  0.00    +0.000 C 
ATOM     21  C   UNL     1      35.129  -1.576  39.059  0.00  0.00    +0.000 C 
ATOM     22  C   UNL     1      35.333  -0.324  36.961  0.00  0.00    +0.000 C 
ENDBRANCH  18  19
ENDBRANCH   6  18
TORSDOF 3
ENDMDL
MODEL 10
REMARK VINA RESULT:      -5.6      2.774      6.581
REMARK  Name = 
REMARK  3 active torsions:
REMARK  status: ('A' for Active; 'I' for Inactive)
REMARK    1  A    between atoms: C_6  and  N_7
REMARK    2  A    between atoms: N_7  and  C_8
REMARK    3  A    between atoms: C_12  and  C_13
REMARK                            x       y       z     vdW  Elec       q    Type
REMARK                         _______ _______ _______ _____ _____    ______ ____
ROOT
ATOM      1  C   UNL     1      23.531  26.432  28.882  0.00  0.00    +0.000 C 
ATOM      2  C   UNL     1      24.726  25.645  28.426  0.00  0.00    +0.000 A 
ATOM      3  C   UNL     1      24.886  25.266  27.112  0.00  0.00    +0.000 A 
ATOM      4  C   UNL     1      25.996  24.540  26.711  0.00  0.00    +0.000 A 
ATOM      5  N   UNL     1      26.923  24.204  27.615  0.00  0.00    +0.000 N 
ATOM      6  C   UNL     1      28.118  23.491  27.497  0.00  0.00    +0.000 A 
ATOM      7  C   UNL     1      28.681  23.438  28.734  0.00  0.00    +0.000 A 
ATOM      8  N   UNL     1      27.839  24.109  29.590  0.00  0.00    +0.000 NA
ATOM      9  C   UNL     1      26.797  24.553  28.883  0.00  0.00    +0.000 A 
ATOM     10  C   UNL     1      25.686  25.290  29.335  0.00  0.00    +0.000 A 
ENDROOT
BRANCH   7  11
ATOM     11  C   UNL     1      29.915  22.792  29.199  0.00  0.00    +0.000 A 
ATOM     12  C   UNL     1      30.070  22.493  30.564  0.00  0.00    +0.000 A 
ATOM     13  C   UNL     1      31.227  21.933  31.059  0.00  0.00    +0.000 A 
ATOM     14  C   UNL     1      32.293  21.640  30.234  0.00  0.00    +0.000 A 
ATOM     15  O   UNL     1      33.455  21.075  30.747  0.00  0.00    +0.000 OA
ATOM     16  C   UNL     1      32.144  21.933  28.894  0.00  0.00    +0.000 A 
ATOM     17  C   UNL     1      30.979  22.493  28.410  0.00  0.00    +0.000 A 
ENDBRANCH   7  11
BRANCH   6  18
ATOM     18  N   UNL     1      28.483  22.973  26.285  0.00  0.00    +0.000 NA
BRANCH  18  19
ATOM     19  C   UNL     1      29.121  23.312  25.128  0.00  0.00    +0.000 C 
ATOM     20  C   UNL     1      28.306  23.240  23.832  0.00  0.00    +0.000 C 
ATOM     21  C   UNL     1      29.719  24.735  25.185  0.00  0.00    +0.000 C 
ATOM     22  C   UNL     1      30.340  22.389  24.832  0.00  0.00    +0.000 C 
ENDBRANCH  18  19
ENDBRANCH   6  18
TORSDOF 3
ENDMDL
