MODEL 1
REMARK VINA RESULT:      -8.0      0.000      0.000
REMARK  Name = 
REMARK  6 active torsions:
REMARK  status: ('A' for Active; 'I' for Inactive)
REMARK    1  A    between atoms: N_12  and  C_13
REMARK    2  A    between atoms: C_13  and  C_14
REMARK    3  A    between atoms: N_21  and  C_22
REMARK    4  A    between atoms: C_22  and  C_23
REMARK    5  A    between atoms: C_23  and  C_24
REMARK    6  A    between atoms: C_24  and  C_25
REMARK                            x       y       z     vdW  Elec       q    Type
REMARK                         _______ _______ _______ _____ _____    ______ ____
ROOT
ATOM      1  C   UNL     1      43.055  -2.947  12.929  0.00  0.00    +0.000 C 
ATOM      2  C   UNL     1      42.200  -1.741  13.145  0.00  0.00    +0.000 C 
ATOM      3  C   UNL     1      41.220  -1.515  12.017  0.00  0.00    +0.000 C 
ATOM      4  C   UNL     1      41.412  -1.827  14.428  0.00  0.00    +0.000 C 
ATOM      5  C   UNL     1      40.432  -0.657  14.418  0.00  0.00    +0.000 A 
ATOM      6  C   UNL     1      40.857   0.416  13.725  0.00  0.00    +0.000 A 
ATOM      7  S   UNL     1      39.558   1.526  13.908  0.00  0.00    +0.000 S 
ATOM      8  C   UNL     1      38.520   0.571  14.865  0.00  0.00    +0.000 A 
ATOM      9  C   UNL     1      39.215  -0.593  15.019  0.00  0.00    +0.000 A 
ATOM     10  C   UNL     1      38.553  -1.567  15.790  0.00  0.00    +0.000 A 
ATOM     11  N   UNL     1      39.105  -2.737  16.020  0.00  0.00    +0.000 NA
ATOM     12  N   UNL     1      37.348  -1.353  16.318  0.00  0.00    +0.000 N 
ATOM     13  C   UNL     1      36.687  -0.199  16.152  0.00  0.00    +0.000 A 
ATOM     14  O   UNL     1      35.567  -0.013  16.649  0.00  0.00    +0.000 OA
ATOM     15  N   UNL     1      37.281   0.759  15.422  0.00  0.00    +0.000 N 
ATOM     16  C   UNL     1      42.170   0.532  12.994  0.00  0.00    +0.000 C 
ATOM     17  O   UNL     1      42.948  -0.556  13.262  0.00  0.00    +0.000 OA
ENDROOT
BRANCH  12  18
ATOM     18  C   UNL     1      36.734  -2.434  17.112  0.00  0.00    +0.000 C 
BRANCH  18  19
ATOM     19  C   UNL     1      35.906  -3.309  16.239  0.00  0.00    +0.000 A 
ATOM     20  C   UNL     1      36.165  -4.657  16.076  0.00  0.00    +0.000 A 
ATOM     21  C   UNL     1      35.203  -5.135  15.206  0.00  0.00    +0.000 A 
ATOM     22  C   UNL     1      34.411  -4.067  14.884  0.00  0.00    +0.000 A 
ATOM     23  O   UNL     1      34.862  -3.004  15.517  0.00  0.00    +0.000 OA
ENDBRANCH  18  19
ENDBRANCH  12  18
BRANCH  15  24
ATOM     24  C   UNL     1      36.669   2.034  15.176  0.00  0.00    +0.000 C 
BRANCH  24  25
ATOM     25  C   UNL     1      37.012   3.072  16.191  0.00  0.00    +0.000 C 
BRANCH  25  26
ATOM     26  C   UNL     1      37.669   4.291  15.580  0.00  0.00    +0.000 C 
BRANCH  26  27
ATOM     27  C   UNL     1      38.644   4.917  16.481  0.00  0.00    +0.000 A 
ATOM     28  C   UNL     1      39.782   5.577  16.029  0.00  0.00    +0.000 A 
ATOM     29  C   UNL     1      40.638   6.133  16.958  0.00  0.00    +0.000 A 
ATOM     30  C   UNL     1      40.410   6.059  18.315  0.00  0.00    +0.000 A 
ATOM     31  C   UNL     1      39.291   5.409  18.747  0.00  0.00    +0.000 A 
ATOM     32  C   UNL     1      38.400   4.834  17.850  0.00  0.00    +0.000 A 
ENDBRANCH  26  27
ENDBRANCH  25  26
ENDBRANCH  24  25
ENDBRANCH  15  24
TORSDOF 6
ENDMDL
MODEL 2
REMARK VINA RESULT:      -7.8      1.452      2.086
REMARK  Name = 
REMARK  6 active torsions:
REMARK  status: ('A' for Active; 'I' for Inactive)
REMARK    1  A    between atoms: N_12  and  C_13
REMARK    2  A    between atoms: C_13  and  C_14
REMARK    3  A    between atoms: N_21  and  C_22
REMARK    4  A    between atoms: C_22  and  C_23
REMARK    5  A    between atoms: C_23  and  C_24
REMARK    6  A    between atoms: C_24  and  C_25
REMARK                            x       y       z     vdW  Elec       q    Type
REMARK                         _______ _______ _______ _____ _____    ______ ____
ROOT
ATOM      1  C   UNL     1      44.066  -3.049  12.858  0.00  0.00    +0.000 C 
ATOM      2  C   UNL     1      43.246  -1.813  13.030  0.00  0.00    +0.000 C 
ATOM      3  C   UNL     1      42.444  -1.472  11.795  0.00  0.00    +0.000 C 
ATOM      4  C   UNL     1      42.283  -1.929  14.186  0.00  0.00    +0.000 C 
ATOM      5  C   UNL     1      41.368  -0.710  14.115  0.00  0.00    +0.000 A 
ATOM      6  C   UNL     1      41.933   0.376  13.556  0.00  0.00    +0.000 A 
ATOM      7  S   UNL     1      40.673   1.542  13.629  0.00  0.00    +0.000 S 
ATOM      8  C   UNL     1      39.469   0.592  14.373  0.00  0.00    +0.000 A 
ATOM      9  C   UNL     1      40.083  -0.614  14.547  0.00  0.00    +0.000 A 
ATOM     10  C   UNL     1      39.276  -1.593  15.158  0.00  0.00    +0.000 A 
ATOM     11  N   UNL     1      39.737  -2.802  15.387  0.00  0.00    +0.000 NA
ATOM     12  N   UNL     1      38.021  -1.344  15.528  0.00  0.00    +0.000 N 
ATOM     13  C   UNL     1      37.442  -0.150  15.346  0.00  0.00    +0.000 A 
ATOM     14  O   UNL     1      36.273   0.068  15.696  0.00  0.00    +0.000 OA
ATOM     15  N   UNL     1      38.175   0.815  14.766  0.00  0.00    +0.000 N 
ATOM     16  C   UNL     1      43.340   0.463  13.020  0.00  0.00    +0.000 C 
ATOM     17  O   UNL     1      44.023  -0.678  13.322  0.00  0.00    +0.000 OA
ENDROOT
BRANCH  12  18
ATOM     18  C   UNL     1      37.254  -2.434  16.161  0.00  0.00    +0.000 C 
BRANCH  18  19
ATOM     19  C   UNL     1      37.566  -2.510  17.613  0.00  0.00    +0.000 A 
ATOM     20  C   UNL     1      36.872  -1.784  18.563  0.00  0.00    +0.000 A 
ATOM     21  C   UNL     1      37.434  -2.105  19.785  0.00  0.00    +0.000 A 
ATOM     22  C   UNL     1      38.434  -3.002  19.525  0.00  0.00    +0.000 A 
ATOM     23  O   UNL     1      38.479  -3.214  18.226  0.00  0.00    +0.000 OA
ENDBRANCH  18  19
ENDBRANCH  12  18
BRANCH  15  24
ATOM     24  C   UNL     1      37.662   2.133  14.520  0.00  0.00    +0.000 C 
BRANCH  24  25
ATOM     25  C   UNL     1      37.792   3.057  15.683  0.00  0.00    +0.000 C 
BRANCH  25  26
ATOM     26  C   UNL     1      38.418   4.383  15.307  0.00  0.00    +0.000 C 
BRANCH  26  27
ATOM     27  C   UNL     1      39.119   5.014  16.432  0.00  0.00    +0.000 A 
ATOM     28  C   UNL     1      40.266   5.785  16.277  0.00  0.00    +0.000 A 
ATOM     29  C   UNL     1      40.851   6.336  17.399  0.00  0.00    +0.000 A 
ATOM     30  C   UNL     1      40.343   6.151  18.667  0.00  0.00    +0.000 A 
ATOM     31  C   UNL     1      39.216   5.393  18.808  0.00  0.00    +0.000 A 
ATOM     32  C   UNL     1      38.593   4.819  17.708  0.00  0.00    +0.000 A 
ENDBRANCH  26  27
ENDBRANCH  25  26
ENDBRANCH  24  25
ENDBRANCH  15  24
TORSDOF 6
ENDMDL
MODEL 3
REMARK VINA RESULT:      -7.5      1.923      2.604
REMARK  Name = 
REMARK  6 active torsions:
REMARK  status: ('A' for Active; 'I' for Inactive)
REMARK    1  A    between atoms: N_12  and  C_13
REMARK    2  A    between atoms: C_13  and  C_14
REMARK    3  A    between atoms: N_21  and  C_22
REMARK    4  A    between atoms: C_22  and  C_23
REMARK    5  A    between atoms: C_23  and  C_24
REMARK    6  A    between atoms: C_24  and  C_25
REMARK                            x       y       z     vdW  Elec       q    Type
REMARK                         _______ _______ _______ _____ _____    ______ ____
ROOT
ATOM      1  C   UNL     1      41.927  -1.441  10.994  0.00  0.00    +0.000 C 
ATOM      2  C   UNL     1      41.444  -0.211  11.691  0.00  0.00    +0.000 C 
ATOM      3  C   UNL     1      40.466   0.584  10.857  0.00  0.00    +0.000 C 
ATOM      4  C   UNL     1      40.772  -0.532  13.004  0.00  0.00    +0.000 C 
ATOM      5  C   UNL     1      40.140   0.766  13.499  0.00  0.00    +0.000 A 
ATOM      6  C   UNL     1      40.774   1.881  13.093  0.00  0.00    +0.000 A 
ATOM      7  S   UNL     1      39.835   3.133  13.804  0.00  0.00    +0.000 S 
ATOM      8  C   UNL     1      38.666   2.177  14.595  0.00  0.00    +0.000 A 
ATOM      9  C   UNL     1      39.039   0.902  14.284  0.00  0.00    +0.000 A 
ATOM     10  C   UNL     1      38.210  -0.095  14.833  0.00  0.00    +0.000 A 
ATOM     11  N   UNL     1      38.451  -1.369  14.615  0.00  0.00    +0.000 NA
ATOM     12  N   UNL     1      37.155   0.200  15.590  0.00  0.00    +0.000 N 
ATOM     13  C   UNL     1      36.811   1.462  15.881  0.00  0.00    +0.000 A 
ATOM     14  O   UNL     1      35.826   1.723  16.588  0.00  0.00    +0.000 OA
ATOM     15  N   UNL     1      37.574   2.447  15.378  0.00  0.00    +0.000 N 
ATOM     16  C   UNL     1      42.004   1.932  12.223  0.00  0.00    +0.000 C 
ATOM     17  O   UNL     1      42.486   0.671  12.027  0.00  0.00    +0.000 OA
ENDROOT
BRANCH  12  18
ATOM     18  C   UNL     1      36.346  -0.914  16.121  0.00  0.00    +0.000 C 
BRANCH  18  19
ATOM     19  C   UNL     1      36.921  -1.406  17.401  0.00  0.00    +0.000 A 
ATOM     20  C   UNL     1      37.344  -2.710  17.574  0.00  0.00    +0.000 A 
ATOM     21  C   UNL     1      37.812  -2.797  18.873  0.00  0.00    +0.000 A 
ATOM     22  C   UNL     1      37.653  -1.555  19.423  0.00  0.00    +0.000 A 
ATOM     23  O   UNL     1      37.122  -0.760  18.518  0.00  0.00    +0.000 OA
ENDBRANCH  18  19
ENDBRANCH  12  18
BRANCH  15  24
ATOM     24  C   UNL     1      37.303   3.835  15.622  0.00  0.00    +0.000 C 
BRANCH  24  25
ATOM     25  C   UNL     1      37.896   4.350  16.889  0.00  0.00    +0.000 C 
BRANCH  25  26
ATOM     26  C   UNL     1      38.528   5.716  16.725  0.00  0.00    +0.000 C 
BRANCH  26  27
ATOM     27  C   UNL     1      38.870   6.337  18.010  0.00  0.00    +0.000 A 
ATOM     28  C   UNL     1      39.930   5.910  18.803  0.00  0.00    +0.000 A 
ATOM     29  C   UNL     1      40.170   6.562  19.996  0.00  0.00    +0.000 A 
ATOM     30  C   UNL     1      39.399   7.618  20.432  0.00  0.00    +0.000 A 
ATOM     31  C   UNL     1      38.362   8.029  19.646  0.00  0.00    +0.000 A 
ATOM     32  C   UNL     1      38.082   7.404  18.437  0.00  0.00    +0.000 A 
ENDBRANCH  26  27
ENDBRANCH  25  26
ENDBRANCH  24  25
ENDBRANCH  15  24
TORSDOF 6
ENDMDL
MODEL 4
REMARK VINA RESULT:      -7.2      5.103      8.341
REMARK  Name = 
REMARK  6 active torsions:
REMARK  status: ('A' for Active; 'I' for Inactive)
REMARK    1  A    between atoms: N_12  and  C_13
REMARK    2  A    between atoms: C_13  and  C_14
REMARK    3  A    between atoms: N_21  and  C_22
REMARK    4  A    between atoms: C_22  and  C_23
REMARK    5  A    between atoms: C_23  and  C_24
REMARK    6  A    between atoms: C_24  and  C_25
REMARK                            x       y       z     vdW  Elec       q    Type
REMARK                         _______ _______ _______ _____ _____    ______ ____
ROOT
ATOM      1  C   UNL     1      34.473   9.421  12.113  0.00  0.00    +0.000 C 
ATOM      2  C   UNL     1      35.231   9.455  13.400  0.00  0.00    +0.000 C 
ATOM      3  C   UNL     1      34.329   9.349  14.607  0.00  0.00    +0.000 C 
ATOM      4  C   UNL     1      36.248   8.344  13.487  0.00  0.00    +0.000 C 
ATOM      5  C   UNL     1      36.787   8.358  14.915  0.00  0.00    +0.000 A 
ATOM      6  C   UNL     1      36.763   9.567  15.505  0.00  0.00    +0.000 A 
ATOM      7  S   UNL     1      37.421   9.246  17.059  0.00  0.00    +0.000 S 
ATOM      8  C   UNL     1      37.702   7.573  16.893  0.00  0.00    +0.000 A 
ATOM      9  C   UNL     1      37.275   7.307  15.624  0.00  0.00    +0.000 A 
ATOM     10  C   UNL     1      37.406   5.959  15.239  0.00  0.00    +0.000 A 
ATOM     11  N   UNL     1      37.034   5.559  14.044  0.00  0.00    +0.000 NA
ATOM     12  N   UNL     1      37.907   5.034  16.057  0.00  0.00    +0.000 N 
ATOM     13  C   UNL     1      38.320   5.324  17.298  0.00  0.00    +0.000 A 
ATOM     14  O   UNL     1      38.786   4.453  18.050  0.00  0.00    +0.000 OA
ATOM     15  N   UNL     1      38.214   6.598  17.709  0.00  0.00    +0.000 N 
ATOM     16  C   UNL     1      36.261  10.845  14.881  0.00  0.00    +0.000 C 
ATOM     17  O   UNL     1      35.975  10.637  13.564  0.00  0.00    +0.000 OA
ENDROOT
BRANCH  12  18
ATOM     18  C   UNL     1      38.005   3.648  15.563  0.00  0.00    +0.000 C 
BRANCH  18  19
ATOM     19  C   UNL     1      36.872   2.834  16.080  0.00  0.00    +0.000 A 
ATOM     20  C   UNL     1      35.625   2.833  15.485  0.00  0.00    +0.000 A 
ATOM     21  C   UNL     1      34.840   1.973  16.230  0.00  0.00    +0.000 A 
ATOM     22  C   UNL     1      35.638   1.495  17.234  0.00  0.00    +0.000 A 
ATOM     23  O   UNL     1      36.834   2.031  17.108  0.00  0.00    +0.000 OA
ENDBRANCH  18  19
ENDBRANCH  12  18
BRANCH  15  24
ATOM     24  C   UNL     1      38.623   7.025  19.017  0.00  0.00    +0.000 C 
BRANCH  24  25
ATOM     25  C   UNL     1      40.079   7.330  19.122  0.00  0.00    +0.000 C 
BRANCH  25  26
ATOM     26  C   UNL     1      40.784   6.466  20.145  0.00  0.00    +0.000 C 
BRANCH  26  27
ATOM     27  C   UNL     1      42.245   6.506  20.006  0.00  0.00    +0.000 A 
ATOM     28  C   UNL     1      42.886   6.875  18.829  0.00  0.00    +0.000 A 
ATOM     29  C   UNL     1      44.266   6.881  18.799  0.00  0.00    +0.000 A 
ATOM     30  C   UNL     1      45.033   6.535  19.891  0.00  0.00    +0.000 A 
ATOM     31  C   UNL     1      44.393   6.174  21.042  0.00  0.00    +0.000 A 
ATOM     32  C   UNL     1      43.007   6.154  21.119  0.00  0.00    +0.000 A 
ENDBRANCH  26  27
ENDBRANCH  25  26
ENDBRANCH  24  25
ENDBRANCH  15  24
TORSDOF 6
ENDMDL
MODEL 5
REMARK VINA RESULT:      -7.2      2.320      6.323
REMARK  Name = 
REMARK  6 active torsions:
REMARK  status: ('A' for Active; 'I' for Inactive)
REMARK    1  A    between atoms: N_12  and  C_13
REMARK    2  A    between atoms: C_13  and  C_14
REMARK    3  A    between atoms: N_21  and  C_22
REMARK    4  A    between atoms: C_22  and  C_23
REMARK    5  A    between atoms: C_23  and  C_24
REMARK    6  A    between atoms: C_24  and  C_25
REMARK                            x       y       z     vdW  Elec       q    Type
REMARK                         _______ _______ _______ _____ _____    ______ ____
ROOT
ATOM      1  C   UNL     1      39.135   6.330  19.087  0.00  0.00    +0.000 C 
ATOM      2  C   UNL     1      38.961   5.981  17.645  0.00  0.00    +0.000 C 
ATOM      3  C   UNL     1      40.210   5.383  17.038  0.00  0.00    +0.000 C 
ATOM      4  C   UNL     1      37.833   5.002  17.432  0.00  0.00    +0.000 C 
ATOM      5  C   UNL     1      37.905   4.566  15.971  0.00  0.00    +0.000 A 
ATOM      6  C   UNL     1      38.429   5.487  15.142  0.00  0.00    +0.000 A 
ATOM      7  S   UNL     1      38.368   4.704  13.614  0.00  0.00    +0.000 S 
ATOM      8  C   UNL     1      37.672   3.224  14.097  0.00  0.00    +0.000 A 
ATOM      9  C   UNL     1      37.504   3.380  15.442  0.00  0.00    +0.000 A 
ATOM     10  C   UNL     1      36.932   2.267  16.088  0.00  0.00    +0.000 A 
ATOM     11  N   UNL     1      36.713   2.277  17.384  0.00  0.00    +0.000 NA
ATOM     12  N   UNL     1      36.590   1.163  15.425  0.00  0.00    +0.000 N 
ATOM     13  C   UNL     1      36.765   1.037  14.103  0.00  0.00    +0.000 A 
ATOM     14  O   UNL     1      36.441   0.004  13.498  0.00  0.00    +0.000 OA
ATOM     15  N   UNL     1      37.308   2.075  13.445  0.00  0.00    +0.000 N 
ATOM     16  C   UNL     1      38.927   6.853  15.541  0.00  0.00    +0.000 C 
ATOM     17  O   UNL     1      38.628   7.092  16.850  0.00  0.00    +0.000 OA
ENDROOT
BRANCH  12  18
ATOM     18  C   UNL     1      35.997   0.049  16.189  0.00  0.00    +0.000 C 
BRANCH  18  19
ATOM     19  C   UNL     1      37.007  -1.020  16.412  0.00  0.00    +0.000 A 
ATOM     20  C   UNL     1      36.911  -2.268  15.827  0.00  0.00    +0.000 A 
ATOM     21  C   UNL     1      38.012  -2.985  16.258  0.00  0.00    +0.000 A 
ATOM     22  C   UNL     1      38.719  -2.148  17.076  0.00  0.00    +0.000 A 
ATOM     23  O   UNL     1      38.090  -0.994  17.141  0.00  0.00    +0.000 OA
ENDBRANCH  18  19
ENDBRANCH  12  18
BRANCH  15  24
ATOM     24  C   UNL     1      37.544   2.054  12.029  0.00  0.00    +0.000 C 
BRANCH  24  25
ATOM     25  C   UNL     1      38.923   1.631  11.655  0.00  0.00    +0.000 C 
BRANCH  25  26
ATOM     26  C   UNL     1      39.000   0.170  11.263  0.00  0.00    +0.000 C 
BRANCH  26  27
ATOM     27  C   UNL     1      39.668  -0.652  12.278  0.00  0.00    +0.000 A 
ATOM     28  C   UNL     1      40.272  -0.118  13.411  0.00  0.00    +0.000 A 
ATOM     29  C   UNL     1      40.875  -0.976  14.308  0.00  0.00    +0.000 A 
ATOM     30  C   UNL     1      40.902  -2.342  14.124  0.00  0.00    +0.000 A 
ATOM     31  C   UNL     1      40.306  -2.856  13.009  0.00  0.00    +0.000 A 
ATOM     32  C   UNL     1      39.687  -2.031  12.078  0.00  0.00    +0.000 A 
ENDBRANCH  26  27
ENDBRANCH  25  26
ENDBRANCH  24  25
ENDBRANCH  15  24
TORSDOF 6
ENDMDL
MODEL 6
REMARK VINA RESULT:      -7.0      4.483      8.057
REMARK  Name = 
REMARK  6 active torsions:
REMARK  status: ('A' for Active; 'I' for Inactive)
REMARK    1  A    between atoms: N_12  and  C_13
REMARK    2  A    between atoms: C_13  and  C_14
REMARK    3  A    between atoms: N_21  and  C_22
REMARK    4  A    between atoms: C_22  and  C_23
REMARK    5  A    between atoms: C_23  and  C_24
REMARK    6  A    between atoms: C_24  and  C_25
REMARK                            x       y       z     vdW  Elec       q    Type
REMARK                         _______ _______ _______ _____ _____    ______ ____
ROOT
ATOM      1  C   UNL     1      34.734   0.635  17.123  0.00  0.00    +0.000 C 
ATOM      2  C   UNL     1      35.484   1.485  16.150  0.00  0.00    +0.000 C 
ATOM      3  C   UNL     1      34.672   2.661  15.660  0.00  0.00    +0.000 C 
ATOM      4  C   UNL     1      36.764   2.025  16.739  0.00  0.00    +0.000 C 
ATOM      5  C   UNL     1      37.312   3.038  15.738  0.00  0.00    +0.000 A 
ATOM      6  C   UNL     1      36.977   2.789  14.458  0.00  0.00    +0.000 A 
ATOM      7  S   UNL     1      37.733   4.078  13.609  0.00  0.00    +0.000 S 
ATOM      8  C   UNL     1      38.449   4.887  14.928  0.00  0.00    +0.000 A 
ATOM      9  C   UNL     1      38.080   4.127  16.001  0.00  0.00    +0.000 A 
ATOM     10  C   UNL     1      38.559   4.599  17.238  0.00  0.00    +0.000 A 
ATOM     11  N   UNL     1      38.281   3.967  18.355  0.00  0.00    +0.000 NA
ATOM     12  N   UNL     1      39.309   5.697  17.334  0.00  0.00    +0.000 N 
ATOM     13  C   UNL     1      39.657   6.423  16.264  0.00  0.00    +0.000 A 
ATOM     14  O   UNL     1      40.356   7.443  16.368  0.00  0.00    +0.000 OA
ATOM     15  N   UNL     1      39.222   6.011  15.062  0.00  0.00    +0.000 N 
ATOM     16  C   UNL     1      36.137   1.635  13.973  0.00  0.00    +0.000 C 
ATOM     17  O   UNL     1      35.887   0.778  15.004  0.00  0.00    +0.000 OA
ENDROOT
BRANCH  12  18
ATOM     18  C   UNL     1      39.764   6.112  18.674  0.00  0.00    +0.000 C 
BRANCH  18  19
ATOM     19  C   UNL     1      38.868   7.167  19.220  0.00  0.00    +0.000 A 
ATOM     20  C   UNL     1      39.153   7.856  20.384  0.00  0.00    +0.000 A 
ATOM     21  C   UNL     1      38.109   8.742  20.575  0.00  0.00    +0.000 A 
ATOM     22  C   UNL     1      37.247   8.553  19.530  0.00  0.00    +0.000 A 
ATOM     23  O   UNL     1      37.734   7.611  18.750  0.00  0.00    +0.000 OA
ENDBRANCH  18  19
ENDBRANCH  12  18
BRANCH  15  24
ATOM     24  C   UNL     1      39.531   6.709  13.847  0.00  0.00    +0.000 C 
BRANCH  24  25
ATOM     25  C   UNL     1      38.532   7.753  13.482  0.00  0.00    +0.000 C 
BRANCH  25  26
ATOM     26  C   UNL     1      37.395   7.846  14.477  0.00  0.00    +0.000 C 
BRANCH  26  27
ATOM     27  C   UNL     1      36.093   7.529  13.877  0.00  0.00    +0.000 A 
ATOM     28  C   UNL     1      35.951   7.048  12.580  0.00  0.00    +0.000 A 
ATOM     29  C   UNL     1      34.682   6.779  12.108  0.00  0.00    +0.000 A 
ATOM     30  C   UNL     1      33.551   6.969  12.872  0.00  0.00    +0.000 A 
ATOM     31  C   UNL     1      33.702   7.442  14.144  0.00  0.00    +0.000 A 
ATOM     32  C   UNL     1      34.959   7.726  14.662  0.00  0.00    +0.000 A 
ENDBRANCH  26  27
ENDBRANCH  25  26
ENDBRANCH  24  25
ENDBRANCH  15  24
TORSDOF 6
ENDMDL
MODEL 7
REMARK VINA RESULT:      -6.9      4.227      6.993
REMARK  Name = 
REMARK  6 active torsions:
REMARK  status: ('A' for Active; 'I' for Inactive)
REMARK    1  A    between atoms: N_12  and  C_13
REMARK    2  A    between atoms: C_13  and  C_14
REMARK    3  A    between atoms: N_21  and  C_22
REMARK    4  A    between atoms: C_22  and  C_23
REMARK    5  A    between atoms: C_23  and  C_24
REMARK    6  A    between atoms: C_24  and  C_25
REMARK                            x       y       z     vdW  Elec       q    Type
REMARK                         _______ _______ _______ _____ _____    ______ ____
ROOT
ATOM      1  C   UNL     1      42.101   6.496  19.324  0.00  0.00    +0.000 C 
ATOM      2  C   UNL     1      41.210   6.818  18.169  0.00  0.00    +0.000 C 
ATOM      3  C   UNL     1      41.818   6.426  16.842  0.00  0.00    +0.000 C 
ATOM      4  C   UNL     1      39.869   6.135  18.280  0.00  0.00    +0.000 C 
ATOM      5  C   UNL     1      39.153   6.364  16.952  0.00  0.00    +0.000 A 
ATOM      6  C   UNL     1      39.504   7.499  16.321  0.00  0.00    +0.000 A 
ATOM      7  S   UNL     1      38.540   7.458  14.899  0.00  0.00    +0.000 S 
ATOM      8  C   UNL     1      37.724   5.986  15.168  0.00  0.00    +0.000 A 
ATOM      9  C   UNL     1      38.225   5.563  16.366  0.00  0.00    +0.000 A 
ATOM     10  C   UNL     1      37.694   4.339  16.816  0.00  0.00    +0.000 A 
ATOM     11  N   UNL     1      38.086   3.812  17.954  0.00  0.00    +0.000 NA
ATOM     12  N   UNL     1      36.781   3.664  16.120  0.00  0.00    +0.000 N 
ATOM     13  C   UNL     1      36.305   4.104  14.947  0.00  0.00    +0.000 A 
ATOM     14  O   UNL     1      35.454   3.465  14.309  0.00  0.00    +0.000 OA
ATOM     15  N   UNL     1      36.783   5.268  14.477  0.00  0.00    +0.000 N 
ATOM     16  C   UNL     1      40.510   8.509  16.812  0.00  0.00    +0.000 C 
ATOM     17  O   UNL     1      40.909   8.188  18.077  0.00  0.00    +0.000 OA
ENDROOT
BRANCH  12  18
ATOM     18  C   UNL     1      36.285   2.390  16.674  0.00  0.00    +0.000 C 
BRANCH  18  19
ATOM     19  C   UNL     1      36.823   1.244  15.894  0.00  0.00    +0.000 A 
ATOM     20  C   UNL     1      36.031   0.191  15.476  0.00  0.00    +0.000 A 
ATOM     21  C   UNL     1      36.864  -0.673  14.791  0.00  0.00    +0.000 A 
ATOM     22  C   UNL     1      38.112  -0.112  14.823  0.00  0.00    +0.000 A 
ATOM     23  O   UNL     1      38.044   1.023  15.487  0.00  0.00    +0.000 OA
ENDBRANCH  18  19
ENDBRANCH  12  18
BRANCH  15  24
ATOM     24  C   UNL     1      36.348   5.836  13.232  0.00  0.00    +0.000 C 
BRANCH  24  25
ATOM     25  C   UNL     1      34.873   6.036  13.146  0.00  0.00    +0.000 C 
BRANCH  25  26
ATOM     26  C   UNL     1      34.342   6.943  14.236  0.00  0.00    +0.000 C 
BRANCH  26  27
ATOM     27  C   UNL     1      34.275   8.348  13.817  0.00  0.00    +0.000 A 
ATOM     28  C   UNL     1      34.480   8.761  12.506  0.00  0.00    +0.000 A 
ATOM     29  C   UNL     1      34.394  10.107  12.213  0.00  0.00    +0.000 A 
ATOM     30  C   UNL     1      34.114  11.058  13.171  0.00  0.00    +0.000 A 
ATOM     31  C   UNL     1      33.915  10.641  14.456  0.00  0.00    +0.000 A 
ATOM     32  C   UNL     1      33.990   9.297  14.797  0.00  0.00    +0.000 A 
ENDBRANCH  26  27
ENDBRANCH  25  26
ENDBRANCH  24  25
ENDBRANCH  15  24
TORSDOF 6
ENDMDL
MODEL 8
REMARK VINA RESULT:      -6.8      4.379      8.362
REMARK  Name = 
REMARK  6 active torsions:
REMARK  status: ('A' for Active; 'I' for Inactive)
REMARK    1  A    between atoms: N_12  and  C_13
REMARK    2  A    between atoms: C_13  and  C_14
REMARK    3  A    between atoms: N_21  and  C_22
REMARK    4  A    between atoms: C_22  and  C_23
REMARK    5  A    between atoms: C_23  and  C_24
REMARK    6  A    between atoms: C_24  and  C_25
REMARK                            x       y       z     vdW  Elec       q    Type
REMARK                         _______ _______ _______ _____ _____    ______ ____
ROOT
ATOM      1  C   UNL     1      44.473   8.599  13.717  0.00  0.00    +0.000 C 
ATOM      2  C   UNL     1      43.322   7.657  13.576  0.00  0.00    +0.000 C 
ATOM      3  C   UNL     1      43.754   6.209  13.574  0.00  0.00    +0.000 C 
ATOM      4  C   UNL     1      42.308   7.833  14.679  0.00  0.00    +0.000 C 
ATOM      5  C   UNL     1      41.315   6.682  14.545  0.00  0.00    +0.000 A 
ATOM      6  C   UNL     1      41.167   6.221  13.290  0.00  0.00    +0.000 A 
ATOM      7  S   UNL     1      40.009   4.965  13.479  0.00  0.00    +0.000 S 
ATOM      8  C   UNL     1      39.760   5.079  15.162  0.00  0.00    +0.000 A 
ATOM      9  C   UNL     1      40.588   6.099  15.534  0.00  0.00    +0.000 A 
ATOM     10  C   UNL     1      40.562   6.393  16.911  0.00  0.00    +0.000 A 
ATOM     11  N   UNL     1      41.309   7.351  17.410  0.00  0.00    +0.000 NA
ATOM     12  N   UNL     1      39.788   5.723  17.763  0.00  0.00    +0.000 N 
ATOM     13  C   UNL     1      38.983   4.727  17.370  0.00  0.00    +0.000 A 
ATOM     14  O   UNL     1      38.267   4.111  18.175  0.00  0.00    +0.000 OA
ATOM     15  N   UNL     1      38.975   4.410  16.065  0.00  0.00    +0.000 N 
ATOM     16  C   UNL     1      41.883   6.738  12.068  0.00  0.00    +0.000 C 
ATOM     17  O   UNL     1      42.597   7.855  12.388  0.00  0.00    +0.000 OA
ENDROOT
BRANCH  12  18
ATOM     18  C   UNL     1      39.829   6.105  19.187  0.00  0.00    +0.000 C 
BRANCH  18  19
ATOM     19  C   UNL     1      38.850   7.191  19.460  0.00  0.00    +0.000 A 
ATOM     20  C   UNL     1      38.923   7.994  20.582  0.00  0.00    +0.000 A 
ATOM     21  C   UNL     1      37.861   8.876  20.497  0.00  0.00    +0.000 A 
ATOM     22  C   UNL     1      37.199   8.572  19.340  0.00  0.00    +0.000 A 
ATOM     23  O   UNL     1      37.818   7.568  18.755  0.00  0.00    +0.000 OA
ENDBRANCH  18  19
ENDBRANCH  12  18
BRANCH  15  24
ATOM     24  C   UNL     1      38.155   3.361  15.529  0.00  0.00    +0.000 C 
BRANCH  24  25
ATOM     25  C   UNL     1      36.797   3.814  15.110  0.00  0.00    +0.000 C 
BRANCH  25  26
ATOM     26  C   UNL     1      36.016   2.733  14.394  0.00  0.00    +0.000 C 
BRANCH  26  27
ATOM     27  C   UNL     1      35.721   1.584  15.259  0.00  0.00    +0.000 A 
ATOM     28  C   UNL     1      34.962   1.682  16.420  0.00  0.00    +0.000 A 
ATOM     29  C   UNL     1      34.741   0.542  17.166  0.00  0.00    +0.000 A 
ATOM     30  C   UNL     1      35.243  -0.690  16.805  0.00  0.00    +0.000 A 
ATOM     31  C   UNL     1      35.987  -0.775  15.663  0.00  0.00    +0.000 A 
ATOM     32  C   UNL     1      36.236   0.346  14.880  0.00  0.00    +0.000 A 
ENDBRANCH  26  27
ENDBRANCH  25  26
ENDBRANCH  24  25
ENDBRANCH  15  24
TORSDOF 6
ENDMDL
MODEL 9
REMARK VINA RESULT:      -6.8     26.237     29.820
REMARK  Name = 
REMARK  6 active torsions:
REMARK  status: ('A' for Active; 'I' for Inactive)
REMARK    1  A    between atoms: N_12  and  C_13
REMARK    2  A    between atoms: C_13  and  C_14
REMARK    3  A    between atoms: N_21  and  C_22
REMARK    4  A    between atoms: C_22  and  C_23
REMARK    5  A    between atoms: C_23  and  C_24
REMARK    6  A    between atoms: C_24  and  C_25
REMARK                            x       y       z     vdW  Elec       q    Type
REMARK                         _______ _______ _______ _____ _____    ______ ____
ROOT
ATOM      1  C   UNL     1      25.854  17.872  42.293  0.00  0.00    +0.000 C 
ATOM      2  C   UNL     1      25.575  17.294  40.944  0.00  0.00    +0.000 C 
ATOM      3  C   UNL     1      25.335  18.356  39.896  0.00  0.00    +0.000 C 
ATOM      4  C   UNL     1      26.705  16.419  40.459  0.00  0.00    +0.000 C 
ATOM      5  C   UNL     1      26.398  16.078  39.004  0.00  0.00    +0.000 A 
ATOM      6  C   UNL     1      25.087  16.055  38.704  0.00  0.00    +0.000 A 
ATOM      7  S   UNL     1      25.085  15.649  37.034  0.00  0.00    +0.000 S 
ATOM      8  C   UNL     1      26.766  15.523  36.785  0.00  0.00    +0.000 A 
ATOM      9  C   UNL     1      27.289  15.802  38.015  0.00  0.00    +0.000 A 
ATOM     10  C   UNL     1      28.695  15.761  38.070  0.00  0.00    +0.000 A 
ATOM     11  N   UNL     1      29.334  16.009  39.191  0.00  0.00    +0.000 NA
ATOM     12  N   UNL     1      29.437  15.473  37.002  0.00  0.00    +0.000 N 
ATOM     13  C   UNL     1      28.898  15.203  35.806  0.00  0.00    +0.000 A 
ATOM     14  O   UNL     1      29.601  14.936  34.820  0.00  0.00    +0.000 OA
ATOM     15  N   UNL     1      27.559  15.230  35.706  0.00  0.00    +0.000 N 
ATOM     16  C   UNL     1      23.956  16.333  39.662  0.00  0.00    +0.000 C 
ATOM     17  O   UNL     1      24.444  16.460  40.930  0.00  0.00    +0.000 OA
ENDROOT
BRANCH  12  18
ATOM     18  C   UNL     1      30.904  15.455  37.159  0.00  0.00    +0.000 C 
BRANCH  18  19
ATOM     19  C   UNL     1      31.379  14.068  37.408  0.00  0.00    +0.000 A 
ATOM     20  C   UNL     1      32.131  13.363  36.487  0.00  0.00    +0.000 A 
ATOM     21  C   UNL     1      32.384  12.128  37.056  0.00  0.00    +0.000 A 
ATOM     22  C   UNL     1      31.780  12.139  38.284  0.00  0.00    +0.000 A 
ATOM     23  O   UNL     1      31.196  13.307  38.453  0.00  0.00    +0.000 OA
ENDBRANCH  18  19
ENDBRANCH  12  18
BRANCH  15  24
ATOM     24  C   UNL     1      26.870  14.958  34.476  0.00  0.00    +0.000 C 
BRANCH  24  25
ATOM     25  C   UNL     1      26.607  16.173  33.652  0.00  0.00    +0.000 C 
BRANCH  25  26
ATOM     26  C   UNL     1      25.160  16.282  33.219  0.00  0.00    +0.000 C 
BRANCH  26  27
ATOM     27  C   UNL     1      24.677  17.668  33.213  0.00  0.00    +0.000 A 
ATOM     28  C   UNL     1      24.174  18.292  32.077  0.00  0.00    +0.000 A 
ATOM     29  C   UNL     1      23.744  19.600  32.175  0.00  0.00    +0.000 A 
ATOM     30  C   UNL     1      23.795  20.311  33.354  0.00  0.00    +0.000 A 
ATOM     31  C   UNL     1      24.291  19.689  34.463  0.00  0.00    +0.000 A 
ATOM     32  C   UNL     1      24.735  18.374  34.413  0.00  0.00    +0.000 A 
ENDBRANCH  26  27
ENDBRANCH  25  26
ENDBRANCH  24  25
ENDBRANCH  15  24
TORSDOF 6
ENDMDL
MODEL 10
REMARK VINA RESULT:      -6.7      5.076      9.497
REMARK  Name = 
REMARK  6 active torsions:
REMARK  status: ('A' for Active; 'I' for Inactive)
REMARK    1  A    between atoms: N_12  and  C_13
REMARK    2  A    between atoms: C_13  and  C_14
REMARK    3  A    between atoms: N_21  and  C_22
REMARK    4  A    between atoms: C_22  and  C_23
REMARK    5  A    between atoms: C_23  and  C_24
REMARK    6  A    between atoms: C_24  and  C_25
REMARK                            x       y       z     vdW  Elec       q    Type
REMARK                         _______ _______ _______ _____ _____    ______ ____
ROOT
ATOM      1  C   UNL     1      40.333   9.898  20.329  0.00  0.00    +0.000 C 
ATOM      2  C   UNL     1      40.022   8.535  19.803  0.00  0.00    +0.000 C 
ATOM      3  C   UNL     1      38.750   7.964  20.386  0.00  0.00    +0.000 C 
ATOM      4  C   UNL     1      39.883   8.526  18.300  0.00  0.00    +0.000 C 
ATOM      5  C   UNL     1      39.355   7.146  17.920  0.00  0.00    +0.000 A 
ATOM      6  C   UNL     1      39.709   6.163  18.769  0.00  0.00    +0.000 A 
ATOM      7  S   UNL     1      38.975   4.775  18.071  0.00  0.00    +0.000 S 
ATOM      8  C   UNL     1      38.244   5.508  16.717  0.00  0.00    +0.000 A 
ATOM      9  C   UNL     1      38.592   6.821  16.844  0.00  0.00    +0.000 A 
ATOM     10  C   UNL     1      38.096   7.654  15.822  0.00  0.00    +0.000 A 
ATOM     11  N   UNL     1      38.353   8.942  15.817  0.00  0.00    +0.000 NA
ATOM     12  N   UNL     1      37.351   7.181  14.823  0.00  0.00    +0.000 N 
ATOM     13  C   UNL     1      37.025   5.886  14.723  0.00  0.00    +0.000 A 
ATOM     14  O   UNL     1      36.331   5.459  13.787  0.00  0.00    +0.000 OA
ATOM     15  N   UNL     1      37.476   5.054  15.676  0.00  0.00    +0.000 N 
ATOM     16  C   UNL     1      40.547   6.328  20.011  0.00  0.00    +0.000 C 
ATOM     17  O   UNL     1      41.036   7.600  20.075  0.00  0.00    +0.000 OA
ENDROOT
BRANCH  12  18
ATOM     18  C   UNL     1      36.878   8.131  13.799  0.00  0.00    +0.000 C 
BRANCH  18  19
ATOM     19  C   UNL     1      35.714   8.903  14.309  0.00  0.00    +0.000 A 
ATOM     20  C   UNL     1      34.489   8.318  14.568  0.00  0.00    +0.000 A 
ATOM     21  C   UNL     1      33.663   9.330  15.021  0.00  0.00    +0.000 A 
ATOM     22  C   UNL     1      34.416  10.472  15.017  0.00  0.00    +0.000 A 
ATOM     23  O   UNL     1      35.625  10.176  14.588  0.00  0.00    +0.000 OA
ENDBRANCH  18  19
ENDBRANCH  12  18
BRANCH  15  24
ATOM     24  C   UNL     1      37.190   3.647  15.673  0.00  0.00    +0.000 C 
BRANCH  24  25
ATOM     25  C   UNL     1      36.021   3.269  16.518  0.00  0.00    +0.000 C 
BRANCH  25  26
ATOM     26  C   UNL     1      35.306   2.036  16.008  0.00  0.00    +0.000 C 
BRANCH  26  27
ATOM     27  C   UNL     1      35.395   0.907  16.942  0.00  0.00    +0.000 A 
ATOM     28  C   UNL     1      34.910  -0.362  16.648  0.00  0.00    +0.000 A 
ATOM     29  C   UNL     1      35.042  -1.359  17.594  0.00  0.00    +0.000 A 
ATOM     30  C   UNL     1      35.636  -1.144  18.819  0.00  0.00    +0.000 A 
ATOM     31  C   UNL     1      36.109   0.106  19.097  0.00  0.00    +0.000 A 
ATOM     32  C   UNL     1      35.999   1.140  18.176  0.00  0.00    +0.000 A 
ENDBRANCH  26  27
ENDBRANCH  25  26
ENDBRANCH  24  25
ENDBRANCH  15  24
TORSDOF 6
ENDMDL
