MODEL 1
REMARK VINA RESULT:      -6.4      0.000      0.000
REMARK  Name = 
REMARK  5 active torsions:
REMARK  status: ('A' for Active; 'I' for Inactive)
REMARK    1  A    between atoms: C_2  and  O_3
REMARK    2  A    between atoms: O_3  and  C_4
REMARK    3  A    between atoms: C_7  and  C_8
REMARK    4  A    between atoms: C_8  and  C_10
REMARK    5  A    between atoms: C_13  and  C_14
REMARK                            x       y       z     vdW  Elec       q    Type
REMARK                         _______ _______ _______ _____ _____    ______ ____
ROOT
ATOM      1  C   UNL     1      16.128  10.693  34.290  0.00  0.00    +0.000 A 
ATOM      2  C   UNL     1      17.222   9.830  34.185  0.00  0.00    +0.000 A 
ATOM      3  C   UNL     1      18.023   9.688  35.319  0.00  0.00    +0.000 A 
ATOM      4  C   UNL     1      17.776  10.344  36.481  0.00  0.00    +0.000 A 
ATOM      5  C   UNL     1      16.699  11.181  36.555  0.00  0.00    +0.000 A 
ATOM      6  C   UNL     1      15.852  11.370  35.456  0.00  0.00    +0.000 A 
ENDROOT
BRANCH   6   7
ATOM      7  C   UNL     1      14.705  12.263  35.538  0.00  0.00    +0.000 A 
ATOM      8  C   UNL     1      14.532  13.374  34.727  0.00  0.00    +0.000 A 
ATOM      9  C   UNL     1      13.325  13.976  35.100  0.00  0.00    +0.000 A 
ATOM     10  N   UNL     1      12.758  15.147  34.525  0.00  0.00    +0.000 NA
ATOM     11  O   UNL     1      12.842  13.239  36.073  0.00  0.00    +0.000 OA
ATOM     12  N   UNL     1      13.646  12.238  36.332  0.00  0.00    +0.000 NA
ENDBRANCH   6   7
BRANCH   4  13
ATOM     13  C   UNL     1      18.703  10.143  37.729  0.00  0.00    +0.000 C 
ATOM     14  C   UNL     1      18.996  11.737  37.968  0.00  0.00    +0.000 C 
BRANCH  13  15
ATOM     15  C   UNL     1      17.487  10.100  38.827  0.00  0.00    +0.000 C 
ATOM     16  C   UNL     1      17.871   8.997  39.803  0.00  0.00    +0.000 C 
ENDBRANCH  13  15
ENDBRANCH   4  13
BRANCH   1  17
ATOM     17  O   UNL     1      15.293  10.873  33.187  0.00  0.00    +0.000 OA
BRANCH  17  19
ATOM     18  C   UNL     1      16.055  12.202  31.306  0.00  0.00    +0.000 C 
ATOM     19  C   UNL     1      15.834  10.821  31.885  0.00  0.00    +0.000 C 
ENDBRANCH  17  19
ENDBRANCH   1  17
TORSDOF 5
ENDMDL
MODEL 2
REMARK VINA RESULT:      -6.3     18.412     20.264
REMARK  Name = 
REMARK  5 active torsions:
REMARK  status: ('A' for Active; 'I' for Inactive)
REMARK    1  A    between atoms: C_2  and  O_3
REMARK    2  A    between atoms: O_3  and  C_4
REMARK    3  A    between atoms: C_7  and  C_8
REMARK    4  A    between atoms: C_8  and  C_10
REMARK    5  A    between atoms: C_13  and  C_14
REMARK                            x       y       z     vdW  Elec       q    Type
REMARK                         _______ _______ _______ _____ _____    ______ ____
ROOT
ATOM      1  C   UNL     1      26.454  23.550  26.044  0.00  0.00    +0.000 A 
ATOM      2  C   UNL     1      25.850  23.823  27.275  0.00  0.00    +0.000 A 
ATOM      3  C   UNL     1      25.026  24.948  27.337  0.00  0.00    +0.000 A 
ATOM      4  C   UNL     1      24.804  25.756  26.269  0.00  0.00    +0.000 A 
ATOM      5  C   UNL     1      25.407  25.466  25.079  0.00  0.00    +0.000 A 
ATOM      6  C   UNL     1      26.246  24.352  24.945  0.00  0.00    +0.000 A 
ENDROOT
BRANCH   6   7
ATOM      7  C   UNL     1      26.887  24.045  23.674  0.00  0.00    +0.000 A 
ATOM      8  C   UNL     1      28.103  24.578  23.275  0.00  0.00    +0.000 A 
ATOM      9  C   UNL     1      28.389  24.055  22.009  0.00  0.00    +0.000 A 
ATOM     10  N   UNL     1      29.543  24.337  21.226  0.00  0.00    +0.000 NA
ATOM     11  O   UNL     1      27.383  23.265  21.711  0.00  0.00    +0.000 OA
ATOM     12  N   UNL     1      26.504  23.258  22.681  0.00  0.00    +0.000 NA
ENDBRANCH   6   7
BRANCH   4  13
ATOM     13  C   UNL     1      23.863  27.004  26.390  0.00  0.00    +0.000 C 
ATOM     14  C   UNL     1      22.852  26.560  25.180  0.00  0.00    +0.000 C 
BRANCH  13  15
ATOM     15  C   UNL     1      22.904  26.369  27.558  0.00  0.00    +0.000 C 
ATOM     16  C   UNL     1      21.522  26.273  26.929  0.00  0.00    +0.000 C 
ENDBRANCH  13  15
ENDBRANCH   4  13
BRANCH   1  17
ATOM     17  O   UNL     1      27.287  22.438  25.924  0.00  0.00    +0.000 OA
BRANCH  17  19
ATOM     18  C   UNL     1      29.712  22.390  25.858  0.00  0.00    +0.000 C 
ATOM     19  C   UNL     1      28.459  22.356  26.707  0.00  0.00    +0.000 C 
ENDBRANCH  17  19
ENDBRANCH   1  17
TORSDOF 5
ENDMDL
MODEL 3
REMARK VINA RESULT:      -6.2     17.815     19.651
REMARK  Name = 
REMARK  5 active torsions:
REMARK  status: ('A' for Active; 'I' for Inactive)
REMARK    1  A    between atoms: C_2  and  O_3
REMARK    2  A    between atoms: O_3  and  C_4
REMARK    3  A    between atoms: C_7  and  C_8
REMARK    4  A    between atoms: C_8  and  C_10
REMARK    5  A    between atoms: C_13  and  C_14
REMARK                            x       y       z     vdW  Elec       q    Type
REMARK                         _______ _______ _______ _____ _____    ______ ____
ROOT
ATOM      1  C   UNL     1      25.725  24.555  25.713  0.00  0.00    +0.000 A 
ATOM      2  C   UNL     1      25.283  24.652  27.035  0.00  0.00    +0.000 A 
ATOM      3  C   UNL     1      25.957  23.881  27.983  0.00  0.00    +0.000 A 
ATOM      4  C   UNL     1      26.994  23.066  27.664  0.00  0.00    +0.000 A 
ATOM      5  C   UNL     1      27.405  22.990  26.364  0.00  0.00    +0.000 A 
ATOM      6  C   UNL     1      26.774  23.737  25.361  0.00  0.00    +0.000 A 
ENDROOT
BRANCH   6   7
ATOM      7  C   UNL     1      27.215  23.654  23.976  0.00  0.00    +0.000 A 
ATOM      8  C   UNL     1      28.416  24.173  23.515  0.00  0.00    +0.000 A 
ATOM      9  C   UNL     1      28.486  23.902  22.145  0.00  0.00    +0.000 A 
ATOM     10  N   UNL     1      29.552  24.258  21.272  0.00  0.00    +0.000 NA
ATOM     11  O   UNL     1      27.379  23.261  21.848  0.00  0.00    +0.000 OA
ATOM     12  N   UNL     1      26.635  23.115  22.915  0.00  0.00    +0.000 NA
ENDBRANCH   6   7
BRANCH   4  13
ATOM     13  C   UNL     1      27.722  22.225  28.769  0.00  0.00    +0.000 C 
ATOM     14  C   UNL     1      28.837  23.370  29.132  0.00  0.00    +0.000 C 
BRANCH  13  15
ATOM     15  C   UNL     1      26.724  22.669  29.991  0.00  0.00    +0.000 C 
ATOM     16  C   UNL     1      26.199  21.362  30.569  0.00  0.00    +0.000 C 
ENDBRANCH  13  15
ENDBRANCH   4  13
BRANCH   1  17
ATOM     17  O   UNL     1      25.088  25.304  24.723  0.00  0.00    +0.000 OA
BRANCH  17  19
ATOM     18  C   UNL     1      26.328  27.320  24.189  0.00  0.00    +0.000 C 
ATOM     19  C   UNL     1      25.086  26.713  24.807  0.00  0.00    +0.000 C 
ENDBRANCH  17  19
ENDBRANCH   1  17
TORSDOF 5
ENDMDL
MODEL 4
REMARK VINA RESULT:      -6.2      1.532      2.129
REMARK  Name = 
REMARK  5 active torsions:
REMARK  status: ('A' for Active; 'I' for Inactive)
REMARK    1  A    between atoms: C_2  and  O_3
REMARK    2  A    between atoms: O_3  and  C_4
REMARK    3  A    between atoms: C_7  and  C_8
REMARK    4  A    between atoms: C_8  and  C_10
REMARK    5  A    between atoms: C_13  and  C_14
REMARK                            x       y       z     vdW  Elec       q    Type
REMARK                         _______ _______ _______ _____ _____    ______ ____
ROOT
ATOM      1  C   UNL     1      16.941  10.291  35.073  0.00  0.00    +0.000 A 
ATOM      2  C   UNL     1      18.153   9.596  35.097  0.00  0.00    +0.000 A 
ATOM      3  C   UNL     1      18.925   9.714  36.252  0.00  0.00    +0.000 A 
ATOM      4  C   UNL     1      18.543  10.461  37.319  0.00  0.00    +0.000 A 
ATOM      5  C   UNL     1      17.353  11.130  37.270  0.00  0.00    +0.000 A 
ATOM      6  C   UNL     1      16.527  11.055  36.141  0.00  0.00    +0.000 A 
ENDROOT
BRANCH   6   7
ATOM      7  C   UNL     1      15.260  11.769  36.091  0.00  0.00    +0.000 A 
ATOM      8  C   UNL     1      14.126  11.378  36.788  0.00  0.00    +0.000 A 
ATOM      9  C   UNL     1      13.118  12.302  36.491  0.00  0.00    +0.000 A 
ATOM     10  N   UNL     1      11.787  12.282  36.993  0.00  0.00    +0.000 NA
ATOM     11  O   UNL     1      13.658  13.172  35.669  0.00  0.00    +0.000 OA
ATOM     12  N   UNL     1      14.908  12.863  35.433  0.00  0.00    +0.000 NA
ENDBRANCH   6   7
BRANCH   4  13
ATOM     13  C   UNL     1      19.445  10.554  38.598  0.00  0.00    +0.000 C 
ATOM     14  C   UNL     1      20.850  10.210  37.828  0.00  0.00    +0.000 C 
BRANCH  13  15
ATOM     15  C   UNL     1      19.679  12.174  38.511  0.00  0.00    +0.000 C 
ATOM     16  C   UNL     1      21.166  12.347  38.238  0.00  0.00    +0.000 C 
ENDBRANCH  13  15
ENDBRANCH   4  13
BRANCH   1  17
ATOM     17  O   UNL     1      16.128  10.209  33.943  0.00  0.00    +0.000 OA
BRANCH  17  19
ATOM     18  C   UNL     1      15.578  11.634  32.058  0.00  0.00    +0.000 C 
ATOM     19  C   UNL     1      16.592  10.718  32.711  0.00  0.00    +0.000 C 
ENDBRANCH  17  19
ENDBRANCH   1  17
TORSDOF 5
ENDMDL
MODEL 5
REMARK VINA RESULT:      -6.2     18.627     20.329
REMARK  Name = 
REMARK  5 active torsions:
REMARK  status: ('A' for Active; 'I' for Inactive)
REMARK    1  A    between atoms: C_2  and  O_3
REMARK    2  A    between atoms: O_3  and  C_4
REMARK    3  A    between atoms: C_7  and  C_8
REMARK    4  A    between atoms: C_8  and  C_10
REMARK    5  A    between atoms: C_13  and  C_14
REMARK                            x       y       z     vdW  Elec       q    Type
REMARK                         _______ _______ _______ _____ _____    ______ ____
ROOT
ATOM      1  C   UNL     1      27.486  22.903  26.096  0.00  0.00    +0.000 A 
ATOM      2  C   UNL     1      27.575  22.606  27.459  0.00  0.00    +0.000 A 
ATOM      3  C   UNL     1      28.850  22.350  27.966  0.00  0.00    +0.000 A 
ATOM      4  C   UNL     1      29.967  22.380  27.197  0.00  0.00    +0.000 A 
ATOM      5  C   UNL     1      29.851  22.673  25.867  0.00  0.00    +0.000 A 
ATOM      6  C   UNL     1      28.602  22.941  25.292  0.00  0.00    +0.000 A 
ENDROOT
BRANCH   6   7
ATOM      7  C   UNL     1      28.482  23.252  23.875  0.00  0.00    +0.000 A 
ATOM      8  C   UNL     1      29.422  23.983  23.163  0.00  0.00    +0.000 A 
ATOM      9  C   UNL     1      28.963  24.074  21.844  0.00  0.00    +0.000 A 
ATOM     10  N   UNL     1      29.620  24.739  20.771  0.00  0.00    +0.000 NA
ATOM     11  O   UNL     1      27.821  23.426  21.815  0.00  0.00    +0.000 OA
ATOM     12  N   UNL     1      27.538  22.946  22.999  0.00  0.00    +0.000 NA
ENDBRANCH   6   7
BRANCH   4  13
ATOM     13  C   UNL     1      31.377  22.092  27.818  0.00  0.00    +0.000 C 
ATOM     14  C   UNL     1      32.022  23.548  27.431  0.00  0.00    +0.000 C 
BRANCH  13  15
ATOM     15  C   UNL     1      30.981  22.560  29.338  0.00  0.00    +0.000 C 
ATOM     16  C   UNL     1      31.918  21.782  30.250  0.00  0.00    +0.000 C 
ENDBRANCH  13  15
ENDBRANCH   4  13
BRANCH   1  17
ATOM     17  O   UNL     1      26.237  23.167  25.535  0.00  0.00    +0.000 OA
BRANCH  17  19
ATOM     18  C   UNL     1      25.401  25.356  24.903  0.00  0.00    +0.000 C 
ATOM     19  C   UNL     1      25.498  24.288  25.972  0.00  0.00    +0.000 C 
ENDBRANCH  17  19
ENDBRANCH   1  17
TORSDOF 5
ENDMDL
MODEL 6
REMARK VINA RESULT:      -6.0     22.279     23.992
REMARK  Name = 
REMARK  5 active torsions:
REMARK  status: ('A' for Active; 'I' for Inactive)
REMARK    1  A    between atoms: C_2  and  O_3
REMARK    2  A    between atoms: O_3  and  C_4
REMARK    3  A    between atoms: C_7  and  C_8
REMARK    4  A    between atoms: C_8  and  C_10
REMARK    5  A    between atoms: C_13  and  C_14
REMARK                            x       y       z     vdW  Elec       q    Type
REMARK                         _______ _______ _______ _____ _____    ______ ____
ROOT
ATOM      1  C   UNL     1      32.462  -5.004  33.806  0.00  0.00    +0.000 A 
ATOM      2  C   UNL     1      31.877  -4.338  34.887  0.00  0.00    +0.000 A 
ATOM      3  C   UNL     1      32.241  -3.005  35.078  0.00  0.00    +0.000 A 
ATOM      4  C   UNL     1      33.119  -2.359  34.269  0.00  0.00    +0.000 A 
ATOM      5  C   UNL     1      33.676  -3.034  33.220  0.00  0.00    +0.000 A 
ATOM      6  C   UNL     1      33.355  -4.374  32.969  0.00  0.00    +0.000 A 
ENDROOT
BRANCH   6   7
ATOM      7  C   UNL     1      33.951  -5.090  31.850  0.00  0.00    +0.000 A 
ATOM      8  C   UNL     1      33.395  -5.138  30.581  0.00  0.00    +0.000 A 
ATOM      9  C   UNL     1      34.245  -5.913  29.785  0.00  0.00    +0.000 A 
ATOM     10  N   UNL     1      34.056  -6.222  28.409  0.00  0.00    +0.000 NA
ATOM     11  O   UNL     1      35.233  -6.282  30.568  0.00  0.00    +0.000 OA
ATOM     12  N   UNL     1      35.063  -5.803  31.774  0.00  0.00    +0.000 NA
ENDBRANCH   6   7
BRANCH   4  13
ATOM     13  C   UNL     1      33.489  -0.857  34.523  0.00  0.00    +0.000 C 
ATOM     14  C   UNL     1      34.919  -1.167  35.259  0.00  0.00    +0.000 C 
BRANCH  13  15
ATOM     15  C   UNL     1      34.181  -0.612  33.058  0.00  0.00    +0.000 C 
ATOM     16  C   UNL     1      33.924   0.853  32.737  0.00  0.00    +0.000 C 
ENDBRANCH  13  15
ENDBRANCH   4  13
BRANCH   1  17
ATOM     17  O   UNL     1      32.135  -6.338  33.567  0.00  0.00    +0.000 OA
BRANCH  17  19
ATOM     18  C   UNL     1      30.309  -6.717  32.014  0.00  0.00    +0.000 C 
ATOM     19  C   UNL     1      30.779  -6.715  33.453  0.00  0.00    +0.000 C 
ENDBRANCH  17  19
ENDBRANCH   1  17
TORSDOF 5
ENDMDL
MODEL 7
REMARK VINA RESULT:      -5.9      2.892      5.286
REMARK  Name = 
REMARK  5 active torsions:
REMARK  status: ('A' for Active; 'I' for Inactive)
REMARK    1  A    between atoms: C_2  and  O_3
REMARK    2  A    between atoms: O_3  and  C_4
REMARK    3  A    between atoms: C_7  and  C_8
REMARK    4  A    between atoms: C_8  and  C_10
REMARK    5  A    between atoms: C_13  and  C_14
REMARK                            x       y       z     vdW  Elec       q    Type
REMARK                         _______ _______ _______ _____ _____    ______ ____
ROOT
ATOM      1  C   UNL     1      19.007  10.330  38.661  0.00  0.00    +0.000 A 
ATOM      2  C   UNL     1      19.293   9.899  39.959  0.00  0.00    +0.000 A 
ATOM      3  C   UNL     1      18.207   9.528  40.754  0.00  0.00    +0.000 A 
ATOM      4  C   UNL     1      16.924   9.572  40.313  0.00  0.00    +0.000 A 
ATOM      5  C   UNL     1      16.673   9.997  39.040  0.00  0.00    +0.000 A 
ATOM      6  C   UNL     1      17.715  10.385  38.188  0.00  0.00    +0.000 A 
ENDROOT
BRANCH   6   7
ATOM      7  C   UNL     1      17.444  10.838  36.831  0.00  0.00    +0.000 A 
ATOM      8  C   UNL     1      17.423   9.998  35.727  0.00  0.00    +0.000 A 
ATOM      9  C   UNL     1      17.132  10.789  34.610  0.00  0.00    +0.000 A 
ATOM     10  N   UNL     1      17.012  10.334  33.267  0.00  0.00    +0.000 NA
ATOM     11  O   UNL     1      16.994  12.014  35.063  0.00  0.00    +0.000 OA
ATOM     12  N   UNL     1      17.177  12.045  36.359  0.00  0.00    +0.000 NA
ENDBRANCH   6   7
BRANCH   4  13
ATOM     13  C   UNL     1      15.741   9.136  41.244  0.00  0.00    +0.000 C 
ATOM     14  C   UNL     1      16.197   7.566  41.357  0.00  0.00    +0.000 C 
BRANCH  13  15
ATOM     15  C   UNL     1      16.478   9.555  42.647  0.00  0.00    +0.000 C 
ATOM     16  C   UNL     1      16.205   8.400  43.600  0.00  0.00    +0.000 C 
ENDBRANCH  13  15
ENDBRANCH   4  13
BRANCH   1  17
ATOM     17  O   UNL     1      20.053  10.714  37.822  0.00  0.00    +0.000 OA
BRANCH  17  19
ATOM     18  C   UNL     1      21.861   9.808  36.482  0.00  0.00    +0.000 C 
ATOM     19  C   UNL     1      21.275  10.008  37.863  0.00  0.00    +0.000 C 
ENDBRANCH  17  19
ENDBRANCH   1  17
TORSDOF 5
ENDMDL
MODEL 8
REMARK VINA RESULT:      -5.8     17.601     19.600
REMARK  Name = 
REMARK  5 active torsions:
REMARK  status: ('A' for Active; 'I' for Inactive)
REMARK    1  A    between atoms: C_2  and  O_3
REMARK    2  A    between atoms: O_3  and  C_4
REMARK    3  A    between atoms: C_7  and  C_8
REMARK    4  A    between atoms: C_8  and  C_10
REMARK    5  A    between atoms: C_13  and  C_14
REMARK                            x       y       z     vdW  Elec       q    Type
REMARK                         _______ _______ _______ _____ _____    ______ ____
ROOT
ATOM      1  C   UNL     1      29.636  22.600  27.874  0.00  0.00    +0.000 A 
ATOM      2  C   UNL     1      30.487  22.460  26.774  0.00  0.00    +0.000 A 
ATOM      3  C   UNL     1      29.915  22.611  25.511  0.00  0.00    +0.000 A 
ATOM      4  C   UNL     1      28.598  22.881  25.327  0.00  0.00    +0.000 A 
ATOM      5  C   UNL     1      27.788  23.013  26.420  0.00  0.00    +0.000 A 
ATOM      6  C   UNL     1      28.296  22.875  27.718  0.00  0.00    +0.000 A 
ENDROOT
BRANCH   6   7
ATOM      7  C   UNL     1      27.430  23.016  28.880  0.00  0.00    +0.000 A 
ATOM      8  C   UNL     1      27.039  24.238  29.406  0.00  0.00    +0.000 A 
ATOM      9  C   UNL     1      26.219  23.971  30.508  0.00  0.00    +0.000 A 
ATOM     10  N   UNL     1      25.596  24.939  31.345  0.00  0.00    +0.000 NA
ATOM     11  O   UNL     1      26.151  22.663  30.596  0.00  0.00    +0.000 OA
ATOM     12  N   UNL     1      26.858  22.103  29.648  0.00  0.00    +0.000 NA
ENDBRANCH   6   7
BRANCH   4  13
ATOM     13  C   UNL     1      28.006  23.049  23.885  0.00  0.00    +0.000 C 
ATOM     14  C   UNL     1      27.315  24.508  24.165  0.00  0.00    +0.000 C 
BRANCH  13  15
ATOM     15  C   UNL     1      29.360  23.703  23.232  0.00  0.00    +0.000 C 
ATOM     16  C   UNL     1      28.941  24.183  21.850  0.00  0.00    +0.000 C 
ENDBRANCH  13  15
ENDBRANCH   4  13
BRANCH   1  17
ATOM     17  O   UNL     1      30.154  22.460  29.161  0.00  0.00    +0.000 OA
BRANCH  17  19
ATOM     18  C   UNL     1      32.320  21.522  29.721  0.00  0.00    +0.000 C 
ATOM     19  C   UNL     1      31.511  22.762  29.404  0.00  0.00    +0.000 C 
ENDBRANCH  17  19
ENDBRANCH   1  17
TORSDOF 5
ENDMDL
MODEL 9
REMARK VINA RESULT:      -5.5     17.659     19.713
REMARK  Name = 
REMARK  5 active torsions:
REMARK  status: ('A' for Active; 'I' for Inactive)
REMARK    1  A    between atoms: C_2  and  O_3
REMARK    2  A    between atoms: O_3  and  C_4
REMARK    3  A    between atoms: C_7  and  C_8
REMARK    4  A    between atoms: C_8  and  C_10
REMARK    5  A    between atoms: C_13  and  C_14
REMARK                            x       y       z     vdW  Elec       q    Type
REMARK                         _______ _______ _______ _____ _____    ______ ____
ROOT
ATOM      1  C   UNL     1      30.176  22.445  26.911  0.00  0.00    +0.000 A 
ATOM      2  C   UNL     1      30.696  22.563  25.619  0.00  0.00    +0.000 A 
ATOM      3  C   UNL     1      29.790  22.854  24.599  0.00  0.00    +0.000 A 
ATOM      4  C   UNL     1      28.461  23.020  24.821  0.00  0.00    +0.000 A 
ATOM      5  C   UNL     1      27.980  22.899  26.093  0.00  0.00    +0.000 A 
ATOM      6  C   UNL     1      28.833  22.608  27.165  0.00  0.00    +0.000 A 
ENDROOT
BRANCH   6   7
ATOM      7  C   UNL     1      28.317  22.479  28.520  0.00  0.00    +0.000 A 
ATOM      8  C   UNL     1      27.109  21.874  28.832  0.00  0.00    +0.000 A 
ATOM      9  C   UNL     1      26.957  21.942  30.221  0.00  0.00    +0.000 A 
ATOM     10  N   UNL     1      25.856  21.440  30.971  0.00  0.00    +0.000 NA
ATOM     11  O   UNL     1      28.028  22.555  30.670  0.00  0.00    +0.000 OA
ATOM     12  N   UNL     1      28.823  22.870  29.679  0.00  0.00    +0.000 NA
ENDBRANCH   6   7
BRANCH   4  13
ATOM     13  C   UNL     1      27.486  23.354  23.640  0.00  0.00    +0.000 C 
ATOM     14  C   UNL     1      26.111  23.141  24.504  0.00  0.00    +0.000 C 
BRANCH  13  15
ATOM     15  C   UNL     1      27.500  24.976  23.874  0.00  0.00    +0.000 C 
ATOM     16  C   UNL     1      26.088  25.325  24.322  0.00  0.00    +0.000 C 
ENDBRANCH  13  15
ENDBRANCH   4  13
BRANCH   1  17
ATOM     17  O   UNL     1      31.036  22.155  27.970  0.00  0.00    +0.000 OA
BRANCH  17  19
ATOM     18  C   UNL     1      31.827  24.367  28.573  0.00  0.00    +0.000 C 
ATOM     19  C   UNL     1      32.184  22.951  28.176  0.00  0.00    +0.000 C 
ENDBRANCH  17  19
ENDBRANCH   1  17
TORSDOF 5
ENDMDL
MODEL 10
REMARK VINA RESULT:      -5.4     20.435     22.400
REMARK  Name = 
REMARK  5 active torsions:
REMARK  status: ('A' for Active; 'I' for Inactive)
REMARK    1  A    between atoms: C_2  and  O_3
REMARK    2  A    between atoms: O_3  and  C_4
REMARK    3  A    between atoms: C_7  and  C_8
REMARK    4  A    between atoms: C_8  and  C_10
REMARK    5  A    between atoms: C_13  and  C_14
REMARK                            x       y       z     vdW  Elec       q    Type
REMARK                         _______ _______ _______ _____ _____    ______ ____
ROOT
ATOM      1  C   UNL     1      17.088  -9.453  27.832  0.00  0.00    +0.000 A 
ATOM      2  C   UNL     1      16.358 -10.628  28.029  0.00  0.00    +0.000 A 
ATOM      3  C   UNL     1      15.206 -10.791  27.258  0.00  0.00    +0.000 A 
ATOM      4  C   UNL     1      14.791  -9.870  26.352  0.00  0.00    +0.000 A 
ATOM      5  C   UNL     1      15.524  -8.731  26.179  0.00  0.00    +0.000 A 
ATOM      6  C   UNL     1      16.691  -8.501  26.920  0.00  0.00    +0.000 A 
ENDROOT
BRANCH   6   7
ATOM      7  C   UNL     1      17.470  -7.286  26.733  0.00  0.00    +0.000 A 
ATOM      8  C   UNL     1      18.653  -7.230  26.011  0.00  0.00    +0.000 A 
ATOM      9  C   UNL     1      19.103  -5.906  26.056  0.00  0.00    +0.000 A 
ATOM     10  N   UNL     1      20.285  -5.401  25.445  0.00  0.00    +0.000 NA
ATOM     11  O   UNL     1      18.217  -5.249  26.767  0.00  0.00    +0.000 OA
ATOM     12  N   UNL     1      17.262  -6.051  27.164  0.00  0.00    +0.000 NA
ENDBRANCH   6   7
BRANCH   4  13
ATOM     13  C   UNL     1      13.494 -10.106  25.505  0.00  0.00    +0.000 C 
ATOM     14  C   UNL     1      12.709 -10.972  26.654  0.00  0.00    +0.000 C 
BRANCH  13  15
ATOM     15  C   UNL     1      12.768  -8.699  25.928  0.00  0.00    +0.000 C 
ATOM     16  C   UNL     1      11.830  -9.064  27.071  0.00  0.00    +0.000 C 
ENDBRANCH  13  15
ENDBRANCH   4  13
BRANCH   1  17
ATOM     17  O   UNL     1      18.248  -9.236  28.575  0.00  0.00    +0.000 OA
BRANCH  17  19
ATOM     18  C   UNL     1      19.733  -9.705  30.436  0.00  0.00    +0.000 C 
ATOM     19  C   UNL     1      18.312  -9.680  29.914  0.00  0.00    +0.000 C 
ENDBRANCH  17  19
ENDBRANCH   1  17
TORSDOF 5
ENDMDL
