MODEL 1
REMARK VINA RESULT:      -8.4      0.000      0.000
REMARK  Name = 
REMARK  7 active torsions:
REMARK  status: ('A' for Active; 'I' for Inactive)
REMARK    1  A    between atoms: O_2  and  C_3
REMARK    2  A    between atoms: C_9  and  C_10
REMARK    3  A    between atoms: C_10  and  C_11
REMARK    4  A    between atoms: C_11  and  N_12
REMARK    5  A    between atoms: C_20  and  C_21
REMARK    6  A    between atoms: C_26  and  C_27
REMARK    7  A    between atoms: C_27  and  N_28
REMARK                            x       y       z     vdW  Elec       q    Type
REMARK                         _______ _______ _______ _____ _____    ______ ____
ROOT
ATOM      1  N   UNL     1      39.379   1.189  14.239  0.00  0.00    +0.000 NA
ATOM      2  C   UNL     1      40.043  -0.040  14.087  0.00  0.00    +0.000 A 
ATOM      3  N   UNL     1      40.976  -0.281  13.180  0.00  0.00    +0.000 NA
ATOM      4  C   UNL     1      41.667  -1.409  13.040  0.00  0.00    +0.000 A 
ATOM      5  N   UNL     1      41.418  -2.431  13.915  0.00  0.00    +0.000 NA
ATOM      6  C   UNL     1      40.472  -2.248  14.863  0.00  0.00    +0.000 A 
ATOM      7  C   UNL     1      40.111  -3.247  15.746  0.00  0.00    +0.000 A 
ATOM      8  C   UNL     1      39.121  -3.181  16.707  0.00  0.00    +0.000 A 
ATOM      9  C   UNL     1      38.443  -2.040  16.792  0.00  0.00    +0.000 A 
ATOM     10  C   UNL     1      38.783  -0.986  15.903  0.00  0.00    +0.000 A 
ATOM     11  C   UNL     1      39.756  -1.099  14.993  0.00  0.00    +0.000 A 
ENDROOT
BRANCH   9  12
ATOM     12  C   UNL     1      37.201  -1.683  17.525  0.00  0.00    +0.000 A 
ATOM     13  C   UNL     1      37.128  -1.072  18.717  0.00  0.00    +0.000 A 
ATOM     14  C   UNL     1      35.869  -0.552  19.138  0.00  0.00    +0.000 A 
ATOM     15  C   UNL     1      34.826  -0.711  18.312  0.00  0.00    +0.000 A 
ATOM     16  C   UNL     1      34.825  -1.327  17.092  0.00  0.00    +0.000 A 
ATOM     17  C   UNL     1      36.075  -1.843  16.688  0.00  0.00    +0.000 A 
BRANCH  17  18
ATOM     18  C   UNL     1      36.066  -2.711  15.591  0.00  0.00    +0.000 C 
BRANCH  18  19
ATOM     19  N   UNL     1      35.560  -3.862  15.238  0.00  0.00    +0.000 NA
ATOM     20  C   UNL     1      34.463  -4.296  14.546  0.00  0.00    +0.000 C 
ATOM     21  C   UNL     1      36.049  -5.023  16.071  0.00  0.00    +0.000 C 
ENDBRANCH  18  19
ENDBRANCH  17  18
ENDBRANCH   9  12
BRANCH   1  22
ATOM     22  C   UNL     1      39.471   2.403  13.492  0.00  0.00    +0.000 C 
BRANCH  22  23
ATOM     23  C   UNL     1      38.519   3.498  13.835  0.00  0.00    +0.000 C 
BRANCH  23  30
ATOM     24  C   UNL     1      40.494   6.074  16.888  0.00  0.00    +0.000 A 
ATOM     25  C   UNL     1      39.932   5.943  18.113  0.00  0.00    +0.000 A 
ATOM     26  C   UNL     1      38.895   5.151  18.410  0.00  0.00    +0.000 A 
ATOM     27  C   UNL     1      38.271   4.342  17.410  0.00  0.00    +0.000 A 
ATOM     28  N   UNL     1      37.290   3.455  17.334  0.00  0.00    +0.000 NA
ATOM     29  C   UNL     1      37.194   2.999  16.011  0.00  0.00    +0.000 A 
ATOM     30  C   UNL     1      38.151   3.599  15.258  0.00  0.00    +0.000 A 
ATOM     31  C   UNL     1      38.822   4.467  16.158  0.00  0.00    +0.000 A 
ATOM     32  C   UNL     1      39.892   5.285  15.876  0.00  0.00    +0.000 A 
BRANCH  24  34
ATOM     33  C   UNL     1      42.497   7.581  16.452  0.00  0.00    +0.000 C 
ATOM     34  O   UNL     1      41.507   6.795  16.564  0.00  0.00    +0.000 OA
ENDBRANCH  24  34
ENDBRANCH  23  30
ENDBRANCH  22  23
ENDBRANCH   1  22
TORSDOF 7
ENDMDL
MODEL 2
REMARK VINA RESULT:      -8.2      2.919      8.178
REMARK  Name = 
REMARK  7 active torsions:
REMARK  status: ('A' for Active; 'I' for Inactive)
REMARK    1  A    between atoms: O_2  and  C_3
REMARK    2  A    between atoms: C_9  and  C_10
REMARK    3  A    between atoms: C_10  and  C_11
REMARK    4  A    between atoms: C_11  and  N_12
REMARK    5  A    between atoms: C_20  and  C_21
REMARK    6  A    between atoms: C_26  and  C_27
REMARK    7  A    between atoms: C_27  and  N_28
REMARK                            x       y       z     vdW  Elec       q    Type
REMARK                         _______ _______ _______ _____ _____    ______ ____
ROOT
ATOM      1  N   UNL     1      36.003   2.502  16.574  0.00  0.00    +0.000 NA
ATOM      2  C   UNL     1      36.972   2.453  15.558  0.00  0.00    +0.000 A 
ATOM      3  N   UNL     1      36.996   1.555  14.588  0.00  0.00    +0.000 NA
ATOM      4  C   UNL     1      37.861   1.508  13.578  0.00  0.00    +0.000 A 
ATOM      5  N   UNL     1      38.822   2.480  13.505  0.00  0.00    +0.000 NA
ATOM      6  C   UNL     1      38.852   3.425  14.470  0.00  0.00    +0.000 A 
ATOM      7  C   UNL     1      39.825   4.405  14.511  0.00  0.00    +0.000 A 
ATOM      8  C   UNL     1      39.979   5.374  15.483  0.00  0.00    +0.000 A 
ATOM      9  C   UNL     1      39.103   5.365  16.483  0.00  0.00    +0.000 A 
ATOM     10  C   UNL     1      38.086   4.374  16.480  0.00  0.00    +0.000 A 
ATOM     11  C   UNL     1      37.977   3.460  15.511  0.00  0.00    +0.000 A 
ENDROOT
BRANCH   9  12
ATOM     12  C   UNL     1      39.082   6.086  17.783  0.00  0.00    +0.000 A 
ATOM     13  C   UNL     1      39.670   5.693  18.922  0.00  0.00    +0.000 A 
ATOM     14  C   UNL     1      39.792   6.634  19.985  0.00  0.00    +0.000 A 
ATOM     15  C   UNL     1      39.302   7.865  19.782  0.00  0.00    +0.000 A 
ATOM     16  C   UNL     1      38.685   8.332  18.654  0.00  0.00    +0.000 A 
ATOM     17  C   UNL     1      38.565   7.389  17.611  0.00  0.00    +0.000 A 
BRANCH  17  18
ATOM     18  C   UNL     1      37.709   7.731  16.558  0.00  0.00    +0.000 C 
BRANCH  18  19
ATOM     19  N   UNL     1      37.050   8.763  16.108  0.00  0.00    +0.000 NA
ATOM     20  C   UNL     1      35.943   9.476  16.480  0.00  0.00    +0.000 C 
ATOM     21  C   UNL     1      37.293   9.051  14.645  0.00  0.00    +0.000 C 
ENDBRANCH  18  19
ENDBRANCH  17  18
ENDBRANCH   9  12
BRANCH   1  22
ATOM     22  C   UNL     1      34.898   1.642  16.858  0.00  0.00    +0.000 C 
BRANCH  22  23
ATOM     23  C   UNL     1      35.081   0.183  16.618  0.00  0.00    +0.000 C 
BRANCH  23  30
ATOM     24  C   UNL     1      38.515  -2.486  15.647  0.00  0.00    +0.000 A 
ATOM     25  C   UNL     1      39.103  -2.992  16.758  0.00  0.00    +0.000 A 
ATOM     26  C   UNL     1      38.732  -2.734  18.017  0.00  0.00    +0.000 A 
ATOM     27  C   UNL     1      37.633  -1.866  18.303  0.00  0.00    +0.000 A 
ATOM     28  N   UNL     1      36.985  -1.418  19.368  0.00  0.00    +0.000 NA
ATOM     29  C   UNL     1      35.946  -0.576  18.944  0.00  0.00    +0.000 A 
ATOM     30  C   UNL     1      35.937  -0.521  17.588  0.00  0.00    +0.000 A 
ATOM     31  C   UNL     1      37.029  -1.336  17.189  0.00  0.00    +0.000 A 
ATOM     32  C   UNL     1      37.424  -1.617  15.902  0.00  0.00    +0.000 A 
BRANCH  24  34
ATOM     33  C   UNL     1      39.187  -2.762  13.209  0.00  0.00    +0.000 C 
ATOM     34  O   UNL     1      38.817  -2.729  14.422  0.00  0.00    +0.000 OA
ENDBRANCH  24  34
ENDBRANCH  23  30
ENDBRANCH  22  23
ENDBRANCH   1  22
TORSDOF 7
ENDMDL
MODEL 3
REMARK VINA RESULT:      -8.1      2.903      4.759
REMARK  Name = 
REMARK  7 active torsions:
REMARK  status: ('A' for Active; 'I' for Inactive)
REMARK    1  A    between atoms: O_2  and  C_3
REMARK    2  A    between atoms: C_9  and  C_10
REMARK    3  A    between atoms: C_10  and  C_11
REMARK    4  A    between atoms: C_11  and  N_12
REMARK    5  A    between atoms: C_20  and  C_21
REMARK    6  A    between atoms: C_26  and  C_27
REMARK    7  A    between atoms: C_27  and  N_28
REMARK                            x       y       z     vdW  Elec       q    Type
REMARK                         _______ _______ _______ _____ _____    ______ ____
ROOT
ATOM      1  N   UNL     1      38.728   3.939  16.169  0.00  0.00    +0.000 NA
ATOM      2  C   UNL     1      38.601   3.808  14.776  0.00  0.00    +0.000 A 
ATOM      3  N   UNL     1      39.051   4.688  13.897  0.00  0.00    +0.000 NA
ATOM      4  C   UNL     1      39.001   4.575  12.572  0.00  0.00    +0.000 A 
ATOM      5  N   UNL     1      38.449   3.441  12.041  0.00  0.00    +0.000 NA
ATOM      6  C   UNL     1      37.968   2.505  12.889  0.00  0.00    +0.000 A 
ATOM      7  C   UNL     1      37.337   1.360  12.441  0.00  0.00    +0.000 A 
ATOM      8  C   UNL     1      36.761   0.377  13.221  0.00  0.00    +0.000 A 
ATOM      9  C   UNL     1      36.816   0.547  14.538  0.00  0.00    +0.000 A 
ATOM     10  C   UNL     1      37.457   1.711  15.041  0.00  0.00    +0.000 A 
ATOM     11  C   UNL     1      38.005   2.631  14.242  0.00  0.00    +0.000 A 
ENDROOT
BRANCH   9  12
ATOM     12  C   UNL     1      36.135  -0.160  15.654  0.00  0.00    +0.000 A 
ATOM     13  C   UNL     1      35.157   0.330  16.429  0.00  0.00    +0.000 A 
ATOM     14  C   UNL     1      34.426  -0.573  17.255  0.00  0.00    +0.000 A 
ATOM     15  C   UNL     1      34.768  -1.868  17.210  0.00  0.00    +0.000 A 
ATOM     16  C   UNL     1      35.756  -2.435  16.454  0.00  0.00    +0.000 A 
ATOM     17  C   UNL     1      36.476  -1.531  15.645  0.00  0.00    +0.000 A 
BRANCH  17  18
ATOM     18  C   UNL     1      37.658  -2.013  15.071  0.00  0.00    +0.000 C 
BRANCH  18  19
ATOM     19  N   UNL     1      38.852  -2.399  15.431  0.00  0.00    +0.000 NA
ATOM     20  C   UNL     1      39.388  -3.191  16.409  0.00  0.00    +0.000 C 
ATOM     21  C   UNL     1      39.959  -1.507  14.923  0.00  0.00    +0.000 C 
ENDBRANCH  18  19
ENDBRANCH  17  18
ENDBRANCH   9  12
BRANCH   1  22
ATOM     22  C   UNL     1      39.278   4.989  16.967  0.00  0.00    +0.000 C 
BRANCH  22  23
ATOM     23  C   UNL     1      38.924   5.013  18.415  0.00  0.00    +0.000 C 
BRANCH  23  30
ATOM     24  C   UNL     1      37.164   9.074  18.929  0.00  0.00    +0.000 A 
ATOM     25  C   UNL     1      37.938   9.876  19.699  0.00  0.00    +0.000 A 
ATOM     26  C   UNL     1      39.097   9.523  20.267  0.00  0.00    +0.000 A 
ATOM     27  C   UNL     1      39.636   8.210  20.096  0.00  0.00    +0.000 A 
ATOM     28  N   UNL     1      40.716   7.535  20.460  0.00  0.00    +0.000 NA
ATOM     29  C   UNL     1      40.642   6.241  19.924  0.00  0.00    +0.000 A 
ATOM     30  C   UNL     1      39.504   6.120  19.194  0.00  0.00    +0.000 A 
ATOM     31  C   UNL     1      38.861   7.379  19.325  0.00  0.00    +0.000 A 
ATOM     32  C   UNL     1      37.673   7.764  18.746  0.00  0.00    +0.000 A 
BRANCH  24  34
ATOM     33  C   UNL     1      35.097   9.831  17.652  0.00  0.00    +0.000 C 
ATOM     34  O   UNL     1      36.064   9.379  18.340  0.00  0.00    +0.000 OA
ENDBRANCH  24  34
ENDBRANCH  23  30
ENDBRANCH  22  23
ENDBRANCH   1  22
TORSDOF 7
ENDMDL
MODEL 4
REMARK VINA RESULT:      -8.1      3.126      5.808
REMARK  Name = 
REMARK  7 active torsions:
REMARK  status: ('A' for Active; 'I' for Inactive)
REMARK    1  A    between atoms: O_2  and  C_3
REMARK    2  A    between atoms: C_9  and  C_10
REMARK    3  A    between atoms: C_10  and  C_11
REMARK    4  A    between atoms: C_11  and  N_12
REMARK    5  A    between atoms: C_20  and  C_21
REMARK    6  A    between atoms: C_26  and  C_27
REMARK    7  A    between atoms: C_27  and  N_28
REMARK                            x       y       z     vdW  Elec       q    Type
REMARK                         _______ _______ _______ _____ _____    ______ ____
ROOT
ATOM      1  N   UNL     1      38.775   4.737  17.164  0.00  0.00    +0.000 NA
ATOM      2  C   UNL     1      37.802   4.966  16.176  0.00  0.00    +0.000 A 
ATOM      3  N   UNL     1      37.636   6.112  15.538  0.00  0.00    +0.000 NA
ATOM      4  C   UNL     1      36.767   6.352  14.559  0.00  0.00    +0.000 A 
ATOM      5  N   UNL     1      35.964   5.324  14.143  0.00  0.00    +0.000 NA
ATOM      6  C   UNL     1      36.084   4.127  14.759  0.00  0.00    +0.000 A 
ATOM      7  C   UNL     1      35.271   3.055  14.448  0.00  0.00    +0.000 A 
ATOM      8  C   UNL     1      35.271   1.815  15.057  0.00  0.00    +0.000 A 
ATOM      9  C   UNL     1      36.143   1.633  16.045  0.00  0.00    +0.000 A 
ATOM     10  C   UNL     1      36.998   2.710  16.396  0.00  0.00    +0.000 A 
ATOM     11  C   UNL     1      36.961   3.891  15.771  0.00  0.00    +0.000 A 
ENDROOT
BRANCH   9  12
ATOM     12  C   UNL     1      36.281   0.547  17.050  0.00  0.00    +0.000 A 
ATOM     13  C   UNL     1      35.688   0.493  18.251  0.00  0.00    +0.000 A 
ATOM     14  C   UNL     1      35.702  -0.742  18.962  0.00  0.00    +0.000 A 
ATOM     15  C   UNL     1      36.317  -1.783  18.384  0.00  0.00    +0.000 A 
ATOM     16  C   UNL     1      36.948  -1.798  17.170  0.00  0.00    +0.000 A 
ATOM     17  C   UNL     1      36.932  -0.568  16.479  0.00  0.00    +0.000 A 
BRANCH  17  18
ATOM     18  C   UNL     1      37.789  -0.462  15.377  0.00  0.00    +0.000 C 
BRANCH  18  19
ATOM     19  N   UNL     1      39.028  -0.152  15.108  0.00  0.00    +0.000 NA
ATOM     20  C   UNL     1      39.690   0.911  14.557  0.00  0.00    +0.000 C 
ATOM     21  C   UNL     1      39.948  -1.345  15.015  0.00  0.00    +0.000 C 
ENDBRANCH  18  19
ENDBRANCH  17  18
ENDBRANCH   9  12
BRANCH   1  22
ATOM     22  C   UNL     1      39.738   5.614  17.751  0.00  0.00    +0.000 C 
BRANCH  22  23
ATOM     23  C   UNL     1      39.519   6.033  19.164  0.00  0.00    +0.000 C 
BRANCH  23  30
ATOM     24  C   UNL     1      43.433   6.459  21.251  0.00  0.00    +0.000 A 
ATOM     25  C   UNL     1      43.752   7.755  21.486  0.00  0.00    +0.000 A 
ATOM     26  C   UNL     1      43.009   8.812  21.138  0.00  0.00    +0.000 A 
ATOM     27  C   UNL     1      41.761   8.649  20.459  0.00  0.00    +0.000 A 
ATOM     28  N   UNL     1      40.784   9.417  20.002  0.00  0.00    +0.000 NA
ATOM     29  C   UNL     1      39.796   8.600  19.432  0.00  0.00    +0.000 A 
ATOM     30  C   UNL     1      40.160   7.298  19.561  0.00  0.00    +0.000 A 
ATOM     31  C   UNL     1      41.425   7.343  20.204  0.00  0.00    +0.000 A 
ATOM     32  C   UNL     1      42.202   6.269  20.574  0.00  0.00    +0.000 A 
BRANCH  24  34
ATOM     33  C   UNL     1      44.850   4.515  22.079  0.00  0.00    +0.000 C 
ATOM     34  O   UNL     1      44.098   5.415  21.594  0.00  0.00    +0.000 OA
ENDBRANCH  24  34
ENDBRANCH  23  30
ENDBRANCH  22  23
ENDBRANCH   1  22
TORSDOF 7
ENDMDL
MODEL 5
REMARK VINA RESULT:      -8.1      3.105      8.211
REMARK  Name = 
REMARK  7 active torsions:
REMARK  status: ('A' for Active; 'I' for Inactive)
REMARK    1  A    between atoms: O_2  and  C_3
REMARK    2  A    between atoms: C_9  and  C_10
REMARK    3  A    between atoms: C_10  and  C_11
REMARK    4  A    between atoms: C_11  and  N_12
REMARK    5  A    between atoms: C_20  and  C_21
REMARK    6  A    between atoms: C_26  and  C_27
REMARK    7  A    between atoms: C_27  and  N_28
REMARK                            x       y       z     vdW  Elec       q    Type
REMARK                         _______ _______ _______ _____ _____    ______ ____
ROOT
ATOM      1  N   UNL     1      35.878   1.104  16.525  0.00  0.00    +0.000 NA
ATOM      2  C   UNL     1      36.837   0.940  15.512  0.00  0.00    +0.000 A 
ATOM      3  N   UNL     1      36.941  -0.132  14.744  0.00  0.00    +0.000 NA
ATOM      4  C   UNL     1      37.796  -0.303  13.739  0.00  0.00    +0.000 A 
ATOM      5  N   UNL     1      38.654   0.720  13.441  0.00  0.00    +0.000 NA
ATOM      6  C   UNL     1      38.600   1.842  14.192  0.00  0.00    +0.000 A 
ATOM      7  C   UNL     1      39.471   2.898  14.002  0.00  0.00    +0.000 A 
ATOM      8  C   UNL     1      39.537   4.057  14.751  0.00  0.00    +0.000 A 
ATOM      9  C   UNL     1      38.676   4.170  15.758  0.00  0.00    +0.000 A 
ATOM     10  C   UNL     1      37.763   3.107  15.987  0.00  0.00    +0.000 A 
ATOM     11  C   UNL     1      37.736   2.008  15.229  0.00  0.00    +0.000 A 
ENDROOT
BRANCH   9  12
ATOM     12  C   UNL     1      38.596   5.138  16.883  0.00  0.00    +0.000 A 
ATOM     13  C   UNL     1      38.973   4.919  18.151  0.00  0.00    +0.000 A 
ATOM     14  C   UNL     1      39.095   6.036  19.028  0.00  0.00    +0.000 A 
ATOM     15  C   UNL     1      38.817   7.248  18.528  0.00  0.00    +0.000 A 
ATOM     16  C   UNL     1      38.421   7.545  17.253  0.00  0.00    +0.000 A 
ATOM     17  C   UNL     1      38.299   6.430  16.397  0.00  0.00    +0.000 A 
BRANCH  17  18
ATOM     18  C   UNL     1      37.640   6.648  15.181  0.00  0.00    +0.000 C 
BRANCH  18  19
ATOM     19  N   UNL     1      36.429   6.650  14.693  0.00  0.00    +0.000 NA
ATOM     20  C   UNL     1      35.657   5.804  13.945  0.00  0.00    +0.000 C 
ATOM     21  C   UNL     1      35.823   8.028  14.575  0.00  0.00    +0.000 C 
ENDBRANCH  18  19
ENDBRANCH  17  18
ENDBRANCH   9  12
BRANCH   1  22
ATOM     22  C   UNL     1      34.867   0.220  17.012  0.00  0.00    +0.000 C 
BRANCH  22  23
ATOM     23  C   UNL     1      35.139  -0.502  18.287  0.00  0.00    +0.000 C 
BRANCH  23  30
ATOM     24  C   UNL     1      35.690  -4.212  15.880  0.00  0.00    +0.000 A 
ATOM     25  C   UNL     1      36.892  -4.796  16.103  0.00  0.00    +0.000 A 
ATOM     26  C   UNL     1      37.835  -4.336  16.934  0.00  0.00    +0.000 A 
ATOM     27  C   UNL     1      37.639  -3.137  17.687  0.00  0.00    +0.000 A 
ATOM     28  N   UNL     1      38.298  -2.422  18.586  0.00  0.00    +0.000 NA
ATOM     29  C   UNL     1      37.509  -1.322  18.955  0.00  0.00    +0.000 A 
ATOM     30  C   UNL     1      36.328  -1.371  18.287  0.00  0.00    +0.000 A 
ATOM     31  C   UNL     1      36.429  -2.526  17.467  0.00  0.00    +0.000 A 
ATOM     32  C   UNL     1      35.471  -3.018  16.611  0.00  0.00    +0.000 A 
BRANCH  24  34
ATOM     33  C   UNL     1      33.782  -4.836  14.317  0.00  0.00    +0.000 C 
ATOM     34  O   UNL     1      34.745  -4.632  15.118  0.00  0.00    +0.000 OA
ENDBRANCH  24  34
ENDBRANCH  23  30
ENDBRANCH  22  23
ENDBRANCH   1  22
TORSDOF 7
ENDMDL
MODEL 6
REMARK VINA RESULT:      -8.0      2.875      5.078
REMARK  Name = 
REMARK  7 active torsions:
REMARK  status: ('A' for Active; 'I' for Inactive)
REMARK    1  A    between atoms: O_2  and  C_3
REMARK    2  A    between atoms: C_9  and  C_10
REMARK    3  A    between atoms: C_10  and  C_11
REMARK    4  A    between atoms: C_11  and  N_12
REMARK    5  A    between atoms: C_20  and  C_21
REMARK    6  A    between atoms: C_26  and  C_27
REMARK    7  A    between atoms: C_27  and  N_28
REMARK                            x       y       z     vdW  Elec       q    Type
REMARK                         _______ _______ _______ _____ _____    ______ ____
ROOT
ATOM      1  N   UNL     1      38.202   3.530  16.491  0.00  0.00    +0.000 NA
ATOM      2  C   UNL     1      37.652   3.633  15.202  0.00  0.00    +0.000 A 
ATOM      3  N   UNL     1      37.134   4.738  14.694  0.00  0.00    +0.000 NA
ATOM      4  C   UNL     1      36.656   4.892  13.462  0.00  0.00    +0.000 A 
ATOM      5  N   UNL     1      36.707   3.821  12.612  0.00  0.00    +0.000 NA
ATOM      6  C   UNL     1      37.223   2.660  13.073  0.00  0.00    +0.000 A 
ATOM      7  C   UNL     1      37.255   1.512  12.306  0.00  0.00    +0.000 A 
ATOM      8  C   UNL     1      37.703   0.267  12.702  0.00  0.00    +0.000 A 
ATOM      9  C   UNL     1      38.149   0.159  13.950  0.00  0.00    +0.000 A 
ATOM     10  C   UNL     1      38.135   1.316  14.773  0.00  0.00    +0.000 A 
ATOM     11  C   UNL     1      37.695   2.501  14.339  0.00  0.00    +0.000 A 
ENDROOT
BRANCH   9  12
ATOM     12  C   UNL     1      38.492  -1.027  14.777  0.00  0.00    +0.000 A 
ATOM     13  C   UNL     1      39.655  -1.695  14.769  0.00  0.00    +0.000 A 
ATOM     14  C   UNL     1      39.914  -2.622  15.820  0.00  0.00    +0.000 A 
ATOM     15  C   UNL     1      38.968  -2.776  16.757  0.00  0.00    +0.000 A 
ATOM     16  C   UNL     1      37.760  -2.138  16.824  0.00  0.00    +0.000 A 
ATOM     17  C   UNL     1      37.513  -1.227  15.775  0.00  0.00    +0.000 A 
BRANCH  17  18
ATOM     18  C   UNL     1      36.198  -0.764  15.649  0.00  0.00    +0.000 C 
BRANCH  18  19
ATOM     19  N   UNL     1      35.282  -0.168  16.363  0.00  0.00    +0.000 NA
ATOM     20  C   UNL     1      35.064   1.092  16.850  0.00  0.00    +0.000 C 
ATOM     21  C   UNL     1      34.437  -1.114  17.181  0.00  0.00    +0.000 C 
ENDBRANCH  18  19
ENDBRANCH  17  18
ENDBRANCH   9  12
BRANCH   1  22
ATOM     22  C   UNL     1      38.300   4.486  17.548  0.00  0.00    +0.000 C 
BRANCH  22  23
ATOM     23  C   UNL     1      39.466   5.414  17.532  0.00  0.00    +0.000 C 
BRANCH  23  30
ATOM     24  C   UNL     1      37.041   8.884  18.926  0.00  0.00    +0.000 A 
ATOM     25  C   UNL     1      37.494   9.389  20.099  0.00  0.00    +0.000 A 
ATOM     26  C   UNL     1      38.536   8.920  20.795  0.00  0.00    +0.000 A 
ATOM     27  C   UNL     1      39.292   7.799  20.332  0.00  0.00    +0.000 A 
ATOM     28  N   UNL     1      40.353   7.103  20.713  0.00  0.00    +0.000 NA
ATOM     29  C   UNL     1      40.597   6.097  19.767  0.00  0.00    +0.000 A 
ATOM     30  C   UNL     1      39.682   6.187  18.768  0.00  0.00    +0.000 A 
ATOM     31  C   UNL     1      38.843   7.267  19.148  0.00  0.00    +0.000 A 
ATOM     32  C   UNL     1      37.771   7.767  18.446  0.00  0.00    +0.000 A 
BRANCH  24  34
ATOM     33  C   UNL     1      35.050   9.863  17.682  0.00  0.00    +0.000 C 
ATOM     34  O   UNL     1      36.068   9.319  18.210  0.00  0.00    +0.000 OA
ENDBRANCH  24  34
ENDBRANCH  23  30
ENDBRANCH  22  23
ENDBRANCH   1  22
TORSDOF 7
ENDMDL
MODEL 7
REMARK VINA RESULT:      -8.0      1.989      6.536
REMARK  Name = 
REMARK  7 active torsions:
REMARK  status: ('A' for Active; 'I' for Inactive)
REMARK    1  A    between atoms: O_2  and  C_3
REMARK    2  A    between atoms: C_9  and  C_10
REMARK    3  A    between atoms: C_10  and  C_11
REMARK    4  A    between atoms: C_11  and  N_12
REMARK    5  A    between atoms: C_20  and  C_21
REMARK    6  A    between atoms: C_26  and  C_27
REMARK    7  A    between atoms: C_27  and  N_28
REMARK                            x       y       z     vdW  Elec       q    Type
REMARK                         _______ _______ _______ _____ _____    ______ ____
ROOT
ATOM      1  N   UNL     1      39.746  -1.978  15.363  0.00  0.00    +0.000 NA
ATOM      2  C   UNL     1      40.706  -1.135  14.777  0.00  0.00    +0.000 A 
ATOM      3  N   UNL     1      41.974  -1.461  14.586  0.00  0.00    +0.000 NA
ATOM      4  C   UNL     1      42.898  -0.716  13.986  0.00  0.00    +0.000 A 
ATOM      5  N   UNL     1      42.523   0.506  13.495  0.00  0.00    +0.000 NA
ATOM      6  C   UNL     1      41.241   0.898  13.662  0.00  0.00    +0.000 A 
ATOM      7  C   UNL     1      40.793   2.140  13.257  0.00  0.00    +0.000 A 
ATOM      8  C   UNL     1      39.524   2.658  13.435  0.00  0.00    +0.000 A 
ATOM      9  C   UNL     1      38.643   1.883  14.061  0.00  0.00    +0.000 A 
ATOM     10  C   UNL     1      39.063   0.598  14.494  0.00  0.00    +0.000 A 
ATOM     11  C   UNL     1      40.303   0.141  14.292  0.00  0.00    +0.000 A 
ENDROOT
BRANCH   9  12
ATOM     12  C   UNL     1      37.294   2.171  14.614  0.00  0.00    +0.000 A 
ATOM     13  C   UNL     1      36.151   1.550  14.289  0.00  0.00    +0.000 A 
ATOM     14  C   UNL     1      35.007   1.754  15.116  0.00  0.00    +0.000 A 
ATOM     15  C   UNL     1      35.145   2.565  16.174  0.00  0.00    +0.000 A 
ATOM     16  C   UNL     1      36.273   3.236  16.559  0.00  0.00    +0.000 A 
ATOM     17  C   UNL     1      37.396   3.031  15.730  0.00  0.00    +0.000 A 
BRANCH  17  18
ATOM     18  C   UNL     1      38.478   3.898  15.920  0.00  0.00    +0.000 C 
BRANCH  18  19
ATOM     19  N   UNL     1      39.050   4.578  16.876  0.00  0.00    +0.000 NA
ATOM     20  C   UNL     1      38.814   4.824  18.201  0.00  0.00    +0.000 C 
ATOM     21  C   UNL     1      39.976   5.663  16.381  0.00  0.00    +0.000 C 
ENDBRANCH  18  19
ENDBRANCH  17  18
ENDBRANCH   9  12
BRANCH   1  22
ATOM     22  C   UNL     1      39.865  -3.287  15.922  0.00  0.00    +0.000 C 
BRANCH  22  23
ATOM     23  C   UNL     1      38.963  -3.636  17.057  0.00  0.00    +0.000 C 
BRANCH  23  30
ATOM     24  C   UNL     1      36.157  -0.404  18.297  0.00  0.00    +0.000 A 
ATOM     25  C   UNL     1      34.889  -0.638  17.884  0.00  0.00    +0.000 A 
ATOM     26  C   UNL     1      34.487  -1.699  17.175  0.00  0.00    +0.000 A 
ATOM     27  C   UNL     1      35.409  -2.718  16.779  0.00  0.00    +0.000 A 
ATOM     28  N   UNL     1      35.380  -3.871  16.129  0.00  0.00    +0.000 NA
ATOM     29  C   UNL     1      36.676  -4.406  16.100  0.00  0.00    +0.000 A 
ATOM     30  C   UNL     1      37.520  -3.577  16.766  0.00  0.00    +0.000 A 
ATOM     31  C   UNL     1      36.703  -2.493  17.182  0.00  0.00    +0.000 A 
ATOM     32  C   UNL     1      37.094  -1.397  17.915  0.00  0.00    +0.000 A 
BRANCH  24  34
ATOM     33  C   UNL     1      37.195   1.512  19.611  0.00  0.00    +0.000 C 
ATOM     34  O   UNL     1      36.581   0.581  19.004  0.00  0.00    +0.000 OA
ENDBRANCH  24  34
ENDBRANCH  23  30
ENDBRANCH  22  23
ENDBRANCH   1  22
TORSDOF 7
ENDMDL
MODEL 8
REMARK VINA RESULT:      -7.9      2.889      5.759
REMARK  Name = 
REMARK  7 active torsions:
REMARK  status: ('A' for Active; 'I' for Inactive)
REMARK    1  A    between atoms: O_2  and  C_3
REMARK    2  A    between atoms: C_9  and  C_10
REMARK    3  A    between atoms: C_10  and  C_11
REMARK    4  A    between atoms: C_11  and  N_12
REMARK    5  A    between atoms: C_20  and  C_21
REMARK    6  A    between atoms: C_26  and  C_27
REMARK    7  A    between atoms: C_27  and  N_28
REMARK                            x       y       z     vdW  Elec       q    Type
REMARK                         _______ _______ _______ _____ _____    ______ ____
ROOT
ATOM      1  N   UNL     1      38.351   3.536  16.413  0.00  0.00    +0.000 NA
ATOM      2  C   UNL     1      37.274   2.898  15.775  0.00  0.00    +0.000 A 
ATOM      3  N   UNL     1      36.001   3.100  16.070  0.00  0.00    +0.000 NA
ATOM      4  C   UNL     1      34.952   2.561  15.453  0.00  0.00    +0.000 A 
ATOM      5  N   UNL     1      35.187   1.722  14.397  0.00  0.00    +0.000 NA
ATOM      6  C   UNL     1      36.468   1.472  14.048  0.00  0.00    +0.000 A 
ATOM      7  C   UNL     1      36.798   0.589  13.039  0.00  0.00    +0.000 A 
ATOM      8  C   UNL     1      38.070   0.221  12.647  0.00  0.00    +0.000 A 
ATOM      9  C   UNL     1      39.084   0.770  13.310  0.00  0.00    +0.000 A 
ATOM     10  C   UNL     1      38.789   1.684  14.356  0.00  0.00    +0.000 A 
ATOM     11  C   UNL     1      37.538   2.012  14.692  0.00  0.00    +0.000 A 
ENDROOT
BRANCH   9  12
ATOM     12  C   UNL     1      40.537   0.460  13.323  0.00  0.00    +0.000 A 
ATOM     13  C   UNL     1      41.513   1.195  12.772  0.00  0.00    +0.000 A 
ATOM     14  C   UNL     1      42.864   0.905  13.122  0.00  0.00    +0.000 A 
ATOM     15  C   UNL     1      43.079  -0.098  13.985  0.00  0.00    +0.000 A 
ATOM     16  C   UNL     1      42.136  -0.891  14.578  0.00  0.00    +0.000 A 
ATOM     17  C   UNL     1      40.803  -0.599  14.219  0.00  0.00    +0.000 A 
BRANCH  17  18
ATOM     18  C   UNL     1      39.839  -1.546  14.579  0.00  0.00    +0.000 C 
BRANCH  18  19
ATOM     19  N   UNL     1      39.333  -2.093  15.651  0.00  0.00    +0.000 NA
ATOM     20  C   UNL     1      39.441  -3.291  16.302  0.00  0.00    +0.000 C 
ATOM     21  C   UNL     1      38.049  -1.448  16.115  0.00  0.00    +0.000 C 
ENDBRANCH  18  19
ENDBRANCH  17  18
ENDBRANCH   9  12
BRANCH   1  22
ATOM     22  C   UNL     1      38.381   4.459  17.503  0.00  0.00    +0.000 C 
BRANCH  22  23
ATOM     23  C   UNL     1      39.397   5.549  17.456  0.00  0.00    +0.000 C 
BRANCH  23  30
ATOM     24  C   UNL     1      37.052   9.022  18.973  0.00  0.00    +0.000 A 
ATOM     25  C   UNL     1      37.508   9.467  20.169  0.00  0.00    +0.000 A 
ATOM     26  C   UNL     1      38.532   8.943  20.852  0.00  0.00    +0.000 A 
ATOM     27  C   UNL     1      39.263   7.822  20.348  0.00  0.00    +0.000 A 
ATOM     28  N   UNL     1      40.302   7.084  20.708  0.00  0.00    +0.000 NA
ATOM     29  C   UNL     1      40.528   6.111  19.723  0.00  0.00    +0.000 A 
ATOM     30  C   UNL     1      39.623   6.265  18.723  0.00  0.00    +0.000 A 
ATOM     31  C   UNL     1      38.809   7.351  19.141  0.00  0.00    +0.000 A 
ATOM     32  C   UNL     1      37.755   7.907  18.453  0.00  0.00    +0.000 A 
BRANCH  24  34
ATOM     33  C   UNL     1      35.060   9.794  17.592  0.00  0.00    +0.000 C 
ATOM     34  O   UNL     1      36.095   9.510  18.269  0.00  0.00    +0.000 OA
ENDBRANCH  24  34
ENDBRANCH  23  30
ENDBRANCH  22  23
ENDBRANCH   1  22
TORSDOF 7
ENDMDL
MODEL 9
REMARK VINA RESULT:      -7.9      2.846      5.272
REMARK  Name = 
REMARK  7 active torsions:
REMARK  status: ('A' for Active; 'I' for Inactive)
REMARK    1  A    between atoms: O_2  and  C_3
REMARK    2  A    between atoms: C_9  and  C_10
REMARK    3  A    between atoms: C_10  and  C_11
REMARK    4  A    between atoms: C_11  and  N_12
REMARK    5  A    between atoms: C_20  and  C_21
REMARK    6  A    between atoms: C_26  and  C_27
REMARK    7  A    between atoms: C_27  and  N_28
REMARK                            x       y       z     vdW  Elec       q    Type
REMARK                         _______ _______ _______ _____ _____    ______ ____
ROOT
ATOM      1  N   UNL     1      38.873   3.836  16.150  0.00  0.00    +0.000 NA
ATOM      2  C   UNL     1      38.109   3.730  14.976  0.00  0.00    +0.000 A 
ATOM      3  N   UNL     1      37.619   4.760  14.305  0.00  0.00    +0.000 NA
ATOM      4  C   UNL     1      36.941   4.705  13.161  0.00  0.00    +0.000 A 
ATOM      5  N   UNL     1      36.728   3.477  12.596  0.00  0.00    +0.000 NA
ATOM      6  C   UNL     1      37.200   2.385  13.236  0.00  0.00    +0.000 A 
ATOM      7  C   UNL     1      36.975   1.104  12.771  0.00  0.00    +0.000 A 
ATOM      8  C   UNL     1      37.361  -0.074  13.380  0.00  0.00    +0.000 A 
ATOM      9  C   UNL     1      38.016   0.033  14.532  0.00  0.00    +0.000 A 
ATOM     10  C   UNL     1      38.269   1.332  15.046  0.00  0.00    +0.000 A 
ATOM     11  C   UNL     1      37.878   2.443  14.414  0.00  0.00    +0.000 A 
ENDROOT
BRANCH   9  12
ATOM     12  C   UNL     1      38.384  -0.980  15.556  0.00  0.00    +0.000 A 
ATOM     13  C   UNL     1      37.661  -1.323  16.632  0.00  0.00    +0.000 A 
ATOM     14  C   UNL     1      38.021  -2.503  17.346  0.00  0.00    +0.000 A 
ATOM     15  C   UNL     1      39.073  -3.202  16.896  0.00  0.00    +0.000 A 
ATOM     16  C   UNL     1      39.857  -2.909  15.814  0.00  0.00    +0.000 A 
ATOM     17  C   UNL     1      39.495  -1.735  15.120  0.00  0.00    +0.000 A 
BRANCH  17  18
ATOM     18  C   UNL     1      40.420  -1.252  14.188  0.00  0.00    +0.000 C 
BRANCH  18  19
ATOM     19  N   UNL     1      40.896  -1.553  13.011  0.00  0.00    +0.000 NA
ATOM     20  C   UNL     1      41.850  -1.056  12.167  0.00  0.00    +0.000 C 
ATOM     21  C   UNL     1      39.968  -2.408  12.181  0.00  0.00    +0.000 C 
ENDBRANCH  18  19
ENDBRANCH  17  18
ENDBRANCH   9  12
BRANCH   1  22
ATOM     22  C   UNL     1      39.258   4.977  16.919  0.00  0.00    +0.000 C 
BRANCH  22  23
ATOM     23  C   UNL     1      38.879   4.998  18.360  0.00  0.00    +0.000 C 
BRANCH  23  30
ATOM     24  C   UNL     1      37.149   9.071  18.885  0.00  0.00    +0.000 A 
ATOM     25  C   UNL     1      37.920   9.860  19.671  0.00  0.00    +0.000 A 
ATOM     26  C   UNL     1      39.068   9.491  20.251  0.00  0.00    +0.000 A 
ATOM     27  C   UNL     1      39.598   8.175  20.076  0.00  0.00    +0.000 A 
ATOM     28  N   UNL     1      40.667   7.487  20.448  0.00  0.00    +0.000 NA
ATOM     29  C   UNL     1      40.589   6.198  19.901  0.00  0.00    +0.000 A 
ATOM     30  C   UNL     1      39.459   6.093  19.156  0.00  0.00    +0.000 A 
ATOM     31  C   UNL     1      38.825   7.357  19.288  0.00  0.00    +0.000 A 
ATOM     32  C   UNL     1      37.648   7.757  18.698  0.00  0.00    +0.000 A 
BRANCH  24  34
ATOM     33  C   UNL     1      35.097   9.878  17.616  0.00  0.00    +0.000 C 
ATOM     34  O   UNL     1      36.059   9.390  18.285  0.00  0.00    +0.000 OA
ENDBRANCH  24  34
ENDBRANCH  23  30
ENDBRANCH  22  23
ENDBRANCH   1  22
TORSDOF 7
ENDMDL
MODEL 10
REMARK VINA RESULT:      -7.7     26.334     29.695
REMARK  Name = 
REMARK  7 active torsions:
REMARK  status: ('A' for Active; 'I' for Inactive)
REMARK    1  A    between atoms: O_2  and  C_3
REMARK    2  A    between atoms: C_9  and  C_10
REMARK    3  A    between atoms: C_10  and  C_11
REMARK    4  A    between atoms: C_11  and  N_12
REMARK    5  A    between atoms: C_20  and  C_21
REMARK    6  A    between atoms: C_26  and  C_27
REMARK    7  A    between atoms: C_27  and  N_28
REMARK                            x       y       z     vdW  Elec       q    Type
REMARK                         _______ _______ _______ _____ _____    ______ ____
ROOT
ATOM      1  N   UNL     1      25.682  14.388  38.847  0.00  0.00    +0.000 NA
ATOM      2  C   UNL     1      25.274  14.545  40.182  0.00  0.00    +0.000 A 
ATOM      3  N   UNL     1      24.425  15.468  40.602  0.00  0.00    +0.000 NA
ATOM      4  C   UNL     1      23.970  15.614  41.844  0.00  0.00    +0.000 A 
ATOM      5  N   UNL     1      24.397  14.728  42.796  0.00  0.00    +0.000 NA
ATOM      6  C   UNL     1      25.269  13.763  42.429  0.00  0.00    +0.000 A 
ATOM      7  C   UNL     1      25.800  12.868  43.337  0.00  0.00    +0.000 A 
ATOM      8  C   UNL     1      26.739  11.888  43.076  0.00  0.00    +0.000 A 
ATOM      9  C   UNL     1      27.179  11.797  41.825  0.00  0.00    +0.000 A 
ATOM     10  C   UNL     1      26.658  12.699  40.860  0.00  0.00    +0.000 A 
ATOM     11  C   UNL     1      25.745  13.627  41.163  0.00  0.00    +0.000 A 
ENDROOT
BRANCH   9  12
ATOM     12  C   UNL     1      28.312  11.042  41.230  0.00  0.00    +0.000 A 
ATOM     13  C   UNL     1      29.459  11.560  40.767  0.00  0.00    +0.000 A 
ATOM     14  C   UNL     1      30.545  10.677  40.497  0.00  0.00    +0.000 A 
ATOM     15  C   UNL     1      30.350   9.370  40.721  0.00  0.00    +0.000 A 
ATOM     16  C   UNL     1      29.211   8.773  41.182  0.00  0.00    +0.000 A 
ATOM     17  C   UNL     1      28.141   9.656  41.440  0.00  0.00    +0.000 A 
BRANCH  17  18
ATOM     18  C   UNL     1      26.886   9.072  41.646  0.00  0.00    +0.000 C 
BRANCH  18  19
ATOM     19  N   UNL     1      26.218   8.457  42.583  0.00  0.00    +0.000 NA
ATOM     20  C   UNL     1      24.902   8.259  42.900  0.00  0.00    +0.000 C 
ATOM     21  C   UNL     1      27.020   8.207  43.838  0.00  0.00    +0.000 C 
ENDBRANCH  18  19
ENDBRANCH  17  18
ENDBRANCH   9  12
BRANCH   1  22
ATOM     22  C   UNL     1      25.371  15.144  37.676  0.00  0.00    +0.000 C 
BRANCH  22  23
ATOM     23  C   UNL     1      26.496  15.499  36.764  0.00  0.00    +0.000 C 
BRANCH  23  30
ATOM     24  C   UNL     1      24.450  18.480  34.160  0.00  0.00    +0.000 A 
ATOM     25  C   UNL     1      24.339  18.053  32.879  0.00  0.00    +0.000 A 
ATOM     26  C   UNL     1      24.789  16.884  32.409  0.00  0.00    +0.000 A 
ATOM     27  C   UNL     1      25.452  15.949  33.263  0.00  0.00    +0.000 A 
ATOM     28  N   UNL     1      25.984  14.739  33.171  0.00  0.00    +0.000 NA
ATOM     29  C   UNL     1      26.475  14.364  34.430  0.00  0.00    +0.000 A 
ATOM     30  C   UNL     1      26.221  15.353  35.325  0.00  0.00    +0.000 A 
ATOM     31  C   UNL     1      25.582  16.368  34.564  0.00  0.00    +0.000 A 
ATOM     32  C   UNL     1      25.108  17.573  35.028  0.00  0.00    +0.000 A 
BRANCH  24  34
ATOM     33  C   UNL     1      23.732  20.755  35.044  0.00  0.00    +0.000 C 
ATOM     34  O   UNL     1      24.006  19.577  34.661  0.00  0.00    +0.000 OA
ENDBRANCH  24  34
ENDBRANCH  23  30
ENDBRANCH  22  23
ENDBRANCH   1  22
TORSDOF 7
ENDMDL
