MODEL 1
REMARK VINA RESULT:      -7.0      0.000      0.000
REMARK  Name = 
REMARK  5 active torsions:
REMARK  status: ('A' for Active; 'I' for Inactive)
REMARK    1  A    between atoms: O_2  and  C_3
REMARK    2  A    between atoms: C_9  and  N_10
REMARK    3  A    between atoms: N_10  and  C_11
REMARK    4  A    between atoms: C_11  and  C_12
REMARK    5  A    between atoms: C_15  and  N_16
REMARK                            x       y       z     vdW  Elec       q    Type
REMARK                         _______ _______ _______ _____ _____    ______ ____
ROOT
ATOM      1  N   UNL     1      15.517  11.445  35.090  0.00  0.00    +0.000 NA
ENDROOT
BRANCH   1   8
ATOM      2  C   UNL     1      14.961  12.257  32.871  0.00  0.00    +0.000 A 
ATOM      3  C   UNL     1      14.341  13.151  32.062  0.00  0.00    +0.000 A 
ATOM      4  C   UNL     1      13.618  14.182  32.614  0.00  0.00    +0.000 A 
ATOM      5  C   UNL     1      13.507  14.329  33.989  0.00  0.00    +0.000 A 
ATOM      6  C   UNL     1      12.705  15.473  34.499  0.00  0.00    +0.000 C 
ATOM      7  C   UNL     1      14.138  13.421  34.789  0.00  0.00    +0.000 A 
ATOM      8  C   UNL     1      14.856  12.396  34.251  0.00  0.00    +0.000 A 
BRANCH   2  10
ATOM      9  C   UNL     1      15.007  10.213  31.609  0.00  0.00    +0.000 C 
ATOM     10  O   UNL     1      15.712  11.187  32.353  0.00  0.00    +0.000 OA
ENDBRANCH   2  10
ENDBRANCH   1   8
BRANCH   1  11
ATOM     11  C   UNL     1      15.352  11.528  36.515  0.00  0.00    +0.000 C 
BRANCH  11  12
ATOM     12  C   UNL     1      16.379  10.723  37.229  0.00  0.00    +0.000 A 
ATOM     13  C   UNL     1      16.270  10.548  38.591  0.00  0.00    +0.000 A 
ATOM     14  C   UNL     1      17.226   9.795  39.282  0.00  0.00    +0.000 A 
ATOM     15  C   UNL     1      18.285   9.216  38.623  0.00  0.00    +0.000 A 
ATOM     16  C   UNL     1      18.369   9.407  37.261  0.00  0.00    +0.000 A 
ATOM     17  C   UNL     1      17.435  10.150  36.554  0.00  0.00    +0.000 A 
BRANCH  15  18
ATOM     18  N   UNL     1      19.263   8.443  39.337  0.00  0.00    +0.000 N 
ATOM     19  O   UNL     1      19.000   7.350  39.833  0.00  0.00    +0.000 OA
ATOM     20  O   UNL     1      20.537   8.939  39.474  0.00  0.00    +0.000 OA
ENDBRANCH  15  18
ENDBRANCH  11  12
ENDBRANCH   1  11
TORSDOF 5
ENDMDL
MODEL 2
REMARK VINA RESULT:      -6.8      2.303      2.974
REMARK  Name = 
REMARK  5 active torsions:
REMARK  status: ('A' for Active; 'I' for Inactive)
REMARK    1  A    between atoms: O_2  and  C_3
REMARK    2  A    between atoms: C_9  and  N_10
REMARK    3  A    between atoms: N_10  and  C_11
REMARK    4  A    between atoms: C_11  and  C_12
REMARK    5  A    between atoms: C_15  and  N_16
REMARK                            x       y       z     vdW  Elec       q    Type
REMARK                         _______ _______ _______ _____ _____    ______ ____
ROOT
ATOM      1  N   UNL     1      15.229  12.387  35.394  0.00  0.00    +0.000 NA
ENDROOT
BRANCH   1   8
ATOM      2  C   UNL     1      15.755  10.986  33.482  0.00  0.00    +0.000 A 
ATOM      3  C   UNL     1      15.682  10.726  32.153  0.00  0.00    +0.000 A 
ATOM      4  C   UNL     1      15.002  11.590  31.327  0.00  0.00    +0.000 A 
ATOM      5  C   UNL     1      14.386  12.729  31.824  0.00  0.00    +0.000 A 
ATOM      6  C   UNL     1      13.673  13.607  30.859  0.00  0.00    +0.000 C 
ATOM      7  C   UNL     1      14.470  12.977  33.164  0.00  0.00    +0.000 A 
ATOM      8  C   UNL     1      15.141  12.127  33.990  0.00  0.00    +0.000 A 
BRANCH   2  10
ATOM      9  C   UNL     1      17.845  10.072  34.235  0.00  0.00    +0.000 C 
ATOM     10  O   UNL     1      16.439  10.134  34.366  0.00  0.00    +0.000 OA
ENDBRANCH   2  10
ENDBRANCH   1   8
BRANCH   1  11
ATOM     11  C   UNL     1      14.102  12.095  36.237  0.00  0.00    +0.000 C 
BRANCH  11  12
ATOM     12  C   UNL     1      14.517  11.368  37.467  0.00  0.00    +0.000 A 
ATOM     13  C   UNL     1      13.562  11.017  38.395  0.00  0.00    +0.000 A 
ATOM     14  C   UNL     1      13.930  10.332  39.558  0.00  0.00    +0.000 A 
ATOM     15  C   UNL     1      15.243   9.997  39.799  0.00  0.00    +0.000 A 
ATOM     16  C   UNL     1      16.177  10.361  38.854  0.00  0.00    +0.000 A 
ATOM     17  C   UNL     1      15.836  11.040  37.693  0.00  0.00    +0.000 A 
BRANCH  15  18
ATOM     18  N   UNL     1      15.616   9.294  40.995  0.00  0.00    +0.000 N 
ATOM     19  O   UNL     1      15.090   8.232  41.322  0.00  0.00    +0.000 OA
ATOM     20  O   UNL     1      16.591   9.823  41.805  0.00  0.00    +0.000 OA
ENDBRANCH  15  18
ENDBRANCH  11  12
ENDBRANCH   1  11
TORSDOF 5
ENDMDL
MODEL 3
REMARK VINA RESULT:      -6.8      2.210      7.613
REMARK  Name = 
REMARK  5 active torsions:
REMARK  status: ('A' for Active; 'I' for Inactive)
REMARK    1  A    between atoms: O_2  and  C_3
REMARK    2  A    between atoms: C_9  and  N_10
REMARK    3  A    between atoms: N_10  and  C_11
REMARK    4  A    between atoms: C_11  and  C_12
REMARK    5  A    between atoms: C_15  and  N_16
REMARK                            x       y       z     vdW  Elec       q    Type
REMARK                         _______ _______ _______ _____ _____    ______ ____
ROOT
ATOM      1  N   UNL     1      17.717  10.802  36.356  0.00  0.00    +0.000 NA
ENDROOT
BRANCH   1   8
ATOM      2  C   UNL     1      19.203   9.710  37.935  0.00  0.00    +0.000 A 
ATOM      3  C   UNL     1      19.431   9.150  39.148  0.00  0.00    +0.000 A 
ATOM      4  C   UNL     1      18.414   9.090  40.072  0.00  0.00    +0.000 A 
ATOM      5  C   UNL     1      17.152   9.591  39.789  0.00  0.00    +0.000 A 
ATOM      6  C   UNL     1      16.112   9.483  40.847  0.00  0.00    +0.000 C 
ATOM      7  C   UNL     1      16.939  10.151  38.562  0.00  0.00    +0.000 A 
ATOM      8  C   UNL     1      17.941  10.215  37.641  0.00  0.00    +0.000 A 
BRANCH   2  10
ATOM      9  C   UNL     1      21.536   9.967  37.420  0.00  0.00    +0.000 C 
ATOM     10  O   UNL     1      20.211   9.795  36.958  0.00  0.00    +0.000 OA
ENDBRANCH   2  10
ENDBRANCH   1   8
BRANCH   1  11
ATOM     11  C   UNL     1      17.240   9.979  35.279  0.00  0.00    +0.000 C 
BRANCH  11  12
ATOM     12  C   UNL     1      16.472  10.776  34.285  0.00  0.00    +0.000 A 
ATOM     13  C   UNL     1      15.532  11.680  34.730  0.00  0.00    +0.000 A 
ATOM     14  C   UNL     1      14.798  12.441  33.812  0.00  0.00    +0.000 A 
ATOM     15  C   UNL     1      14.997  12.304  32.458  0.00  0.00    +0.000 A 
ATOM     16  C   UNL     1      15.943  11.393  32.042  0.00  0.00    +0.000 A 
ATOM     17  C   UNL     1      16.683  10.628  32.932  0.00  0.00    +0.000 A 
BRANCH  15  18
ATOM     18  N   UNL     1      14.242  13.087  31.520  0.00  0.00    +0.000 N 
ATOM     19  O   UNL     1      13.439  13.946  31.880  0.00  0.00    +0.000 OA
ATOM     20  O   UNL     1      14.418  12.873  30.175  0.00  0.00    +0.000 OA
ENDBRANCH  15  18
ENDBRANCH  11  12
ENDBRANCH   1  11
TORSDOF 5
ENDMDL
MODEL 4
REMARK VINA RESULT:      -6.5      3.152      7.786
REMARK  Name = 
REMARK  5 active torsions:
REMARK  status: ('A' for Active; 'I' for Inactive)
REMARK    1  A    between atoms: O_2  and  C_3
REMARK    2  A    between atoms: C_9  and  N_10
REMARK    3  A    between atoms: N_10  and  C_11
REMARK    4  A    between atoms: C_11  and  C_12
REMARK    5  A    between atoms: C_15  and  N_16
REMARK                            x       y       z     vdW  Elec       q    Type
REMARK                         _______ _______ _______ _____ _____    ______ ____
ROOT
ATOM      1  N   UNL     1      18.990  10.622  38.012  0.00  0.00    +0.000 NA
ENDROOT
BRANCH   1   8
ATOM      2  C   UNL     1      21.020  11.903  38.378  0.00  0.00    +0.000 A 
ATOM      3  C   UNL     1      22.354  12.074  38.212  0.00  0.00    +0.000 A 
ATOM      4  C   UNL     1      23.076  11.141  37.504  0.00  0.00    +0.000 A 
ATOM      5  C   UNL     1      22.468  10.023  36.953  0.00  0.00    +0.000 A 
ATOM      6  C   UNL     1      23.326   9.068  36.204  0.00  0.00    +0.000 C 
ATOM      7  C   UNL     1      21.123   9.868  37.129  0.00  0.00    +0.000 A 
ATOM      8  C   UNL     1      20.399  10.786  37.828  0.00  0.00    +0.000 A 
BRANCH   2  10
ATOM      9  C   UNL     1      20.042  14.095  38.494  0.00  0.00    +0.000 C 
ATOM     10  O   UNL     1      20.239  12.829  39.092  0.00  0.00    +0.000 OA
ENDBRANCH   2  10
ENDBRANCH   1   8
BRANCH   1  11
ATOM     11  C   UNL     1      18.306   9.570  37.312  0.00  0.00    +0.000 C 
BRANCH  11  12
ATOM     12  C   UNL     1      17.618  10.084  36.097  0.00  0.00    +0.000 A 
ATOM     13  C   UNL     1      18.098   9.733  34.854  0.00  0.00    +0.000 A 
ATOM     14  C   UNL     1      17.466  10.205  33.698  0.00  0.00    +0.000 A 
ATOM     15  C   UNL     1      16.361  11.022  33.776  0.00  0.00    +0.000 A 
ATOM     16  C   UNL     1      15.904  11.356  35.032  0.00  0.00    +0.000 A 
ATOM     17  C   UNL     1      16.513  10.901  36.192  0.00  0.00    +0.000 A 
BRANCH  15  18
ATOM     18  N   UNL     1      15.717  11.504  32.586  0.00  0.00    +0.000 N 
ATOM     19  O   UNL     1      15.925  11.007  31.481  0.00  0.00    +0.000 OA
ATOM     20  O   UNL     1      14.838  12.555  32.681  0.00  0.00    +0.000 OA
ENDBRANCH  15  18
ENDBRANCH  11  12
ENDBRANCH   1  11
TORSDOF 5
ENDMDL
MODEL 5
REMARK VINA RESULT:      -6.3      3.112      7.346
REMARK  Name = 
REMARK  5 active torsions:
REMARK  status: ('A' for Active; 'I' for Inactive)
REMARK    1  A    between atoms: O_2  and  C_3
REMARK    2  A    between atoms: C_9  and  N_10
REMARK    3  A    between atoms: N_10  and  C_11
REMARK    4  A    between atoms: C_11  and  C_12
REMARK    5  A    between atoms: C_15  and  N_16
REMARK                            x       y       z     vdW  Elec       q    Type
REMARK                         _______ _______ _______ _____ _____    ______ ____
ROOT
ATOM      1  N   UNL     1      19.203   9.902  37.226  0.00  0.00    +0.000 NA
ENDROOT
BRANCH   1   8
ATOM      2  C   UNL     1      21.475  10.673  37.604  0.00  0.00    +0.000 A 
ATOM      3  C   UNL     1      22.344  11.627  38.020  0.00  0.00    +0.000 A 
ATOM      4  C   UNL     1      21.863  12.822  38.500  0.00  0.00    +0.000 A 
ATOM      5  C   UNL     1      20.502  13.078  38.569  0.00  0.00    +0.000 A 
ATOM      6  C   UNL     1      20.072  14.398  39.101  0.00  0.00    +0.000 C 
ATOM      7  C   UNL     1      19.640  12.107  38.146  0.00  0.00    +0.000 A 
ATOM      8  C   UNL     1      20.106  10.919  37.669  0.00  0.00    +0.000 A 
BRANCH   2  10
ATOM      9  C   UNL     1      23.218   9.397  36.554  0.00  0.00    +0.000 C 
ATOM     10  O   UNL     1      21.917   9.435  37.105  0.00  0.00    +0.000 OA
ENDBRANCH   2  10
ENDBRANCH   1   8
BRANCH   1  11
ATOM     11  C   UNL     1      17.788  10.147  37.274  0.00  0.00    +0.000 C 
BRANCH  11  12
ATOM     12  C   UNL     1      17.249  10.481  35.929  0.00  0.00    +0.000 A 
ATOM     13  C   UNL     1      17.788   9.871  34.818  0.00  0.00    +0.000 A 
ATOM     14  C   UNL     1      17.296  10.171  33.542  0.00  0.00    +0.000 A 
ATOM     15  C   UNL     1      16.271  11.073  33.371  0.00  0.00    +0.000 A 
ATOM     16  C   UNL     1      15.751  11.668  34.500  0.00  0.00    +0.000 A 
ATOM     17  C   UNL     1      16.222  11.387  35.774  0.00  0.00    +0.000 A 
BRANCH  15  18
ATOM     18  N   UNL     1      15.770  11.377  32.060  0.00  0.00    +0.000 N 
ATOM     19  O   UNL     1      16.122  12.378  31.439  0.00  0.00    +0.000 OA
ATOM     20  O   UNL     1      14.865  10.524  31.476  0.00  0.00    +0.000 OA
ENDBRANCH  15  18
ENDBRANCH  11  12
ENDBRANCH   1  11
TORSDOF 5
ENDMDL
MODEL 6
REMARK VINA RESULT:      -6.2      3.220      7.915
REMARK  Name = 
REMARK  5 active torsions:
REMARK  status: ('A' for Active; 'I' for Inactive)
REMARK    1  A    between atoms: O_2  and  C_3
REMARK    2  A    between atoms: C_9  and  N_10
REMARK    3  A    between atoms: N_10  and  C_11
REMARK    4  A    between atoms: C_11  and  C_12
REMARK    5  A    between atoms: C_15  and  N_16
REMARK                            x       y       z     vdW  Elec       q    Type
REMARK                         _______ _______ _______ _____ _____    ______ ____
ROOT
ATOM      1  N   UNL     1      18.342   9.864  39.496  0.00  0.00    +0.000 NA
ENDROOT
BRANCH   1   8
ATOM      2  C   UNL     1      16.855   8.470  40.815  0.00  0.00    +0.000 A 
ATOM      3  C   UNL     1      16.521   7.263  41.336  0.00  0.00    +0.000 A 
ATOM      4  C   UNL     1      17.320   6.171  41.090  0.00  0.00    +0.000 A 
ATOM      5  C   UNL     1      18.466   6.275  40.316  0.00  0.00    +0.000 A 
ATOM      6  C   UNL     1      19.269   5.042  40.101  0.00  0.00    +0.000 C 
ATOM      7  C   UNL     1      18.788   7.497  39.799  0.00  0.00    +0.000 A 
ATOM      8  C   UNL     1      18.004   8.585  40.038  0.00  0.00    +0.000 A 
BRANCH   2  10
ATOM      9  C   UNL     1      14.817   9.667  40.390  0.00  0.00    +0.000 C 
ATOM     10  O   UNL     1      16.072   9.615  41.039  0.00  0.00    +0.000 OA
ENDBRANCH   2  10
ENDBRANCH   1   8
BRANCH   1  11
ATOM     11  C   UNL     1      19.199   9.939  38.345  0.00  0.00    +0.000 C 
BRANCH  11  12
ATOM     12  C   UNL     1      18.419  10.181  37.102  0.00  0.00    +0.000 A 
ATOM     13  C   UNL     1      17.473  11.182  37.087  0.00  0.00    +0.000 A 
ATOM     14  C   UNL     1      16.728  11.427  35.927  0.00  0.00    +0.000 A 
ATOM     15  C   UNL     1      16.923  10.682  34.787  0.00  0.00    +0.000 A 
ATOM     16  C   UNL     1      17.876   9.688  34.832  0.00  0.00    +0.000 A 
ATOM     17  C   UNL     1      18.627   9.426  35.969  0.00  0.00    +0.000 A 
BRANCH  15  18
ATOM     18  N   UNL     1      16.156  10.938  33.600  0.00  0.00    +0.000 N 
ATOM     19  O   UNL     1      15.085  11.542  33.630  0.00  0.00    +0.000 OA
ATOM     20  O   UNL     1      16.629  10.495  32.390  0.00  0.00    +0.000 OA
ENDBRANCH  15  18
ENDBRANCH  11  12
ENDBRANCH   1  11
TORSDOF 5
ENDMDL
MODEL 7
REMARK VINA RESULT:      -6.1     19.112     21.096
REMARK  Name = 
REMARK  5 active torsions:
REMARK  status: ('A' for Active; 'I' for Inactive)
REMARK    1  A    between atoms: O_2  and  C_3
REMARK    2  A    between atoms: C_9  and  N_10
REMARK    3  A    between atoms: N_10  and  C_11
REMARK    4  A    between atoms: C_11  and  C_12
REMARK    5  A    between atoms: C_15  and  N_16
REMARK                            x       y       z     vdW  Elec       q    Type
REMARK                         _______ _______ _______ _____ _____    ______ ____
ROOT
ATOM      1  N   UNL     1      28.165  23.147  27.839  0.00  0.00    +0.000 NA
ENDROOT
BRANCH   1   8
ATOM      2  C   UNL     1      28.646  22.680  30.173  0.00  0.00    +0.000 A 
ATOM      3  C   UNL     1      29.526  22.385  31.161  0.00  0.00    +0.000 A 
ATOM      4  C   UNL     1      30.861  22.240  30.862  0.00  0.00    +0.000 A 
ATOM      5  C   UNL     1      31.331  22.391  29.566  0.00  0.00    +0.000 A 
ATOM      6  C   UNL     1      32.789  22.217  29.334  0.00  0.00    +0.000 C 
ATOM      7  C   UNL     1      30.431  22.689  28.583  0.00  0.00    +0.000 A 
ATOM      8  C   UNL     1      29.107  22.834  28.869  0.00  0.00    +0.000 A 
BRANCH   2  10
ATOM      9  C   UNL     1      26.488  21.662  30.448  0.00  0.00    +0.000 C 
ATOM     10  O   UNL     1      27.272  22.838  30.428  0.00  0.00    +0.000 OA
ENDBRANCH   2  10
ENDBRANCH   1   8
BRANCH   1  11
ATOM     11  C   UNL     1      27.936  22.200  26.782  0.00  0.00    +0.000 C 
BRANCH  11  12
ATOM     12  C   UNL     1      28.181  22.808  25.447  0.00  0.00    +0.000 A 
ATOM     13  C   UNL     1      27.113  23.293  24.723  0.00  0.00    +0.000 A 
ATOM     14  C   UNL     1      27.321  23.869  23.465  0.00  0.00    +0.000 A 
ATOM     15  C   UNL     1      28.584  23.963  22.926  0.00  0.00    +0.000 A 
ATOM     16  C   UNL     1      29.632  23.469  23.672  0.00  0.00    +0.000 A 
ATOM     17  C   UNL     1      29.451  22.894  24.922  0.00  0.00    +0.000 A 
BRANCH  15  18
ATOM     18  N   UNL     1      28.791  24.554  21.634  0.00  0.00    +0.000 N 
ATOM     19  O   UNL     1      29.711  24.209  20.895  0.00  0.00    +0.000 OA
ATOM     20  O   UNL     1      27.935  25.539  21.205  0.00  0.00    +0.000 OA
ENDBRANCH  15  18
ENDBRANCH  11  12
ENDBRANCH   1  11
TORSDOF 5
ENDMDL
MODEL 8
REMARK VINA RESULT:      -6.0     18.385     20.443
REMARK  Name = 
REMARK  5 active torsions:
REMARK  status: ('A' for Active; 'I' for Inactive)
REMARK    1  A    between atoms: O_2  and  C_3
REMARK    2  A    between atoms: C_9  and  N_10
REMARK    3  A    between atoms: N_10  and  C_11
REMARK    4  A    between atoms: C_11  and  C_12
REMARK    5  A    between atoms: C_15  and  N_16
REMARK                            x       y       z     vdW  Elec       q    Type
REMARK                         _______ _______ _______ _____ _____    ______ ____
ROOT
ATOM      1  N   UNL     1      29.585  23.252  27.808  0.00  0.00    +0.000 NA
ENDROOT
BRANCH   1   8
ATOM      2  C   UNL     1      27.843  24.643  28.769  0.00  0.00    +0.000 A 
ATOM      3  C   UNL     1      26.730  24.783  29.530  0.00  0.00    +0.000 A 
ATOM      4  C   UNL     1      26.177  23.680  30.138  0.00  0.00    +0.000 A 
ATOM      5  C   UNL     1      26.735  22.419  29.989  0.00  0.00    +0.000 A 
ATOM      6  C   UNL     1      26.071  21.284  30.682  0.00  0.00    +0.000 C 
ATOM      7  C   UNL     1      27.856  22.295  29.220  0.00  0.00    +0.000 A 
ATOM      8  C   UNL     1      28.411  23.382  28.614  0.00  0.00    +0.000 A 
BRANCH   2  10
ATOM      9  C   UNL     1      27.798  26.239  26.974  0.00  0.00    +0.000 C 
ATOM     10  O   UNL     1      28.445  25.740  28.128  0.00  0.00    +0.000 OA
ENDBRANCH   2  10
ENDBRANCH   1   8
BRANCH   1  11
ATOM     11  C   UNL     1      29.633  22.239  26.790  0.00  0.00    +0.000 C 
BRANCH  11  12
ATOM     12  C   UNL     1      28.878  22.654  25.576  0.00  0.00    +0.000 A 
ATOM     13  C   UNL     1      29.572  22.967  24.428  0.00  0.00    +0.000 A 
ATOM     14  C   UNL     1      28.882  23.359  23.275  0.00  0.00    +0.000 A 
ATOM     15  C   UNL     1      27.509  23.440  23.262  0.00  0.00    +0.000 A 
ATOM     16  C   UNL     1      26.842  23.121  24.425  0.00  0.00    +0.000 A 
ATOM     17  C   UNL     1      27.503  22.730  25.580  0.00  0.00    +0.000 A 
BRANCH  15  18
ATOM     18  N   UNL     1      26.806  23.843  22.076  0.00  0.00    +0.000 N 
ATOM     19  O   UNL     1      27.145  24.822  21.415  0.00  0.00    +0.000 OA
ATOM     20  O   UNL     1      25.718  23.114  21.664  0.00  0.00    +0.000 OA
ENDBRANCH  15  18
ENDBRANCH  11  12
ENDBRANCH   1  11
TORSDOF 5
ENDMDL
MODEL 9
REMARK VINA RESULT:      -6.0     20.314     23.738
REMARK  Name = 
REMARK  5 active torsions:
REMARK  status: ('A' for Active; 'I' for Inactive)
REMARK    1  A    between atoms: O_2  and  C_3
REMARK    2  A    between atoms: C_9  and  N_10
REMARK    3  A    between atoms: N_10  and  C_11
REMARK    4  A    between atoms: C_11  and  C_12
REMARK    5  A    between atoms: C_15  and  N_16
REMARK                            x       y       z     vdW  Elec       q    Type
REMARK                         _______ _______ _______ _____ _____    ______ ____
ROOT
ATOM      1  N   UNL     1      34.033  -3.992  34.266  0.00  0.00    +0.000 NA
ENDROOT
BRANCH   1   8
ATOM      2  C   UNL     1      35.312  -5.799  33.269  0.00  0.00    +0.000 A 
ATOM      3  C   UNL     1      35.581  -6.617  32.222  0.00  0.00    +0.000 A 
ATOM      4  C   UNL     1      34.854  -6.497  31.061  0.00  0.00    +0.000 A 
ATOM      5  C   UNL     1      33.846  -5.553  30.934  0.00  0.00    +0.000 A 
ATOM      6  C   UNL     1      33.112  -5.494  29.643  0.00  0.00    +0.000 C 
ATOM      7  C   UNL     1      33.589  -4.736  31.998  0.00  0.00    +0.000 A 
ATOM      8  C   UNL     1      34.304  -4.847  33.152  0.00  0.00    +0.000 A 
BRANCH   2  10
ATOM      9  C   UNL     1      37.437  -5.815  34.390  0.00  0.00    +0.000 C 
ATOM     10  O   UNL     1      36.028  -5.882  34.476  0.00  0.00    +0.000 OA
ENDBRANCH   2  10
ENDBRANCH   1   8
BRANCH   1  11
ATOM     11  C   UNL     1      32.800  -3.256  34.307  0.00  0.00    +0.000 C 
BRANCH  11  12
ATOM     12  C   UNL     1      33.027  -1.802  34.084  0.00  0.00    +0.000 A 
ATOM     13  C   UNL     1      33.986  -1.402  33.180  0.00  0.00    +0.000 A 
ATOM     14  C   UNL     1      34.216  -0.040  32.956  0.00  0.00    +0.000 A 
ATOM     15  C   UNL     1      33.495   0.921  33.627  0.00  0.00    +0.000 A 
ATOM     16  C   UNL     1      32.543   0.492  34.525  0.00  0.00    +0.000 A 
ATOM     17  C   UNL     1      32.297  -0.852  34.764  0.00  0.00    +0.000 A 
BRANCH  15  18
ATOM     18  N   UNL     1      33.735   2.318  33.392  0.00  0.00    +0.000 N 
ATOM     19  O   UNL     1      33.866   2.780  32.261  0.00  0.00    +0.000 OA
ATOM     20  O   UNL     1      33.822   3.170  34.466  0.00  0.00    +0.000 OA
ENDBRANCH  15  18
ENDBRANCH  11  12
ENDBRANCH   1  11
TORSDOF 5
ENDMDL
MODEL 10
REMARK VINA RESULT:      -6.0     19.029     20.914
REMARK  Name = 
REMARK  5 active torsions:
REMARK  status: ('A' for Active; 'I' for Inactive)
REMARK    1  A    between atoms: O_2  and  C_3
REMARK    2  A    between atoms: C_9  and  N_10
REMARK    3  A    between atoms: N_10  and  C_11
REMARK    4  A    between atoms: C_11  and  C_12
REMARK    5  A    between atoms: C_15  and  N_16
REMARK                            x       y       z     vdW  Elec       q    Type
REMARK                         _______ _______ _______ _____ _____    ______ ____
ROOT
ATOM      1  N   UNL     1      30.567  23.021  28.440  0.00  0.00    +0.000 NA
ENDROOT
BRANCH   1   8
ATOM      2  C   UNL     1      29.854  22.502  30.702  0.00  0.00    +0.000 A 
ATOM      3  C   UNL     1      30.109  21.993  31.933  0.00  0.00    +0.000 A 
ATOM      4  C   UNL     1      31.348  21.462  32.206  0.00  0.00    +0.000 A 
ATOM      5  C   UNL     1      32.349  21.434  31.247  0.00  0.00    +0.000 A 
ATOM      6  C   UNL     1      33.657  20.840  31.630  0.00  0.00    +0.000 C 
ATOM      7  C   UNL     1      32.076  21.951  30.013  0.00  0.00    +0.000 A 
ATOM      8  C   UNL     1      30.852  22.479  29.733  0.00  0.00    +0.000 A 
BRANCH   2  10
ATOM      9  C   UNL     1      27.506  22.168  30.322  0.00  0.00    +0.000 C 
ATOM     10  O   UNL     1      28.605  23.057  30.375  0.00  0.00    +0.000 OA
ENDBRANCH   2  10
ENDBRANCH   1   8
BRANCH   1  11
ATOM     11  C   UNL     1      30.908  22.263  27.268  0.00  0.00    +0.000 C 
BRANCH  11  12
ATOM     12  C   UNL     1      29.998  22.578  26.134  0.00  0.00    +0.000 A 
ATOM     13  C   UNL     1      28.642  22.658  26.363  0.00  0.00    +0.000 A 
ATOM     14  C   UNL     1      27.767  22.953  25.310  0.00  0.00    +0.000 A 
ATOM     15  C   UNL     1      28.238  23.167  24.035  0.00  0.00    +0.000 A 
ATOM     16  C   UNL     1      29.598  23.080  23.836  0.00  0.00    +0.000 A 
ATOM     17  C   UNL     1      30.485  22.790  24.863  0.00  0.00    +0.000 A 
BRANCH  15  18
ATOM     18  N   UNL     1      27.336  23.469  22.959  0.00  0.00    +0.000 N 
ATOM     19  O   UNL     1      27.667  24.167  22.002  0.00  0.00    +0.000 OA
ATOM     20  O   UNL     1      26.059  22.965  22.995  0.00  0.00    +0.000 OA
ENDBRANCH  15  18
ENDBRANCH  11  12
ENDBRANCH   1  11
TORSDOF 5
ENDMDL
