MODEL 1
REMARK VINA RESULT:      -6.8      0.000      0.000
REMARK  Name = 
REMARK  8 active torsions:
REMARK  status: ('A' for Active; 'I' for Inactive)
REMARK    1  A    between atoms: C_2  and  C_5
REMARK    2  A    between atoms: C_8  and  C_9
REMARK    3  A    between atoms: C_12  and  C_13
REMARK    4  A    between atoms: C_21  and  C_22
REMARK    5  A    between atoms: N_24  and  C_25
REMARK    6  A    between atoms: C_25  and  C_26
REMARK    7  A    between atoms: C_26  and  O_27
REMARK    8  A    between atoms: O_27  and  C_28
REMARK                            x       y       z     vdW  Elec       q    Type
REMARK                         _______ _______ _______ _____ _____    ______ ____
ROOT
ATOM      1  C   UNL     1      35.135   4.475  14.561  0.00  0.00    +0.000 A 
ATOM      2  N   UNL     1      33.980   4.043  15.145  0.00  0.00    +0.000 NA
ATOM      3  O   UNL     1      34.129   2.875  15.616  0.00  0.00    +0.000 OA
ATOM      4  C   UNL     1      35.377   2.424  15.395  0.00  0.00    +0.000 A 
ATOM      5  C   UNL     1      36.026   3.421  14.729  0.00  0.00    +0.000 A 
ENDROOT
BRANCH   4   6
ATOM      6  C   UNL     1      35.858   1.119  15.813  0.00  0.00    +0.000 A 
ATOM      7  C   UNL     1      35.876   0.086  14.853  0.00  0.00    +0.000 A 
ATOM      8  C   UNL     1      36.310  -1.183  15.148  0.00  0.00    +0.000 A 
ATOM      9  C   UNL     1      36.750  -1.475  16.430  0.00  0.00    +0.000 A 
ATOM     10  C   UNL     1      36.751  -0.497  17.404  0.00  0.00    +0.000 A 
ATOM     11  C   UNL     1      36.303   0.749  17.040  0.00  0.00    +0.000 A 
BRANCH   9  12
ATOM     12  C   UNL     1      37.222  -2.790  16.817  0.00  0.00    +0.000 A 
ATOM     13  C   UNL     1      38.173  -2.906  17.817  0.00  0.00    +0.000 A 
ATOM     14  C   UNL     1      38.628  -4.138  18.191  0.00  0.00    +0.000 A 
ATOM     15  C   UNL     1      38.181  -5.307  17.612  0.00  0.00    +0.000 A 
ATOM     16  C   UNL     1      37.227  -5.206  16.608  0.00  0.00    +0.000 A 
ATOM     17  C   UNL     1      36.774  -3.957  16.236  0.00  0.00    +0.000 A 
ENDBRANCH   9  12
ENDBRANCH   4   6
BRANCH   1  19
ATOM     18  C   UNL     1      35.667   5.631  12.424  0.00  0.00    +0.000 C 
ATOM     19  C   UNL     1      35.361   5.772  13.894  0.00  0.00    +0.000 C 
ATOM     20  C   UNL     1      34.067   6.613  13.977  0.00  0.00    +0.000 C 
ATOM     21  C   UNL     1      36.428   6.590  14.621  0.00  0.00    +0.000 C 
ENDBRANCH   1  19
BRANCH   5  22
ATOM     22  C   UNL     1      37.401   3.441  14.267  0.00  0.00    +0.000 C 
ATOM     23  O   UNL     1      38.362   3.851  14.939  0.00  0.00    +0.000 OA
ATOM     24  N   UNL     1      37.759   2.972  12.949  0.00  0.00    +0.000 NA
BRANCH  24  25
ATOM     25  C   UNL     1      39.145   3.002  12.501  0.00  0.00    +0.000 C 
BRANCH  25  26
ATOM     26  C   UNL     1      39.448   1.628  11.955  0.00  0.00    +0.000 C 
BRANCH  26  27
ATOM     27  O   UNL     1      38.550   0.657  12.463  0.00  0.00    +0.000 OA
BRANCH  27  28
ATOM     28  C   UNL     1      39.075  -0.411  13.199  0.00  0.00    +0.000 A 
ATOM     29  C   UNL     1      38.926  -1.694  12.682  0.00  0.00    +0.000 A 
ATOM     30  C   UNL     1      39.424  -2.760  13.372  0.00  0.00    +0.000 A 
ATOM     31  C   UNL     1      40.069  -2.562  14.572  0.00  0.00    +0.000 A 
ATOM     32  C   UNL     1      40.210  -1.278  15.075  0.00  0.00    +0.000 A 
ATOM     33  C   UNL     1      39.715  -0.187  14.398  0.00  0.00    +0.000 A 
ENDBRANCH  27  28
ENDBRANCH  26  27
ENDBRANCH  25  26
ENDBRANCH  24  25
ENDBRANCH   5  22
TORSDOF 8
ENDMDL
MODEL 2
REMARK VINA RESULT:      -6.6      6.880      9.283
REMARK  Name = 
REMARK  8 active torsions:
REMARK  status: ('A' for Active; 'I' for Inactive)
REMARK    1  A    between atoms: C_2  and  C_5
REMARK    2  A    between atoms: C_8  and  C_9
REMARK    3  A    between atoms: C_12  and  C_13
REMARK    4  A    between atoms: C_21  and  C_22
REMARK    5  A    between atoms: N_24  and  C_25
REMARK    6  A    between atoms: C_25  and  C_26
REMARK    7  A    between atoms: C_26  and  O_27
REMARK    8  A    between atoms: O_27  and  C_28
REMARK                            x       y       z     vdW  Elec       q    Type
REMARK                         _______ _______ _______ _____ _____    ______ ____
ROOT
ATOM      1  C   UNL     1      35.925   7.004  14.358  0.00  0.00    +0.000 A 
ATOM      2  N   UNL     1      36.220   5.676  14.265  0.00  0.00    +0.000 NA
ATOM      3  O   UNL     1      37.241   5.397  14.964  0.00  0.00    +0.000 OA
ATOM      4  C   UNL     1      37.716   6.495  15.580  0.00  0.00    +0.000 A 
ATOM      5  C   UNL     1      36.897   7.519  15.207  0.00  0.00    +0.000 A 
ENDROOT
BRANCH   4   6
ATOM      6  C   UNL     1      38.878   6.503  16.451  0.00  0.00    +0.000 A 
ATOM      7  C   UNL     1      38.677   6.217  17.817  0.00  0.00    +0.000 A 
ATOM      8  C   UNL     1      39.708   6.202  18.724  0.00  0.00    +0.000 A 
ATOM      9  C   UNL     1      40.999   6.475  18.296  0.00  0.00    +0.000 A 
ATOM     10  C   UNL     1      41.245   6.760  16.969  0.00  0.00    +0.000 A 
ATOM     11  C   UNL     1      40.168   6.759  16.118  0.00  0.00    +0.000 A 
BRANCH   9  12
ATOM     12  C   UNL     1      42.138   6.477  19.194  0.00  0.00    +0.000 A 
ATOM     13  C   UNL     1      43.395   6.776  18.697  0.00  0.00    +0.000 A 
ATOM     14  C   UNL     1      44.478   6.782  19.530  0.00  0.00    +0.000 A 
ATOM     15  C   UNL     1      44.386   6.498  20.877  0.00  0.00    +0.000 A 
ATOM     16  C   UNL     1      43.131   6.196  21.388  0.00  0.00    +0.000 A 
ATOM     17  C   UNL     1      42.043   6.193  20.539  0.00  0.00    +0.000 A 
ENDBRANCH   9  12
ENDBRANCH   4   6
BRANCH   1  19
ATOM     18  C   UNL     1      35.302   8.723  12.671  0.00  0.00    +0.000 C 
ATOM     19  C   UNL     1      34.821   7.716  13.686  0.00  0.00    +0.000 C 
ATOM     20  C   UNL     1      33.971   6.695  12.895  0.00  0.00    +0.000 C 
ATOM     21  C   UNL     1      33.867   8.343  14.701  0.00  0.00    +0.000 C 
ENDBRANCH   1  19
BRANCH   5  22
ATOM     22  C   UNL     1      36.969   8.913  15.604  0.00  0.00    +0.000 C 
ATOM     23  O   UNL     1      37.487   9.812  14.921  0.00  0.00    +0.000 OA
ATOM     24  N   UNL     1      36.427   9.366  16.863  0.00  0.00    +0.000 NA
BRANCH  24  25
ATOM     25  C   UNL     1      36.510  10.770  17.246  0.00  0.00    +0.000 C 
BRANCH  25  26
ATOM     26  C   UNL     1      37.193  10.806  18.591  0.00  0.00    +0.000 C 
BRANCH  26  27
ATOM     27  O   UNL     1      37.960   9.637  18.818  0.00  0.00    +0.000 OA
BRANCH  27  28
ATOM     28  C   UNL     1      39.327   9.781  19.080  0.00  0.00    +0.000 A 
ATOM     29  C   UNL     1      40.163  10.109  18.019  0.00  0.00    +0.000 A 
ATOM     30  C   UNL     1      41.501  10.257  18.236  0.00  0.00    +0.000 A 
ATOM     31  C   UNL     1      42.017  10.081  19.501  0.00  0.00    +0.000 A 
ATOM     32  C   UNL     1      41.171   9.755  20.550  0.00  0.00    +0.000 A 
ATOM     33  C   UNL     1      39.817   9.599  20.355  0.00  0.00    +0.000 A 
ENDBRANCH  27  28
ENDBRANCH  26  27
ENDBRANCH  25  26
ENDBRANCH  24  25
ENDBRANCH   5  22
TORSDOF 8
ENDMDL
MODEL 3
REMARK VINA RESULT:      -6.3      2.049      7.471
REMARK  Name = 
REMARK  8 active torsions:
REMARK  status: ('A' for Active; 'I' for Inactive)
REMARK    1  A    between atoms: C_2  and  C_5
REMARK    2  A    between atoms: C_8  and  C_9
REMARK    3  A    between atoms: C_12  and  C_13
REMARK    4  A    between atoms: C_21  and  C_22
REMARK    5  A    between atoms: N_24  and  C_25
REMARK    6  A    between atoms: C_25  and  C_26
REMARK    7  A    between atoms: C_26  and  O_27
REMARK    8  A    between atoms: O_27  and  C_28
REMARK                            x       y       z     vdW  Elec       q    Type
REMARK                         _______ _______ _______ _____ _____    ______ ____
ROOT
ATOM      1  C   UNL     1      37.428  -1.415  17.403  0.00  0.00    +0.000 A 
ATOM      2  N   UNL     1      37.143  -0.635  18.485  0.00  0.00    +0.000 NA
ATOM      3  O   UNL     1      36.704   0.496  18.114  0.00  0.00    +0.000 OA
ATOM      4  C   UNL     1      36.655   0.576  16.772  0.00  0.00    +0.000 A 
ATOM      5  C   UNL     1      37.109  -0.622  16.307  0.00  0.00    +0.000 A 
ENDROOT
BRANCH   4   6
ATOM      6  C   UNL     1      36.198   1.744  16.041  0.00  0.00    +0.000 A 
ATOM      7  C   UNL     1      37.164   2.511  15.356  0.00  0.00    +0.000 A 
ATOM      8  C   UNL     1      36.836   3.634  14.638  0.00  0.00    +0.000 A 
ATOM      9  C   UNL     1      35.512   4.042  14.573  0.00  0.00    +0.000 A 
ATOM     10  C   UNL     1      34.532   3.324  15.227  0.00  0.00    +0.000 A 
ATOM     11  C   UNL     1      34.930   2.213  15.926  0.00  0.00    +0.000 A 
BRANCH   9  12
ATOM     12  C   UNL     1      35.089   5.217  13.835  0.00  0.00    +0.000 A 
ATOM     13  C   UNL     1      35.717   5.534  12.642  0.00  0.00    +0.000 A 
ATOM     14  C   UNL     1      35.331   6.637  11.936  0.00  0.00    +0.000 A 
ATOM     15  C   UNL     1      34.320   7.477  12.357  0.00  0.00    +0.000 A 
ATOM     16  C   UNL     1      33.682   7.171  13.551  0.00  0.00    +0.000 A 
ATOM     17  C   UNL     1      34.080   6.054  14.258  0.00  0.00    +0.000 A 
ENDBRANCH   9  12
ENDBRANCH   4   6
BRANCH   1  19
ATOM     18  C   UNL     1      39.233  -2.933  16.613  0.00  0.00    +0.000 C 
ATOM     19  C   UNL     1      37.966  -2.790  17.418  0.00  0.00    +0.000 C 
ATOM     20  C   UNL     1      38.343  -3.167  18.869  0.00  0.00    +0.000 C 
ATOM     21  C   UNL     1      36.905  -3.804  16.994  0.00  0.00    +0.000 C 
ENDBRANCH   1  19
BRANCH   5  22
ATOM     22  C   UNL     1      37.245  -1.054  14.929  0.00  0.00    +0.000 C 
ATOM     23  O   UNL     1      36.391  -1.713  14.312  0.00  0.00    +0.000 OA
ATOM     24  N   UNL     1      38.421  -0.740  14.153  0.00  0.00    +0.000 NA
BRANCH  24  25
ATOM     25  C   UNL     1      38.541  -1.183  12.770  0.00  0.00    +0.000 C 
BRANCH  25  26
ATOM     26  C   UNL     1      38.846   0.047  11.952  0.00  0.00    +0.000 C 
BRANCH  26  27
ATOM     27  O   UNL     1      39.468   1.052  12.733  0.00  0.00    +0.000 OA
BRANCH  27  28
ATOM     28  C   UNL     1      39.367   2.380  12.308  0.00  0.00    +0.000 A 
ATOM     29  C   UNL     1      40.143   3.333  12.959  0.00  0.00    +0.000 A 
ATOM     30  C   UNL     1      40.071   4.639  12.571  0.00  0.00    +0.000 A 
ATOM     31  C   UNL     1      39.233   5.007  11.542  0.00  0.00    +0.000 A 
ATOM     32  C   UNL     1      38.466   4.046  10.902  0.00  0.00    +0.000 A 
ATOM     33  C   UNL     1      38.521   2.722  11.276  0.00  0.00    +0.000 A 
ENDBRANCH  27  28
ENDBRANCH  26  27
ENDBRANCH  25  26
ENDBRANCH  24  25
ENDBRANCH   5  22
TORSDOF 8
ENDMDL
MODEL 4
REMARK VINA RESULT:      -6.3      2.235      7.115
REMARK  Name = 
REMARK  8 active torsions:
REMARK  status: ('A' for Active; 'I' for Inactive)
REMARK    1  A    between atoms: C_2  and  C_5
REMARK    2  A    between atoms: C_8  and  C_9
REMARK    3  A    between atoms: C_12  and  C_13
REMARK    4  A    between atoms: C_21  and  C_22
REMARK    5  A    between atoms: N_24  and  C_25
REMARK    6  A    between atoms: C_25  and  C_26
REMARK    7  A    between atoms: C_26  and  O_27
REMARK    8  A    between atoms: O_27  and  C_28
REMARK                            x       y       z     vdW  Elec       q    Type
REMARK                         _______ _______ _______ _____ _____    ______ ____
ROOT
ATOM      1  C   UNL     1      37.370  -1.368  17.535  0.00  0.00    +0.000 A 
ATOM      2  N   UNL     1      37.121  -0.564  18.608  0.00  0.00    +0.000 NA
ATOM      3  O   UNL     1      36.686   0.565  18.227  0.00  0.00    +0.000 OA
ATOM      4  C   UNL     1      36.604   0.620  16.885  0.00  0.00    +0.000 A 
ATOM      5  C   UNL     1      37.032  -0.593  16.432  0.00  0.00    +0.000 A 
ENDROOT
BRANCH   4   6
ATOM      6  C   UNL     1      36.142   1.779  16.144  0.00  0.00    +0.000 A 
ATOM      7  C   UNL     1      37.114   2.608  15.546  0.00  0.00    +0.000 A 
ATOM      8  C   UNL     1      36.781   3.729  14.827  0.00  0.00    +0.000 A 
ATOM      9  C   UNL     1      35.446   4.071  14.671  0.00  0.00    +0.000 A 
ATOM     10  C   UNL     1      34.459   3.291  15.237  0.00  0.00    +0.000 A 
ATOM     11  C   UNL     1      34.863   2.186  15.944  0.00  0.00    +0.000 A 
BRANCH   9  12
ATOM     12  C   UNL     1      35.018   5.239  13.925  0.00  0.00    +0.000 A 
ATOM     13  C   UNL     1      35.607   5.520  12.704  0.00  0.00    +0.000 A 
ATOM     14  C   UNL     1      35.215   6.616  11.990  0.00  0.00    +0.000 A 
ATOM     15  C   UNL     1      34.237   7.484  12.430  0.00  0.00    +0.000 A 
ATOM     16  C   UNL     1      33.639   7.214  13.653  0.00  0.00    +0.000 A 
ATOM     17  C   UNL     1      34.042   6.104  14.368  0.00  0.00    +0.000 A 
ENDBRANCH   9  12
ENDBRANCH   4   6
BRANCH   1  19
ATOM     18  C   UNL     1      39.142  -2.920  16.736  0.00  0.00    +0.000 C 
ATOM     19  C   UNL     1      37.892  -2.748  17.563  0.00  0.00    +0.000 C 
ATOM     20  C   UNL     1      38.293  -3.106  19.013  0.00  0.00    +0.000 C 
ATOM     21  C   UNL     1      36.811  -3.758  17.177  0.00  0.00    +0.000 C 
ENDBRANCH   1  19
BRANCH   5  22
ATOM     22  C   UNL     1      37.127  -1.052  15.060  0.00  0.00    +0.000 C 
ATOM     23  O   UNL     1      36.305  -1.806  14.513  0.00  0.00    +0.000 OA
ATOM     24  N   UNL     1      38.221  -0.653  14.206  0.00  0.00    +0.000 NA
BRANCH  24  25
ATOM     25  C   UNL     1      38.301  -1.126  12.830  0.00  0.00    +0.000 C 
BRANCH  25  26
ATOM     26  C   UNL     1      38.994  -0.040  12.044  0.00  0.00    +0.000 C 
BRANCH  26  27
ATOM     27  O   UNL     1      40.256  -0.469  11.563  0.00  0.00    +0.000 OA
BRANCH  27  28
ATOM     28  C   UNL     1      41.246  -0.795  12.494  0.00  0.00    +0.000 A 
ATOM     29  C   UNL     1      41.744  -2.094  12.488  0.00  0.00    +0.000 A 
ATOM     30  C   UNL     1      42.711  -2.449  13.382  0.00  0.00    +0.000 A 
ATOM     31  C   UNL     1      43.187  -1.524  14.284  0.00  0.00    +0.000 A 
ATOM     32  C   UNL     1      42.682  -0.233  14.279  0.00  0.00    +0.000 A 
ATOM     33  C   UNL     1      41.705   0.149  13.386  0.00  0.00    +0.000 A 
ENDBRANCH  27  28
ENDBRANCH  26  27
ENDBRANCH  25  26
ENDBRANCH  24  25
ENDBRANCH   5  22
TORSDOF 8
ENDMDL
MODEL 5
REMARK VINA RESULT:      -6.3      3.197      6.727
REMARK  Name = 
REMARK  8 active torsions:
REMARK  status: ('A' for Active; 'I' for Inactive)
REMARK    1  A    between atoms: C_2  and  C_5
REMARK    2  A    between atoms: C_8  and  C_9
REMARK    3  A    between atoms: C_12  and  C_13
REMARK    4  A    between atoms: C_21  and  C_22
REMARK    5  A    between atoms: N_24  and  C_25
REMARK    6  A    between atoms: C_25  and  C_26
REMARK    7  A    between atoms: C_26  and  O_27
REMARK    8  A    between atoms: O_27  and  C_28
REMARK                            x       y       z     vdW  Elec       q    Type
REMARK                         _______ _______ _______ _____ _____    ______ ____
ROOT
ATOM      1  C   UNL     1      42.003  -2.506  10.638  0.00  0.00    +0.000 A 
ATOM      2  N   UNL     1      42.087  -3.703  11.285  0.00  0.00    +0.000 NA
ATOM      3  O   UNL     1      41.321  -3.718  12.296  0.00  0.00    +0.000 OA
ATOM      4  C   UNL     1      40.663  -2.550  12.416  0.00  0.00    +0.000 A 
ATOM      5  C   UNL     1      41.082  -1.773  11.378  0.00  0.00    +0.000 A 
ENDROOT
BRANCH   4   6
ATOM      6  C   UNL     1      39.712  -2.255  13.473  0.00  0.00    +0.000 A 
ATOM      7  C   UNL     1      38.355  -2.565  13.242  0.00  0.00    +0.000 A 
ATOM      8  C   UNL     1      37.378  -2.323  14.175  0.00  0.00    +0.000 A 
ATOM      9  C   UNL     1      37.720  -1.757  15.394  0.00  0.00    +0.000 A 
ATOM     10  C   UNL     1      39.035  -1.437  15.666  0.00  0.00    +0.000 A 
ATOM     11  C   UNL     1      39.960  -1.704  14.687  0.00  0.00    +0.000 A 
BRANCH   9  12
ATOM     12  C   UNL     1      36.745  -1.473  16.428  0.00  0.00    +0.000 A 
ATOM     13  C   UNL     1      37.177  -1.054  17.676  0.00  0.00    +0.000 A 
ATOM     14  C   UNL     1      36.271  -0.783  18.660  0.00  0.00    +0.000 A 
ATOM     15  C   UNL     1      34.908  -0.907  18.477  0.00  0.00    +0.000 A 
ATOM     16  C   UNL     1      34.461  -1.326  17.231  0.00  0.00    +0.000 A 
ATOM     17  C   UNL     1      35.385  -1.598  16.243  0.00  0.00    +0.000 A 
ENDBRANCH   9  12
ENDBRANCH   4   6
BRANCH   1  19
ATOM     18  C   UNL     1      43.617  -0.888   9.656  0.00  0.00    +0.000 C 
ATOM     19  C   UNL     1      42.744  -2.097   9.429  0.00  0.00    +0.000 C 
ATOM     20  C   UNL     1      43.703  -3.238   9.016  0.00  0.00    +0.000 C 
ATOM     21  C   UNL     1      41.803  -1.904   8.241  0.00  0.00    +0.000 C 
ENDBRANCH   1  19
BRANCH   5  22
ATOM     22  C   UNL     1      40.668  -0.423  11.046  0.00  0.00    +0.000 C 
ATOM     23  O   UNL     1      39.768  -0.143  10.237  0.00  0.00    +0.000 OA
ATOM     24  N   UNL     1      41.296   0.728  11.651  0.00  0.00    +0.000 NA
BRANCH  24  25
ATOM     25  C   UNL     1      40.867   2.077  11.305  0.00  0.00    +0.000 C 
BRANCH  25  26
ATOM     26  C   UNL     1      40.399   2.719  12.587  0.00  0.00    +0.000 C 
BRANCH  26  27
ATOM     27  O   UNL     1      39.971   1.752  13.529  0.00  0.00    +0.000 OA
BRANCH  27  28
ATOM     28  C   UNL     1      38.605   1.661  13.813  0.00  0.00    +0.000 A 
ATOM     29  C   UNL     1      38.165   2.118  15.051  0.00  0.00    +0.000 A 
ATOM     30  C   UNL     1      36.839   2.044  15.363  0.00  0.00    +0.000 A 
ATOM     31  C   UNL     1      35.946   1.520  14.456  0.00  0.00    +0.000 A 
ATOM     32  C   UNL     1      36.398   1.069  13.226  0.00  0.00    +0.000 A 
ATOM     33  C   UNL     1      37.732   1.131  12.888  0.00  0.00    +0.000 A 
ENDBRANCH  27  28
ENDBRANCH  26  27
ENDBRANCH  25  26
ENDBRANCH  24  25
ENDBRANCH   5  22
TORSDOF 8
ENDMDL
MODEL 6
REMARK VINA RESULT:      -6.2      8.621     11.624
REMARK  Name = 
REMARK  8 active torsions:
REMARK  status: ('A' for Active; 'I' for Inactive)
REMARK    1  A    between atoms: C_2  and  C_5
REMARK    2  A    between atoms: C_8  and  C_9
REMARK    3  A    between atoms: C_12  and  C_13
REMARK    4  A    between atoms: C_21  and  C_22
REMARK    5  A    between atoms: N_24  and  C_25
REMARK    6  A    between atoms: C_25  and  C_26
REMARK    7  A    between atoms: C_26  and  O_27
REMARK    8  A    between atoms: O_27  and  C_28
REMARK                            x       y       z     vdW  Elec       q    Type
REMARK                         _______ _______ _______ _____ _____    ______ ____
ROOT
ATOM      1  C   UNL     1      44.838   8.508  22.494  0.00  0.00    +0.000 A 
ATOM      2  N   UNL     1      45.034   7.167  22.646  0.00  0.00    +0.000 NA
ATOM      3  O   UNL     1      44.247   6.514  21.896  0.00  0.00    +0.000 OA
ATOM      4  C   UNL     1      43.464   7.345  21.182  0.00  0.00    +0.000 A 
ATOM      5  C   UNL     1      43.824   8.607  21.548  0.00  0.00    +0.000 A 
ENDROOT
BRANCH   4   6
ATOM      6  C   UNL     1      42.459   6.903  20.233  0.00  0.00    +0.000 A 
ATOM      7  C   UNL     1      42.825   6.834  18.872  0.00  0.00    +0.000 A 
ATOM      8  C   UNL     1      41.948   6.432  17.896  0.00  0.00    +0.000 A 
ATOM      9  C   UNL     1      40.653   6.075  18.243  0.00  0.00    +0.000 A 
ATOM     10  C   UNL     1      40.249   6.126  19.561  0.00  0.00    +0.000 A 
ATOM     11  C   UNL     1      41.177   6.539  20.485  0.00  0.00    +0.000 A 
BRANCH   9  12
ATOM     12  C   UNL     1      39.672   5.640  17.268  0.00  0.00    +0.000 A 
ATOM     13  C   UNL     1      38.644   4.801  17.665  0.00  0.00    +0.000 A 
ATOM     14  C   UNL     1      37.713   4.382  16.759  0.00  0.00    +0.000 A 
ATOM     15  C   UNL     1      37.738   4.759  15.432  0.00  0.00    +0.000 A 
ATOM     16  C   UNL     1      38.763   5.600  15.021  0.00  0.00    +0.000 A 
ATOM     17  C   UNL     1      39.700   6.018  15.943  0.00  0.00    +0.000 A 
ENDBRANCH   9  12
ENDBRANCH   4   6
BRANCH   1  19
ATOM     18  C   UNL     1      44.633  10.447  24.038  0.00  0.00    +0.000 C 
ATOM     19  C   UNL     1      45.549   9.593  23.198  0.00  0.00    +0.000 C 
ATOM     20  C   UNL     1      46.567   8.973  24.182  0.00  0.00    +0.000 C 
ATOM     21  C   UNL     1      46.378  10.433  22.227  0.00  0.00    +0.000 C 
ENDBRANCH   1  19
BRANCH   5  22
ATOM     22  C   UNL     1      43.291   9.866  21.063  0.00  0.00    +0.000 C 
ATOM     23  O   UNL     1      43.751  10.499  20.098  0.00  0.00    +0.000 OA
ATOM     24  N   UNL     1      42.151  10.493  21.690  0.00  0.00    +0.000 NA
BRANCH  24  25
ATOM     25  C   UNL     1      41.630  11.758  21.190  0.00  0.00    +0.000 C 
BRANCH  25  26
ATOM     26  C   UNL     1      40.144  11.566  21.007  0.00  0.00    +0.000 C 
BRANCH  26  27
ATOM     27  O   UNL     1      39.779  10.201  21.110  0.00  0.00    +0.000 OA
BRANCH  27  28
ATOM     28  C   UNL     1      39.032   9.634  20.073  0.00  0.00    +0.000 A 
ATOM     29  C   UNL     1      39.530   9.737  18.779  0.00  0.00    +0.000 A 
ATOM     30  C   UNL     1      38.829   9.196  17.742  0.00  0.00    +0.000 A 
ATOM     31  C   UNL     1      37.635   8.552  17.980  0.00  0.00    +0.000 A 
ATOM     32  C   UNL     1      37.150   8.457  19.275  0.00  0.00    +0.000 A 
ATOM     33  C   UNL     1      37.840   8.996  20.338  0.00  0.00    +0.000 A 
ENDBRANCH  27  28
ENDBRANCH  26  27
ENDBRANCH  25  26
ENDBRANCH  24  25
ENDBRANCH   5  22
TORSDOF 8
ENDMDL
MODEL 7
REMARK VINA RESULT:      -6.1      5.045      6.918
REMARK  Name = 
REMARK  8 active torsions:
REMARK  status: ('A' for Active; 'I' for Inactive)
REMARK    1  A    between atoms: C_2  and  C_5
REMARK    2  A    between atoms: C_8  and  C_9
REMARK    3  A    between atoms: C_12  and  C_13
REMARK    4  A    between atoms: C_21  and  C_22
REMARK    5  A    between atoms: N_24  and  C_25
REMARK    6  A    between atoms: C_25  and  C_26
REMARK    7  A    between atoms: C_26  and  O_27
REMARK    8  A    between atoms: O_27  and  C_28
REMARK                            x       y       z     vdW  Elec       q    Type
REMARK                         _______ _______ _______ _____ _____    ______ ____
ROOT
ATOM      1  C   UNL     1      36.808   5.877  14.801  0.00  0.00    +0.000 A 
ATOM      2  N   UNL     1      36.855   7.226  14.995  0.00  0.00    +0.000 NA
ATOM      3  O   UNL     1      37.816   7.532  15.764  0.00  0.00    +0.000 OA
ATOM      4  C   UNL     1      38.492   6.434  16.150  0.00  0.00    +0.000 A 
ATOM      5  C   UNL     1      37.868   5.380  15.551  0.00  0.00    +0.000 A 
ENDROOT
BRANCH   4   6
ATOM      6  C   UNL     1      39.644   6.453  17.032  0.00  0.00    +0.000 A 
ATOM      7  C   UNL     1      39.426   6.217  18.405  0.00  0.00    +0.000 A 
ATOM      8  C   UNL     1      40.447   6.216  19.322  0.00  0.00    +0.000 A 
ATOM      9  C   UNL     1      41.747   6.453  18.899  0.00  0.00    +0.000 A 
ATOM     10  C   UNL     1      42.010   6.690  17.565  0.00  0.00    +0.000 A 
ATOM     11  C   UNL     1      40.942   6.677  16.703  0.00  0.00    +0.000 A 
BRANCH   9  12
ATOM     12  C   UNL     1      42.877   6.468  19.807  0.00  0.00    +0.000 A 
ATOM     13  C   UNL     1      42.674   6.204  21.151  0.00  0.00    +0.000 A 
ATOM     14  C   UNL     1      43.727   6.214  22.019  0.00  0.00    +0.000 A 
ATOM     15  C   UNL     1      45.021   6.482  21.621  0.00  0.00    +0.000 A 
ATOM     16  C   UNL     1      45.239   6.749  20.276  0.00  0.00    +0.000 A 
ATOM     17  C   UNL     1      44.168   6.736  19.407  0.00  0.00    +0.000 A 
ENDBRANCH   9  12
ENDBRANCH   4   6
BRANCH   1  19
ATOM     18  C   UNL     1      35.239   3.950  14.707  0.00  0.00    +0.000 C 
ATOM     19  C   UNL     1      35.833   5.132  13.982  0.00  0.00    +0.000 C 
ATOM     20  C   UNL     1      34.643   6.061  13.647  0.00  0.00    +0.000 C 
ATOM     21  C   UNL     1      36.431   4.732  12.635  0.00  0.00    +0.000 C 
ENDBRANCH   1  19
BRANCH   5  22
ATOM     22  C   UNL     1      38.211   3.973  15.633  0.00  0.00    +0.000 C 
ATOM     23  O   UNL     1      37.944   3.240  16.600  0.00  0.00    +0.000 OA
ATOM     24  N   UNL     1      38.912   3.304  14.562  0.00  0.00    +0.000 NA
BRANCH  24  25
ATOM     25  C   UNL     1      39.250   1.891  14.663  0.00  0.00    +0.000 C 
BRANCH  25  26
ATOM     26  C   UNL     1      38.463   1.185  13.585  0.00  0.00    +0.000 C 
BRANCH  26  27
ATOM     27  O   UNL     1      37.792   0.045  14.092  0.00  0.00    +0.000 OA
BRANCH  27  28
ATOM     28  C   UNL     1      38.560  -0.996  14.623  0.00  0.00    +0.000 A 
ATOM     29  C   UNL     1      38.289  -1.408  15.923  0.00  0.00    +0.000 A 
ATOM     30  C   UNL     1      39.018  -2.421  16.474  0.00  0.00    +0.000 A 
ATOM     31  C   UNL     1      40.015  -3.028  15.743  0.00  0.00    +0.000 A 
ATOM     32  C   UNL     1      40.274  -2.606  14.449  0.00  0.00    +0.000 A 
ATOM     33  C   UNL     1      39.552  -1.586  13.871  0.00  0.00    +0.000 A 
ENDBRANCH  27  28
ENDBRANCH  26  27
ENDBRANCH  25  26
ENDBRANCH  24  25
ENDBRANCH   5  22
TORSDOF 8
ENDMDL
MODEL 8
REMARK VINA RESULT:      -6.0      2.060      7.720
REMARK  Name = 
REMARK  8 active torsions:
REMARK  status: ('A' for Active; 'I' for Inactive)
REMARK    1  A    between atoms: C_2  and  C_5
REMARK    2  A    between atoms: C_8  and  C_9
REMARK    3  A    between atoms: C_12  and  C_13
REMARK    4  A    between atoms: C_21  and  C_22
REMARK    5  A    between atoms: N_24  and  C_25
REMARK    6  A    between atoms: C_25  and  C_26
REMARK    7  A    between atoms: C_26  and  O_27
REMARK    8  A    between atoms: O_27  and  C_28
REMARK                            x       y       z     vdW  Elec       q    Type
REMARK                         _______ _______ _______ _____ _____    ______ ____
ROOT
ATOM      1  C   UNL     1      37.983  -1.367  15.906  0.00  0.00    +0.000 A 
ATOM      2  N   UNL     1      37.527  -0.972  17.129  0.00  0.00    +0.000 NA
ATOM      3  O   UNL     1      37.088   0.216  17.078  0.00  0.00    +0.000 OA
ATOM      4  C   UNL     1      37.206   0.719  15.835  0.00  0.00    +0.000 A 
ATOM      5  C   UNL     1      37.771  -0.268  15.083  0.00  0.00    +0.000 A 
ENDROOT
BRANCH   4   6
ATOM      6  C   UNL     1      36.793   2.057  15.454  0.00  0.00    +0.000 A 
ATOM      7  C   UNL     1      35.452   2.244  15.060  0.00  0.00    +0.000 A 
ATOM      8  C   UNL     1      34.962   3.468  14.679  0.00  0.00    +0.000 A 
ATOM      9  C   UNL     1      35.802   4.571  14.677  0.00  0.00    +0.000 A 
ATOM     10  C   UNL     1      37.123   4.438  15.055  0.00  0.00    +0.000 A 
ATOM     11  C   UNL     1      37.546   3.185  15.423  0.00  0.00    +0.000 A 
BRANCH   9  12
ATOM     12  C   UNL     1      35.358   5.896  14.288  0.00  0.00    +0.000 A 
ATOM     13  C   UNL     1      36.190   6.982  14.497  0.00  0.00    +0.000 A 
ATOM     14  C   UNL     1      35.785   8.235  14.137  0.00  0.00    +0.000 A 
ATOM     15  C   UNL     1      34.558   8.487  13.560  0.00  0.00    +0.000 A 
ATOM     16  C   UNL     1      33.713   7.407  13.344  0.00  0.00    +0.000 A 
ATOM     17  C   UNL     1      34.131   6.144  13.712  0.00  0.00    +0.000 A 
ENDBRANCH   9  12
ENDBRANCH   4   6
BRANCH   1  19
ATOM     18  C   UNL     1      39.884  -2.546  14.818  0.00  0.00    +0.000 C 
ATOM     19  C   UNL     1      38.578  -2.673  15.561  0.00  0.00    +0.000 C 
ATOM     20  C   UNL     1      38.907  -3.438  16.864  0.00  0.00    +0.000 C 
ATOM     21  C   UNL     1      37.580  -3.555  14.810  0.00  0.00    +0.000 C 
ENDBRANCH   1  19
BRANCH   5  22
ATOM     22  C   UNL     1      38.100  -0.239  13.670  0.00  0.00    +0.000 C 
ATOM     23  O   UNL     1      37.530  -0.919  12.802  0.00  0.00    +0.000 OA
ATOM     24  N   UNL     1      39.151   0.610  13.160  0.00  0.00    +0.000 NA
BRANCH  24  25
ATOM     25  C   UNL     1      39.469   0.625  11.738  0.00  0.00    +0.000 C 
BRANCH  25  26
ATOM     26  C   UNL     1      38.838   1.873  11.171  0.00  0.00    +0.000 C 
BRANCH  26  27
ATOM     27  O   UNL     1      38.809   2.921  12.124  0.00  0.00    +0.000 OA
BRANCH  27  28
ATOM     28  C   UNL     1      38.234   4.141  11.753  0.00  0.00    +0.000 A 
ATOM     29  C   UNL     1      36.970   4.116  11.175  0.00  0.00    +0.000 A 
ATOM     30  C   UNL     1      36.378   5.286  10.800  0.00  0.00    +0.000 A 
ATOM     31  C   UNL     1      37.032   6.482  10.993  0.00  0.00    +0.000 A 
ATOM     32  C   UNL     1      38.292   6.491  11.571  0.00  0.00    +0.000 A 
ATOM     33  C   UNL     1      38.911   5.324  11.957  0.00  0.00    +0.000 A 
ENDBRANCH  27  28
ENDBRANCH  26  27
ENDBRANCH  25  26
ENDBRANCH  24  25
ENDBRANCH   5  22
TORSDOF 8
ENDMDL
MODEL 9
REMARK VINA RESULT:      -6.0      2.716      6.331
REMARK  Name = 
REMARK  8 active torsions:
REMARK  status: ('A' for Active; 'I' for Inactive)
REMARK    1  A    between atoms: C_2  and  C_5
REMARK    2  A    between atoms: C_8  and  C_9
REMARK    3  A    between atoms: C_12  and  C_13
REMARK    4  A    between atoms: C_21  and  C_22
REMARK    5  A    between atoms: N_24  and  C_25
REMARK    6  A    between atoms: C_25  and  C_26
REMARK    7  A    between atoms: C_26  and  O_27
REMARK    8  A    between atoms: O_27  and  C_28
REMARK                            x       y       z     vdW  Elec       q    Type
REMARK                         _______ _______ _______ _____ _____    ______ ____
ROOT
ATOM      1  C   UNL     1      40.479  -1.679   9.672  0.00  0.00    +0.000 A 
ATOM      2  N   UNL     1      40.402  -3.002   9.994  0.00  0.00    +0.000 NA
ATOM      3  O   UNL     1      39.957  -3.148  11.173  0.00  0.00    +0.000 OA
ATOM      4  C   UNL     1      39.698  -1.955  11.739  0.00  0.00    +0.000 A 
ATOM      5  C   UNL     1      40.023  -1.017  10.806  0.00  0.00    +0.000 A 
ENDROOT
BRANCH   4   6
ATOM      6  C   UNL     1      39.179  -1.788  13.085  0.00  0.00    +0.000 A 
ATOM      7  C   UNL     1      37.779  -1.731  13.247  0.00  0.00    +0.000 A 
ATOM      8  C   UNL     1      37.188  -1.572  14.475  0.00  0.00    +0.000 A 
ATOM      9  C   UNL     1      37.981  -1.463  15.608  0.00  0.00    +0.000 A 
ATOM     10  C   UNL     1      39.356  -1.512  15.499  0.00  0.00    +0.000 A 
ATOM     11  C   UNL     1      39.879  -1.672  14.241  0.00  0.00    +0.000 A 
BRANCH   9  12
ATOM     12  C   UNL     1      37.430  -1.294  16.938  0.00  0.00    +0.000 A 
ATOM     13  C   UNL     1      36.217  -0.643  17.095  0.00  0.00    +0.000 A 
ATOM     14  C   UNL     1      35.686  -0.475  18.341  0.00  0.00    +0.000 A 
ATOM     15  C   UNL     1      36.306  -0.931  19.487  0.00  0.00    +0.000 A 
ATOM     16  C   UNL     1      37.522  -1.585  19.344  0.00  0.00    +0.000 A 
ATOM     17  C   UNL     1      38.052  -1.749  18.080  0.00  0.00    +0.000 A 
ENDBRANCH   9  12
ENDBRANCH   4   6
BRANCH   1  19
ATOM     18  C   UNL     1      40.066   0.002   7.886  0.00  0.00    +0.000 C 
ATOM     19  C   UNL     1      40.956  -1.103   8.400  0.00  0.00    +0.000 C 
ATOM     20  C   UNL     1      42.341  -0.456   8.628  0.00  0.00    +0.000 C 
ATOM     21  C   UNL     1      41.180  -2.188   7.349  0.00  0.00    +0.000 C 
ENDBRANCH   1  19
BRANCH   5  22
ATOM     22  C   UNL     1      39.919   0.426  10.914  0.00  0.00    +0.000 C 
ATOM     23  O   UNL     1      40.891   1.195  10.998  0.00  0.00    +0.000 OA
ATOM     24  N   UNL     1      38.637   1.090  10.932  0.00  0.00    +0.000 NA
BRANCH  24  25
ATOM     25  C   UNL     1      38.553   2.541  11.042  0.00  0.00    +0.000 C 
BRANCH  25  26
ATOM     26  C   UNL     1      38.543   2.857  12.518  0.00  0.00    +0.000 C 
BRANCH  26  27
ATOM     27  O   UNL     1      37.999   1.791  13.276  0.00  0.00    +0.000 OA
BRANCH  27  28
ATOM     28  C   UNL     1      37.087   2.096  14.291  0.00  0.00    +0.000 A 
ATOM     29  C   UNL     1      37.588   2.603  15.486  0.00  0.00    +0.000 A 
ATOM     30  C   UNL     1      36.728   2.912  16.499  0.00  0.00    +0.000 A 
ATOM     31  C   UNL     1      35.374   2.721  16.335  0.00  0.00    +0.000 A 
ATOM     32  C   UNL     1      34.889   2.216  15.139  0.00  0.00    +0.000 A 
ATOM     33  C   UNL     1      35.737   1.896  14.102  0.00  0.00    +0.000 A 
ENDBRANCH  27  28
ENDBRANCH  26  27
ENDBRANCH  25  26
ENDBRANCH  24  25
ENDBRANCH   5  22
TORSDOF 8
ENDMDL
MODEL 10
REMARK VINA RESULT:      -6.0      3.423      6.963
REMARK  Name = 
REMARK  8 active torsions:
REMARK  status: ('A' for Active; 'I' for Inactive)
REMARK    1  A    between atoms: C_2  and  C_5
REMARK    2  A    between atoms: C_8  and  C_9
REMARK    3  A    between atoms: C_12  and  C_13
REMARK    4  A    between atoms: C_21  and  C_22
REMARK    5  A    between atoms: N_24  and  C_25
REMARK    6  A    between atoms: C_25  and  C_26
REMARK    7  A    between atoms: C_26  and  O_27
REMARK    8  A    between atoms: O_27  and  C_28
REMARK                            x       y       z     vdW  Elec       q    Type
REMARK                         _______ _______ _______ _____ _____    ______ ____
ROOT
ATOM      1  C   UNL     1      43.330  -2.321  11.813  0.00  0.00    +0.000 A 
ATOM      2  N   UNL     1      42.838  -3.586  11.684  0.00  0.00    +0.000 NA
ATOM      3  O   UNL     1      41.735  -3.700  12.300  0.00  0.00    +0.000 OA
ATOM      4  C   UNL     1      41.393  -2.539  12.889  0.00  0.00    +0.000 A 
ATOM      5  C   UNL     1      42.389  -1.658  12.592  0.00  0.00    +0.000 A 
ENDROOT
BRANCH   4   6
ATOM      6  C   UNL     1      40.184  -2.347  13.671  0.00  0.00    +0.000 A 
ATOM      7  C   UNL     1      40.315  -1.775  14.953  0.00  0.00    +0.000 A 
ATOM      8  C   UNL     1      39.235  -1.554  15.772  0.00  0.00    +0.000 A 
ATOM      9  C   UNL     1      37.964  -1.899  15.337  0.00  0.00    +0.000 A 
ATOM     10  C   UNL     1      37.787  -2.462  14.090  0.00  0.00    +0.000 A 
ATOM     11  C   UNL     1      38.909  -2.656  13.324  0.00  0.00    +0.000 A 
BRANCH   9  12
ATOM     12  C   UNL     1      36.777  -1.696  16.144  0.00  0.00    +0.000 A 
ATOM     13  C   UNL     1      36.852  -0.906  17.279  0.00  0.00    +0.000 A 
ATOM     14  C   UNL     1      35.743  -0.706  18.050  0.00  0.00    +0.000 A 
ATOM     15  C   UNL     1      34.516  -1.262  17.753  0.00  0.00    +0.000 A 
ATOM     16  C   UNL     1      34.426  -2.056  16.618  0.00  0.00    +0.000 A 
ATOM     17  C   UNL     1      35.553  -2.253  15.845  0.00  0.00    +0.000 A 
ENDBRANCH   9  12
ENDBRANCH   4   6
BRANCH   1  19
ATOM     18  C   UNL     1      45.654  -1.578  12.298  0.00  0.00    +0.000 C 
ATOM     19  C   UNL     1      44.591  -1.799  11.251  0.00  0.00    +0.000 C 
ATOM     20  C   UNL     1      45.175  -2.841  10.270  0.00  0.00    +0.000 C 
ATOM     21  C   UNL     1      44.346  -0.543  10.415  0.00  0.00    +0.000 C 
ENDBRANCH   1  19
BRANCH   5  22
ATOM     22  C   UNL     1      42.496  -0.264  12.978  0.00  0.00    +0.000 C 
ATOM     23  O   UNL     1      43.231   0.159  13.886  0.00  0.00    +0.000 OA
ATOM     24  N   UNL     1      41.728   0.763  12.314  0.00  0.00    +0.000 NA
BRANCH  24  25
ATOM     25  C   UNL     1      41.847   2.158  12.717  0.00  0.00    +0.000 C 
BRANCH  25  26
ATOM     26  C   UNL     1      40.446   2.644  12.995  0.00  0.00    +0.000 C 
BRANCH  26  27
ATOM     27  O   UNL     1      39.906   2.041  14.157  0.00  0.00    +0.000 OA
BRANCH  27  28
ATOM     28  C   UNL     1      38.530   1.794  14.199  0.00  0.00    +0.000 A 
ATOM     29  C   UNL     1      37.958   1.106  13.134  0.00  0.00    +0.000 A 
ATOM     30  C   UNL     1      36.619   0.848  13.140  0.00  0.00    +0.000 A 
ATOM     31  C   UNL     1      35.842   1.268  14.196  0.00  0.00    +0.000 A 
ATOM     32  C   UNL     1      36.425   1.953  15.251  0.00  0.00    +0.000 A 
ATOM     33  C   UNL     1      37.774   2.226  15.267  0.00  0.00    +0.000 A 
ENDBRANCH  27  28
ENDBRANCH  26  27
ENDBRANCH  25  26
ENDBRANCH  24  25
ENDBRANCH   5  22
TORSDOF 8
ENDMDL
