MODEL 1
REMARK VINA RESULT:      -8.6      0.000      0.000
REMARK  Name = 
REMARK  8 active torsions:
REMARK  status: ('A' for Active; 'I' for Inactive)
REMARK    1  A    between atoms: C_2  and  O_3
REMARK    2  A    between atoms: O_3  and  C_4
REMARK    3  A    between atoms: C_9  and  C_10
REMARK    4  A    between atoms: C_13  and  C_14
REMARK    5  A    between atoms: C_20  and  C_21
REMARK    6  A    between atoms: N_23  and  C_24
REMARK    7  A    between atoms: C_24  and  C_25
REMARK    8  A    between atoms: C_28  and  C_29
REMARK                            x       y       z     vdW  Elec       q    Type
REMARK                         _______ _______ _______ _____ _____    ______ ____
ROOT
ATOM      1  C   UNL     1      38.105  -2.973  16.074  0.00  0.00    +0.000 C 
ATOM      2  O   UNL     1      39.297  -3.375  16.896  0.00  0.00    +0.000 OA
ATOM      3  N   UNL     1      40.199  -3.458  15.835  0.00  0.00    +0.000 NA
ATOM      4  C   UNL     1      40.021  -2.156  15.244  0.00  0.00    +0.000 C 
ATOM      5  C   UNL     1      38.801  -1.757  15.336  0.00  0.00    +0.000 C 
ENDROOT
BRANCH   1  11
ATOM      6  C   UNL     1      35.998  -1.972  16.986  0.00  0.00    +0.000 A 
ATOM      7  C   UNL     1      35.353  -1.259  17.974  0.00  0.00    +0.000 A 
ATOM      8  C   UNL     1      35.982  -0.801  19.095  0.00  0.00    +0.000 A 
ATOM      9  C   UNL     1      37.340  -1.053  19.289  0.00  0.00    +0.000 A 
ATOM     10  C   UNL     1      37.992  -1.758  18.313  0.00  0.00    +0.000 A 
ATOM     11  C   UNL     1      37.358  -2.178  17.251  0.00  0.00    +0.000 A 
BRANCH   6  12
ATOM     12  O   UNL     1      35.438  -2.463  15.850  0.00  0.00    +0.000 OA
BRANCH  12  14
ATOM     13  C   UNL     1      34.822  -4.467  14.614  0.00  0.00    +0.000 C 
ATOM     14  C   UNL     1      34.499  -3.399  15.590  0.00  0.00    +0.000 C 
ENDBRANCH  12  14
ENDBRANCH   6  12
ENDBRANCH   1  11
BRANCH   4  15
ATOM     15  C   UNL     1      41.153  -1.454  14.623  0.00  0.00    +0.000 A 
ATOM     16  C   UNL     1      41.066  -0.160  14.200  0.00  0.00    +0.000 A 
ATOM     17  C   UNL     1      42.113   0.499  13.610  0.00  0.00    +0.000 A 
ATOM     18  C   UNL     1      43.331  -0.136  13.415  0.00  0.00    +0.000 A 
ATOM     19  C   UNL     1      43.428  -1.451  13.847  0.00  0.00    +0.000 A 
ATOM     20  C   UNL     1      42.357  -2.080  14.429  0.00  0.00    +0.000 A 
ENDBRANCH   4  15
BRANCH   5  21
ATOM     21  C   UNL     1      38.152  -0.557  14.946  0.00  0.00    +0.000 C 
ATOM     22  O   UNL     1      37.531  -0.580  13.817  0.00  0.00    +0.000 OA
ATOM     23  N   UNL     1      38.089   0.666  15.612  0.00  0.00    +0.000 NA
BRANCH  23  24
ATOM     24  C   UNL     1      37.413   1.831  15.213  0.00  0.00    +0.000 C 
BRANCH  24  25
ATOM     25  C   UNL     1      38.036   3.050  15.778  0.00  0.00    +0.000 A 
ATOM     26  C   UNL     1      38.997   3.748  15.163  0.00  0.00    +0.000 A 
ATOM     27  C   UNL     1      39.550   4.891  15.727  0.00  0.00    +0.000 A 
ATOM     28  C   UNL     1      39.062   5.283  16.959  0.00  0.00    +0.000 A 
ATOM     29  C   UNL     1      38.086   4.579  17.592  0.00  0.00    +0.000 A 
ATOM     30  C   UNL     1      37.549   3.457  17.036  0.00  0.00    +0.000 A 
BRANCH  28  31
ATOM     31  C   UNL     1      39.587   6.510  17.677  0.00  0.00    +0.000 C 
ATOM     32  C   UNL     1      39.374   6.318  19.180  0.00  0.00    +0.000 C 
ATOM     33  C   UNL     1      41.025   6.750  17.332  0.00  0.00    +0.000 C 
ATOM     34  C   UNL     1      38.708   7.668  17.210  0.00  0.00    +0.000 C 
ENDBRANCH  28  31
ENDBRANCH  24  25
ENDBRANCH  23  24
ENDBRANCH   5  21
TORSDOF 8
ENDMDL
MODEL 2
REMARK VINA RESULT:      -8.3      2.878      7.771
REMARK  Name = 
REMARK  8 active torsions:
REMARK  status: ('A' for Active; 'I' for Inactive)
REMARK    1  A    between atoms: C_2  and  O_3
REMARK    2  A    between atoms: O_3  and  C_4
REMARK    3  A    between atoms: C_9  and  C_10
REMARK    4  A    between atoms: C_13  and  C_14
REMARK    5  A    between atoms: C_20  and  C_21
REMARK    6  A    between atoms: N_23  and  C_24
REMARK    7  A    between atoms: C_24  and  C_25
REMARK    8  A    between atoms: C_28  and  C_29
REMARK                            x       y       z     vdW  Elec       q    Type
REMARK                         _______ _______ _______ _____ _____    ______ ____
ROOT
ATOM      1  C   UNL     1      38.831   4.052  13.548  0.00  0.00    +0.000 C 
ATOM      2  O   UNL     1      40.260   4.357  13.897  0.00  0.00    +0.000 OA
ATOM      3  N   UNL     1      40.013   5.586  14.511  0.00  0.00    +0.000 NA
ATOM      4  C   UNL     1      39.008   5.197  15.467  0.00  0.00    +0.000 C 
ATOM      5  C   UNL     1      38.242   4.274  15.000  0.00  0.00    +0.000 C 
ENDROOT
BRANCH   1  11
ATOM      6  C   UNL     1      38.248   1.820  12.569  0.00  0.00    +0.000 A 
ATOM      7  C   UNL     1      38.356   0.446  12.599  0.00  0.00    +0.000 A 
ATOM      8  C   UNL     1      39.116  -0.223  13.514  0.00  0.00    +0.000 A 
ATOM      9  C   UNL     1      39.839   0.484  14.476  0.00  0.00    +0.000 A 
ATOM     10  C   UNL     1      39.738   1.849  14.458  0.00  0.00    +0.000 A 
ATOM     11  C   UNL     1      38.997   2.455  13.568  0.00  0.00    +0.000 A 
BRANCH   6  12
ATOM     12  O   UNL     1      37.518   2.553  11.688  0.00  0.00    +0.000 OA
BRANCH  12  14
ATOM     13  C   UNL     1      36.796   3.901   9.795  0.00  0.00    +0.000 C 
ATOM     14  C   UNL     1      37.611   2.800  10.364  0.00  0.00    +0.000 C 
ENDBRANCH  12  14
ENDBRANCH   6  12
ENDBRANCH   1  11
BRANCH   4  15
ATOM     15  C   UNL     1      38.937   5.845  16.784  0.00  0.00    +0.000 A 
ATOM     16  C   UNL     1      38.264   7.014  16.987  0.00  0.00    +0.000 A 
ATOM     17  C   UNL     1      38.203   7.631  18.209  0.00  0.00    +0.000 A 
ATOM     18  C   UNL     1      38.834   7.081  19.315  0.00  0.00    +0.000 A 
ATOM     19  C   UNL     1      39.517   5.889  19.117  0.00  0.00    +0.000 A 
ATOM     20  C   UNL     1      39.562   5.302  17.877  0.00  0.00    +0.000 A 
ENDBRANCH   4  15
BRANCH   5  21
ATOM     21  C   UNL     1      37.156   3.553  15.562  0.00  0.00    +0.000 C 
ATOM     22  O   UNL     1      36.001   3.744  15.023  0.00  0.00    +0.000 OA
ATOM     23  N   UNL     1      37.152   2.658  16.630  0.00  0.00    +0.000 NA
BRANCH  23  24
ATOM     24  C   UNL     1      36.063   1.937  17.147  0.00  0.00    +0.000 C 
BRANCH  24  25
ATOM     25  C   UNL     1      36.127   0.504  16.780  0.00  0.00    +0.000 A 
ATOM     26  C   UNL     1      36.321  -0.483  17.662  0.00  0.00    +0.000 A 
ATOM     27  C   UNL     1      36.368  -1.816  17.276  0.00  0.00    +0.000 A 
ATOM     28  C   UNL     1      36.204  -2.086  15.931  0.00  0.00    +0.000 A 
ATOM     29  C   UNL     1      36.006  -1.090  15.025  0.00  0.00    +0.000 A 
ATOM     30  C   UNL     1      35.963   0.217  15.410  0.00  0.00    +0.000 A 
BRANCH  28  31
ATOM     31  C   UNL     1      36.239  -3.499  15.385  0.00  0.00    +0.000 C 
ATOM     32  C   UNL     1      37.040  -3.495  14.082  0.00  0.00    +0.000 C 
ATOM     33  C   UNL     1      36.806  -4.444  16.400  0.00  0.00    +0.000 C 
ATOM     34  C   UNL     1      34.789  -3.850  15.057  0.00  0.00    +0.000 C 
ENDBRANCH  28  31
ENDBRANCH  24  25
ENDBRANCH  23  24
ENDBRANCH   5  21
TORSDOF 8
ENDMDL
MODEL 3
REMARK VINA RESULT:      -8.3      1.687      5.462
REMARK  Name = 
REMARK  8 active torsions:
REMARK  status: ('A' for Active; 'I' for Inactive)
REMARK    1  A    between atoms: C_2  and  O_3
REMARK    2  A    between atoms: O_3  and  C_4
REMARK    3  A    between atoms: C_9  and  C_10
REMARK    4  A    between atoms: C_13  and  C_14
REMARK    5  A    between atoms: C_20  and  C_21
REMARK    6  A    between atoms: N_23  and  C_24
REMARK    7  A    between atoms: C_24  and  C_25
REMARK    8  A    between atoms: C_28  and  C_29
REMARK                            x       y       z     vdW  Elec       q    Type
REMARK                         _______ _______ _______ _____ _____    ______ ____
ROOT
ATOM      1  C   UNL     1      40.424  -1.694  15.069  0.00  0.00    +0.000 C 
ATOM      2  O   UNL     1      39.877  -3.093  15.101  0.00  0.00    +0.000 OA
ATOM      3  N   UNL     1      39.197  -2.967  16.313  0.00  0.00    +0.000 NA
ATOM      4  C   UNL     1      38.408  -1.792  16.045  0.00  0.00    +0.000 C 
ATOM      5  C   UNL     1      39.042  -0.957  15.299  0.00  0.00    +0.000 C 
ENDROOT
BRANCH   1  11
ATOM      6  C   UNL     1      41.478  -0.667  13.041  0.00  0.00    +0.000 A 
ATOM      7  C   UNL     1      41.543  -0.547  11.669  0.00  0.00    +0.000 A 
ATOM      8  C   UNL     1      40.748  -1.260  10.820  0.00  0.00    +0.000 A 
ATOM      9  C   UNL     1      39.819  -2.169  11.326  0.00  0.00    +0.000 A 
ATOM     10  C   UNL     1      39.743  -2.296  12.686  0.00  0.00    +0.000 A 
ATOM     11  C   UNL     1      40.518  -1.593  13.470  0.00  0.00    +0.000 A 
BRANCH   6  12
ATOM     12  O   UNL     1      42.238   0.003  13.947  0.00  0.00    +0.000 OA
BRANCH  12  14
ATOM     13  C   UNL     1      44.328  -0.471  15.099  0.00  0.00    +0.000 C 
ATOM     14  C   UNL     1      43.559   0.258  14.063  0.00  0.00    +0.000 C 
ENDBRANCH  12  14
ENDBRANCH   6  12
ENDBRANCH   1  11
BRANCH   4  15
ATOM     15  C   UNL     1      37.059  -1.650  16.612  0.00  0.00    +0.000 A 
ATOM     16  C   UNL     1      35.966  -2.242  16.051  0.00  0.00    +0.000 A 
ATOM     17  C   UNL     1      34.703  -2.104  16.566  0.00  0.00    +0.000 A 
ATOM     18  C   UNL     1      34.480  -1.343  17.704  0.00  0.00    +0.000 A 
ATOM     19  C   UNL     1      35.589  -0.741  18.282  0.00  0.00    +0.000 A 
ATOM     20  C   UNL     1      36.837  -0.896  17.735  0.00  0.00    +0.000 A 
ENDBRANCH   4  15
BRANCH   5  21
ATOM     21  C   UNL     1      38.681   0.298  14.742  0.00  0.00    +0.000 C 
ATOM     22  O   UNL     1      37.765   0.283  13.836  0.00  0.00    +0.000 OA
ATOM     23  N   UNL     1      39.183   1.566  15.032  0.00  0.00    +0.000 NA
BRANCH  23  24
ATOM     24  C   UNL     1      38.786   2.796  14.483  0.00  0.00    +0.000 C 
BRANCH  24  25
ATOM     25  C   UNL     1      39.002   3.916  15.427  0.00  0.00    +0.000 A 
ATOM     26  C   UNL     1      39.849   4.927  15.202  0.00  0.00    +0.000 A 
ATOM     27  C   UNL     1      40.016   5.962  16.113  0.00  0.00    +0.000 A 
ATOM     28  C   UNL     1      39.266   5.907  17.272  0.00  0.00    +0.000 A 
ATOM     29  C   UNL     1      38.402   4.883  17.510  0.00  0.00    +0.000 A 
ATOM     30  C   UNL     1      38.243   3.869  16.614  0.00  0.00    +0.000 A 
BRANCH  28  31
ATOM     31  C   UNL     1      39.362   6.975  18.343  0.00  0.00    +0.000 C 
ATOM     32  C   UNL     1      40.353   8.041  17.873  0.00  0.00    +0.000 C 
ATOM     33  C   UNL     1      38.009   7.546  18.643  0.00  0.00    +0.000 C 
ATOM     34  C   UNL     1      39.949   6.278  19.568  0.00  0.00    +0.000 C 
ENDBRANCH  28  31
ENDBRANCH  24  25
ENDBRANCH  23  24
ENDBRANCH   5  21
TORSDOF 8
ENDMDL
MODEL 4
REMARK VINA RESULT:      -8.1      2.365      5.831
REMARK  Name = 
REMARK  8 active torsions:
REMARK  status: ('A' for Active; 'I' for Inactive)
REMARK    1  A    between atoms: C_2  and  O_3
REMARK    2  A    between atoms: O_3  and  C_4
REMARK    3  A    between atoms: C_9  and  C_10
REMARK    4  A    between atoms: C_13  and  C_14
REMARK    5  A    between atoms: C_20  and  C_21
REMARK    6  A    between atoms: N_23  and  C_24
REMARK    7  A    between atoms: C_24  and  C_25
REMARK    8  A    between atoms: C_28  and  C_29
REMARK                            x       y       z     vdW  Elec       q    Type
REMARK                         _______ _______ _______ _____ _____    ______ ____
ROOT
ATOM      1  C   UNL     1      39.119  -0.144  13.765  0.00  0.00    +0.000 C 
ATOM      2  O   UNL     1      38.426  -1.455  13.521  0.00  0.00    +0.000 OA
ATOM      3  N   UNL     1      38.340  -1.839  14.859  0.00  0.00    +0.000 NA
ATOM      4  C   UNL     1      37.702  -0.675  15.420  0.00  0.00    +0.000 C 
ATOM      5  C   UNL     1      38.088   0.405  14.835  0.00  0.00    +0.000 C 
ENDROOT
BRANCH   1  11
ATOM      6  C   UNL     1      39.404   1.595  11.984  0.00  0.00    +0.000 A 
ATOM      7  C   UNL     1      38.911   2.251  10.876  0.00  0.00    +0.000 A 
ATOM      8  C   UNL     1      37.713   1.946  10.299  0.00  0.00    +0.000 A 
ATOM      9  C   UNL     1      36.925   0.920  10.822  0.00  0.00    +0.000 A 
ATOM     10  C   UNL     1      37.402   0.262  11.923  0.00  0.00    +0.000 A 
ATOM     11  C   UNL     1      38.553   0.585  12.452  0.00  0.00    +0.000 A 
BRANCH   6  12
ATOM     12  O   UNL     1      40.586   1.839  12.607  0.00  0.00    +0.000 OA
BRANCH  12  14
ATOM     13  C   UNL     1      41.268   4.144  12.988  0.00  0.00    +0.000 C 
ATOM     14  C   UNL     1      41.545   2.781  12.473  0.00  0.00    +0.000 C 
ENDBRANCH  12  14
ENDBRANCH   6  12
ENDBRANCH   1  11
BRANCH   4  15
ATOM     15  C   UNL     1      36.752  -0.805  16.533  0.00  0.00    +0.000 A 
ATOM     16  C   UNL     1      37.158  -0.909  17.831  0.00  0.00    +0.000 A 
ATOM     17  C   UNL     1      36.279  -1.043  18.874  0.00  0.00    +0.000 A 
ATOM     18  C   UNL     1      34.910  -1.077  18.649  0.00  0.00    +0.000 A 
ATOM     19  C   UNL     1      34.489  -0.968  17.331  0.00  0.00    +0.000 A 
ATOM     20  C   UNL     1      35.399  -0.841  16.311  0.00  0.00    +0.000 A 
ENDBRANCH   4  15
BRANCH   5  21
ATOM     21  C   UNL     1      37.727   1.767  14.999  0.00  0.00    +0.000 C 
ATOM     22  O   UNL     1      36.520   2.084  14.677  0.00  0.00    +0.000 OA
ATOM     23  N   UNL     1      38.497   2.833  15.461  0.00  0.00    +0.000 NA
BRANCH  23  24
ATOM     24  C   UNL     1      38.102   4.169  15.640  0.00  0.00    +0.000 C 
BRANCH  24  25
ATOM     25  C   UNL     1      38.968   4.874  16.613  0.00  0.00    +0.000 A 
ATOM     26  C   UNL     1      38.729   4.915  17.928  0.00  0.00    +0.000 A 
ATOM     27  C   UNL     1      39.572   5.583  18.807  0.00  0.00    +0.000 A 
ATOM     28  C   UNL     1      40.678   6.208  18.264  0.00  0.00    +0.000 A 
ATOM     29  C   UNL     1      40.930   6.171  16.928  0.00  0.00    +0.000 A 
ATOM     30  C   UNL     1      40.098   5.516  16.070  0.00  0.00    +0.000 A 
BRANCH  28  31
ATOM     31  C   UNL     1      41.670   6.971  19.119  0.00  0.00    +0.000 C 
ATOM     32  C   UNL     1      41.775   6.272  20.476  0.00  0.00    +0.000 C 
ATOM     33  C   UNL     1      42.995   7.073  18.427  0.00  0.00    +0.000 C 
ATOM     34  C   UNL     1      41.054   8.350  19.334  0.00  0.00    +0.000 C 
ENDBRANCH  28  31
ENDBRANCH  24  25
ENDBRANCH  23  24
ENDBRANCH   5  21
TORSDOF 8
ENDMDL
MODEL 5
REMARK VINA RESULT:      -8.0      7.257     10.279
REMARK  Name = 
REMARK  8 active torsions:
REMARK  status: ('A' for Active; 'I' for Inactive)
REMARK    1  A    between atoms: C_2  and  O_3
REMARK    2  A    between atoms: O_3  and  C_4
REMARK    3  A    between atoms: C_9  and  C_10
REMARK    4  A    between atoms: C_13  and  C_14
REMARK    5  A    between atoms: C_20  and  C_21
REMARK    6  A    between atoms: N_23  and  C_24
REMARK    7  A    between atoms: C_24  and  C_25
REMARK    8  A    between atoms: C_28  and  C_29
REMARK                            x       y       z     vdW  Elec       q    Type
REMARK                         _______ _______ _______ _____ _____    ______ ____
ROOT
ATOM      1  C   UNL     1      37.620  10.537  16.789  0.00  0.00    +0.000 C 
ATOM      2  O   UNL     1      36.170  10.827  17.056  0.00  0.00    +0.000 OA
ATOM      3  N   UNL     1      35.740  10.708  15.734  0.00  0.00    +0.000 NA
ATOM      4  C   UNL     1      36.262   9.405  15.410  0.00  0.00    +0.000 C 
ATOM      5  C   UNL     1      37.387   9.187  15.994  0.00  0.00    +0.000 C 
ENDROOT
BRANCH   1  11
ATOM      6  C   UNL     1      39.292  10.028  18.584  0.00  0.00    +0.000 A 
ATOM      7  C   UNL     1      39.581   9.485  19.818  0.00  0.00    +0.000 A 
ATOM      8  C   UNL     1      38.637   8.917  20.622  0.00  0.00    +0.000 A 
ATOM      9  C   UNL     1      37.304   8.871  20.214  0.00  0.00    +0.000 A 
ATOM     10  C   UNL     1      37.004   9.405  18.990  0.00  0.00    +0.000 A 
ATOM     11  C   UNL     1      37.936   9.938  18.244  0.00  0.00    +0.000 A 
BRANCH   6  12
ATOM     12  O   UNL     1      40.175  10.613  17.733  0.00  0.00    +0.000 OA
BRANCH  12  14
ATOM     13  C   UNL     1      42.585  10.342  17.929  0.00  0.00    +0.000 C 
ATOM     14  C   UNL     1      41.329  10.217  17.153  0.00  0.00    +0.000 C 
ENDBRANCH  12  14
ENDBRANCH   6  12
ENDBRANCH   1  11
BRANCH   4  15
ATOM     15  C   UNL     1      35.531   8.511  14.501  0.00  0.00    +0.000 A 
ATOM     16  C   UNL     1      34.286   8.034  14.791  0.00  0.00    +0.000 A 
ATOM     17  C   UNL     1      33.603   7.191  13.954  0.00  0.00    +0.000 A 
ATOM     18  C   UNL     1      34.159   6.779  12.752  0.00  0.00    +0.000 A 
ATOM     19  C   UNL     1      35.424   7.263  12.448  0.00  0.00    +0.000 A 
ATOM     20  C   UNL     1      36.081   8.102  13.313  0.00  0.00    +0.000 A 
ENDBRANCH   4  15
BRANCH   5  21
ATOM     21  C   UNL     1      38.254   8.063  16.018  0.00  0.00    +0.000 C 
ATOM     22  O   UNL     1      39.247   8.087  15.197  0.00  0.00    +0.000 OA
ATOM     23  N   UNL     1      38.187   6.917  16.807  0.00  0.00    +0.000 NA
BRANCH  23  24
ATOM     24  C   UNL     1      39.078   5.831  16.828  0.00  0.00    +0.000 C 
BRANCH  24  25
ATOM     25  C   UNL     1      40.250   6.097  17.693  0.00  0.00    +0.000 A 
ATOM     26  C   UNL     1      41.463   6.414  17.226  0.00  0.00    +0.000 A 
ATOM     27  C   UNL     1      42.534   6.663  18.074  0.00  0.00    +0.000 A 
ATOM     28  C   UNL     1      42.295   6.570  19.432  0.00  0.00    +0.000 A 
ATOM     29  C   UNL     1      41.066   6.249  19.916  0.00  0.00    +0.000 A 
ATOM     30  C   UNL     1      40.019   6.003  19.080  0.00  0.00    +0.000 A 
BRANCH  28  31
ATOM     31  C   UNL     1      43.384   6.816  20.458  0.00  0.00    +0.000 C 
ATOM     32  C   UNL     1      43.212   8.230  21.014  0.00  0.00    +0.000 C 
ATOM     33  C   UNL     1      43.344   5.772  21.531  0.00  0.00    +0.000 C 
ATOM     34  C   UNL     1      44.699   6.759  19.684  0.00  0.00    +0.000 C 
ENDBRANCH  28  31
ENDBRANCH  24  25
ENDBRANCH  23  24
ENDBRANCH   5  21
TORSDOF 8
ENDMDL
MODEL 6
REMARK VINA RESULT:      -7.8      3.802      7.487
REMARK  Name = 
REMARK  8 active torsions:
REMARK  status: ('A' for Active; 'I' for Inactive)
REMARK    1  A    between atoms: C_2  and  O_3
REMARK    2  A    between atoms: O_3  and  C_4
REMARK    3  A    between atoms: C_9  and  C_10
REMARK    4  A    between atoms: C_13  and  C_14
REMARK    5  A    between atoms: C_20  and  C_21
REMARK    6  A    between atoms: N_23  and  C_24
REMARK    7  A    between atoms: C_24  and  C_25
REMARK    8  A    between atoms: C_28  and  C_29
REMARK                            x       y       z     vdW  Elec       q    Type
REMARK                         _______ _______ _______ _____ _____    ______ ____
ROOT
ATOM      1  C   UNL     1      40.625  -1.708  15.083  0.00  0.00    +0.000 C 
ATOM      2  O   UNL     1      40.126  -3.113  15.265  0.00  0.00    +0.000 OA
ATOM      3  N   UNL     1      39.476  -2.893  16.480  0.00  0.00    +0.000 NA
ATOM      4  C   UNL     1      38.641  -1.774  16.125  0.00  0.00    +0.000 C 
ATOM      5  C   UNL     1      39.226  -0.995  15.283  0.00  0.00    +0.000 C 
ENDROOT
BRANCH   1  11
ATOM      6  C   UNL     1      41.577  -0.840  12.934  0.00  0.00    +0.000 A 
ATOM      7  C   UNL     1      41.600  -0.851  11.556  0.00  0.00    +0.000 A 
ATOM      8  C   UNL     1      40.815  -1.675  10.803  0.00  0.00    +0.000 A 
ATOM      9  C   UNL     1      39.940  -2.568  11.423  0.00  0.00    +0.000 A 
ATOM     10  C   UNL     1      39.907  -2.565  12.791  0.00  0.00    +0.000 A 
ATOM     11  C   UNL     1      40.671  -1.759  13.479  0.00  0.00    +0.000 A 
BRANCH   6  12
ATOM     12  O   UNL     1      42.332  -0.055  13.747  0.00  0.00    +0.000 OA
BRANCH  12  14
ATOM     13  C   UNL     1      44.356  -0.325  15.070  0.00  0.00    +0.000 C 
ATOM     14  C   UNL     1      43.656   0.181  13.865  0.00  0.00    +0.000 C 
ENDBRANCH  12  14
ENDBRANCH   6  12
ENDBRANCH   1  11
BRANCH   4  15
ATOM     15  C   UNL     1      37.305  -1.619  16.717  0.00  0.00    +0.000 A 
ATOM     16  C   UNL     1      36.170  -2.009  16.068  0.00  0.00    +0.000 A 
ATOM     17  C   UNL     1      34.919  -1.857  16.608  0.00  0.00    +0.000 A 
ATOM     18  C   UNL     1      34.751  -1.291  17.864  0.00  0.00    +0.000 A 
ATOM     19  C   UNL     1      35.903  -0.896  18.531  0.00  0.00    +0.000 A 
ATOM     20  C   UNL     1      37.138  -1.058  17.957  0.00  0.00    +0.000 A 
ENDBRANCH   4  15
BRANCH   5  21
ATOM     21  C   UNL     1      38.808   0.189  14.622  0.00  0.00    +0.000 C 
ATOM     22  O   UNL     1      39.426   1.273  14.941  0.00  0.00    +0.000 OA
ATOM     23  N   UNL     1      37.808   0.356  13.665  0.00  0.00    +0.000 NA
BRANCH  23  24
ATOM     24  C   UNL     1      37.435   1.539  13.006  0.00  0.00    +0.000 C 
BRANCH  24  25
ATOM     25  C   UNL     1      37.725   1.476  11.555  0.00  0.00    +0.000 A 
ATOM     26  C   UNL     1      38.949   1.618  11.034  0.00  0.00    +0.000 A 
ATOM     27  C   UNL     1      39.177   1.544   9.666  0.00  0.00    +0.000 A 
ATOM     28  C   UNL     1      38.081   1.315   8.857  0.00  0.00    +0.000 A 
ATOM     29  C   UNL     1      36.832   1.170   9.378  0.00  0.00    +0.000 A 
ATOM     30  C   UNL     1      36.613   1.245  10.720  0.00  0.00    +0.000 A 
BRANCH  28  31
ATOM     31  C   UNL     1      38.201   1.218   7.349  0.00  0.00    +0.000 C 
ATOM     32  C   UNL     1      36.824   0.878   6.776  0.00  0.00    +0.000 C 
ATOM     33  C   UNL     1      38.758   2.487   6.780  0.00  0.00    +0.000 C 
ATOM     34  C   UNL     1      39.136   0.040   7.086  0.00  0.00    +0.000 C 
ENDBRANCH  28  31
ENDBRANCH  24  25
ENDBRANCH  23  24
ENDBRANCH   5  21
TORSDOF 8
ENDMDL
MODEL 7
REMARK VINA RESULT:      -7.5      3.284      6.906
REMARK  Name = 
REMARK  8 active torsions:
REMARK  status: ('A' for Active; 'I' for Inactive)
REMARK    1  A    between atoms: C_2  and  O_3
REMARK    2  A    between atoms: O_3  and  C_4
REMARK    3  A    between atoms: C_9  and  C_10
REMARK    4  A    between atoms: C_13  and  C_14
REMARK    5  A    between atoms: C_20  and  C_21
REMARK    6  A    between atoms: N_23  and  C_24
REMARK    7  A    between atoms: C_24  and  C_25
REMARK    8  A    between atoms: C_28  and  C_29
REMARK                            x       y       z     vdW  Elec       q    Type
REMARK                         _______ _______ _______ _____ _____    ______ ____
ROOT
ATOM      1  C   UNL     1      38.345   4.506  13.526  0.00  0.00    +0.000 C 
ATOM      2  O   UNL     1      37.599   3.797  12.432  0.00  0.00    +0.000 OA
ATOM      3  N   UNL     1      38.232   2.563  12.584  0.00  0.00    +0.000 NA
ATOM      4  C   UNL     1      38.019   2.337  13.991  0.00  0.00    +0.000 C 
ATOM      5  C   UNL     1      38.058   3.437  14.658  0.00  0.00    +0.000 C 
ENDROOT
BRANCH   1  11
ATOM      6  C   UNL     1      37.662   6.715  14.492  0.00  0.00    +0.000 A 
ATOM      7  C   UNL     1      36.668   7.614  14.812  0.00  0.00    +0.000 A 
ATOM      8  C   UNL     1      35.349   7.397  14.536  0.00  0.00    +0.000 A 
ATOM      9  C   UNL     1      34.951   6.225  13.894  0.00  0.00    +0.000 A 
ATOM     10  C   UNL     1      35.929   5.323  13.573  0.00  0.00    +0.000 A 
ATOM     11  C   UNL     1      37.182   5.562  13.856  0.00  0.00    +0.000 A 
BRANCH   6  12
ATOM     12  O   UNL     1      38.992   6.864  14.729  0.00  0.00    +0.000 OA
BRANCH  12  14
ATOM     13  C   UNL     1      40.969   7.681  15.890  0.00  0.00    +0.000 C 
ATOM     14  C   UNL     1      39.783   7.916  15.031  0.00  0.00    +0.000 C 
ENDBRANCH  12  14
ENDBRANCH   6  12
ENDBRANCH   1  11
BRANCH   4  15
ATOM     15  C   UNL     1      37.806   0.978  14.508  0.00  0.00    +0.000 A 
ATOM     16  C   UNL     1      36.561   0.471  14.739  0.00  0.00    +0.000 A 
ATOM     17  C   UNL     1      36.354  -0.791  15.232  0.00  0.00    +0.000 A 
ATOM     18  C   UNL     1      37.425  -1.625  15.520  0.00  0.00    +0.000 A 
ATOM     19  C   UNL     1      38.695  -1.117  15.284  0.00  0.00    +0.000 A 
ATOM     20  C   UNL     1      38.864   0.154  14.795  0.00  0.00    +0.000 A 
ENDBRANCH   4  15
BRANCH   5  21
ATOM     21  C   UNL     1      37.872   3.732  16.034  0.00  0.00    +0.000 C 
ATOM     22  O   UNL     1      36.708   3.474  16.524  0.00  0.00    +0.000 OA
ATOM     23  N   UNL     1      38.775   4.272  16.948  0.00  0.00    +0.000 NA
BRANCH  23  24
ATOM     24  C   UNL     1      38.569   4.527  18.314  0.00  0.00    +0.000 C 
BRANCH  24  25
ATOM     25  C   UNL     1      38.875   5.933  18.664  0.00  0.00    +0.000 A 
ATOM     26  C   UNL     1      38.159   6.979  18.235  0.00  0.00    +0.000 A 
ATOM     27  C   UNL     1      38.476   8.283  18.593  0.00  0.00    +0.000 A 
ATOM     28  C   UNL     1      39.570   8.459  19.419  0.00  0.00    +0.000 A 
ATOM     29  C   UNL     1      40.304   7.402  19.860  0.00  0.00    +0.000 A 
ATOM     30  C   UNL     1      39.990   6.125  19.504  0.00  0.00    +0.000 A 
BRANCH  28  31
ATOM     31  C   UNL     1      40.019   9.833  19.876  0.00  0.00    +0.000 C 
ATOM     32  C   UNL     1      40.131  10.737  18.648  0.00  0.00    +0.000 C 
ATOM     33  C   UNL     1      39.076  10.381  20.904  0.00  0.00    +0.000 C 
ATOM     34  C   UNL     1      41.416   9.637  20.460  0.00  0.00    +0.000 C 
ENDBRANCH  28  31
ENDBRANCH  24  25
ENDBRANCH  23  24
ENDBRANCH   5  21
TORSDOF 8
ENDMDL
MODEL 8
REMARK VINA RESULT:      -7.4      4.353      7.696
REMARK  Name = 
REMARK  8 active torsions:
REMARK  status: ('A' for Active; 'I' for Inactive)
REMARK    1  A    between atoms: C_2  and  O_3
REMARK    2  A    between atoms: O_3  and  C_4
REMARK    3  A    between atoms: C_9  and  C_10
REMARK    4  A    between atoms: C_13  and  C_14
REMARK    5  A    between atoms: C_20  and  C_21
REMARK    6  A    between atoms: N_23  and  C_24
REMARK    7  A    between atoms: C_24  and  C_25
REMARK    8  A    between atoms: C_28  and  C_29
REMARK                            x       y       z     vdW  Elec       q    Type
REMARK                         _______ _______ _______ _____ _____    ______ ____
ROOT
ATOM      1  C   UNL     1      35.614   2.642  15.479  0.00  0.00    +0.000 C 
ATOM      2  O   UNL     1      35.287   2.430  16.930  0.00  0.00    +0.000 OA
ATOM      3  N   UNL     1      34.766   1.144  16.787  0.00  0.00    +0.000 NA
ATOM      4  C   UNL     1      35.855   0.501  16.097  0.00  0.00    +0.000 C 
ATOM      5  C   UNL     1      36.445   1.308  15.287  0.00  0.00    +0.000 C 
ENDROOT
BRANCH   1  11
ATOM      6  C   UNL     1      37.080   4.485  14.623  0.00  0.00    +0.000 A 
ATOM      7  C   UNL     1      38.136   5.350  14.818  0.00  0.00    +0.000 A 
ATOM      8  C   UNL     1      38.852   5.403  15.978  0.00  0.00    +0.000 A 
ATOM      9  C   UNL     1      38.525   4.563  17.043  0.00  0.00    +0.000 A 
ATOM     10  C   UNL     1      37.480   3.698  16.861  0.00  0.00    +0.000 A 
ATOM     11  C   UNL     1      36.819   3.672  15.734  0.00  0.00    +0.000 A 
BRANCH   6  12
ATOM     12  O   UNL     1      36.320   4.380  13.502  0.00  0.00    +0.000 OA
BRANCH  12  14
ATOM     13  C   UNL     1      36.859   4.964  11.202  0.00  0.00    +0.000 C 
ATOM     14  C   UNL     1      36.082   5.187  12.445  0.00  0.00    +0.000 C 
ENDBRANCH  12  14
ENDBRANCH   6  12
ENDBRANCH   1  11
BRANCH   4  15
ATOM     15  C   UNL     1      36.166  -0.914  16.344  0.00  0.00    +0.000 A 
ATOM     16  C   UNL     1      37.061  -1.309  17.295  0.00  0.00    +0.000 A 
ATOM     17  C   UNL     1      37.367  -2.625  17.524  0.00  0.00    +0.000 A 
ATOM     18  C   UNL     1      36.765  -3.633  16.784  0.00  0.00    +0.000 A 
ATOM     19  C   UNL     1      35.850  -3.239  15.817  0.00  0.00    +0.000 A 
ATOM     20  C   UNL     1      35.574  -1.911  15.612  0.00  0.00    +0.000 A 
ENDBRANCH   4  15
BRANCH   5  21
ATOM     21  C   UNL     1      37.568   1.159  14.432  0.00  0.00    +0.000 C 
ATOM     22  O   UNL     1      38.703   0.955  15.007  0.00  0.00    +0.000 OA
ATOM     23  N   UNL     1      37.627   1.207  13.041  0.00  0.00    +0.000 NA
BRANCH  23  24
ATOM     24  C   UNL     1      38.752   1.027  12.219  0.00  0.00    +0.000 C 
BRANCH  24  25
ATOM     25  C   UNL     1      38.425   1.218  10.787  0.00  0.00    +0.000 A 
ATOM     26  C   UNL     1      39.338   1.231   9.810  0.00  0.00    +0.000 A 
ATOM     27  C   UNL     1      38.986   1.405   8.478  0.00  0.00    +0.000 A 
ATOM     28  C   UNL     1      37.642   1.565   8.199  0.00  0.00    +0.000 A 
ATOM     29  C   UNL     1      36.706   1.554   9.186  0.00  0.00    +0.000 A 
ATOM     30  C   UNL     1      37.057   1.384  10.492  0.00  0.00    +0.000 A 
BRANCH  28  31
ATOM     31  C   UNL     1      37.133   1.767   6.786  0.00  0.00    +0.000 C 
ATOM     32  C   UNL     1      36.031   2.827   6.816  0.00  0.00    +0.000 C 
ATOM     33  C   UNL     1      38.257   2.140   5.868  0.00  0.00    +0.000 C 
ATOM     34  C   UNL     1      36.509   0.435   6.378  0.00  0.00    +0.000 C 
ENDBRANCH  28  31
ENDBRANCH  24  25
ENDBRANCH  23  24
ENDBRANCH   5  21
TORSDOF 8
ENDMDL
MODEL 9
REMARK VINA RESULT:      -7.4      3.665      7.506
REMARK  Name = 
REMARK  8 active torsions:
REMARK  status: ('A' for Active; 'I' for Inactive)
REMARK    1  A    between atoms: C_2  and  O_3
REMARK    2  A    between atoms: O_3  and  C_4
REMARK    3  A    between atoms: C_9  and  C_10
REMARK    4  A    between atoms: C_13  and  C_14
REMARK    5  A    between atoms: C_20  and  C_21
REMARK    6  A    between atoms: N_23  and  C_24
REMARK    7  A    between atoms: C_24  and  C_25
REMARK    8  A    between atoms: C_28  and  C_29
REMARK                            x       y       z     vdW  Elec       q    Type
REMARK                         _______ _______ _______ _____ _____    ______ ____
ROOT
ATOM      1  C   UNL     1      36.937   4.817  13.913  0.00  0.00    +0.000 C 
ATOM      2  O   UNL     1      35.666   5.091  13.161  0.00  0.00    +0.000 OA
ATOM      3  N   UNL     1      36.273   5.515  11.978  0.00  0.00    +0.000 NA
ATOM      4  C   UNL     1      37.144   4.397  11.721  0.00  0.00    +0.000 C 
ATOM      5  C   UNL     1      37.599   3.890  12.813  0.00  0.00    +0.000 C 
ENDROOT
BRANCH   1  11
ATOM      6  C   UNL     1      36.982   3.599  16.102  0.00  0.00    +0.000 A 
ATOM      7  C   UNL     1      36.480   2.610  16.922  0.00  0.00    +0.000 A 
ATOM      8  C   UNL     1      35.440   1.803  16.564  0.00  0.00    +0.000 A 
ATOM      9  C   UNL     1      34.825   1.960  15.322  0.00  0.00    +0.000 A 
ATOM     10  C   UNL     1      35.316   2.937  14.498  0.00  0.00    +0.000 A 
ATOM     11  C   UNL     1      36.317   3.690  14.873  0.00  0.00    +0.000 A 
BRANCH   6  12
ATOM     12  O   UNL     1      38.008   4.442  16.391  0.00  0.00    +0.000 OA
BRANCH  12  14
ATOM     13  C   UNL     1      39.505   5.383  18.063  0.00  0.00    +0.000 C 
ATOM     14  C   UNL     1      38.214   5.387  17.335  0.00  0.00    +0.000 C 
ENDBRANCH  12  14
ENDBRANCH   6  12
ENDBRANCH   1  11
BRANCH   4  15
ATOM     15  C   UNL     1      37.429   3.971  10.343  0.00  0.00    +0.000 A 
ATOM     16  C   UNL     1      36.685   3.024   9.703  0.00  0.00    +0.000 A 
ATOM     17  C   UNL     1      36.951   2.612   8.424  0.00  0.00    +0.000 A 
ATOM     18  C   UNL     1      38.010   3.153   7.709  0.00  0.00    +0.000 A 
ATOM     19  C   UNL     1      38.770   4.121   8.353  0.00  0.00    +0.000 A 
ATOM     20  C   UNL     1      38.477   4.504   9.638  0.00  0.00    +0.000 A 
ENDBRANCH   4  15
BRANCH   5  21
ATOM     21  C   UNL     1      38.442   2.780  13.077  0.00  0.00    +0.000 C 
ATOM     22  O   UNL     1      39.526   3.025  13.730  0.00  0.00    +0.000 OA
ATOM     23  N   UNL     1      38.272   1.442  12.726  0.00  0.00    +0.000 NA
BRANCH  23  24
ATOM     24  C   UNL     1      39.114   0.358  13.027  0.00  0.00    +0.000 C 
BRANCH  24  25
ATOM     25  C   UNL     1      38.602  -0.436  14.167  0.00  0.00    +0.000 A 
ATOM     26  C   UNL     1      39.382  -0.957  15.121  0.00  0.00    +0.000 A 
ATOM     27  C   UNL     1      38.859  -1.690  16.178  0.00  0.00    +0.000 A 
ATOM     28  C   UNL     1      37.488  -1.861  16.207  0.00  0.00    +0.000 A 
ATOM     29  C   UNL     1      36.686  -1.336  15.241  0.00  0.00    +0.000 A 
ATOM     30  C   UNL     1      37.205  -0.619  14.205  0.00  0.00    +0.000 A 
BRANCH  28  31
ATOM     31  C   UNL     1      36.799  -2.644  17.307  0.00  0.00    +0.000 C 
ATOM     32  C   UNL     1      36.819  -4.126  16.929  0.00  0.00    +0.000 C 
ATOM     33  C   UNL     1      37.452  -2.384  18.630  0.00  0.00    +0.000 C 
ATOM     34  C   UNL     1      35.349  -2.167  17.306  0.00  0.00    +0.000 C 
ENDBRANCH  28  31
ENDBRANCH  24  25
ENDBRANCH  23  24
ENDBRANCH   5  21
TORSDOF 8
ENDMDL
MODEL 10
REMARK VINA RESULT:      -7.4      2.469      7.016
REMARK  Name = 
REMARK  8 active torsions:
REMARK  status: ('A' for Active; 'I' for Inactive)
REMARK    1  A    between atoms: C_2  and  O_3
REMARK    2  A    between atoms: O_3  and  C_4
REMARK    3  A    between atoms: C_9  and  C_10
REMARK    4  A    between atoms: C_13  and  C_14
REMARK    5  A    between atoms: C_20  and  C_21
REMARK    6  A    between atoms: N_23  and  C_24
REMARK    7  A    between atoms: C_24  and  C_25
REMARK    8  A    between atoms: C_28  and  C_29
REMARK                            x       y       z     vdW  Elec       q    Type
REMARK                         _______ _______ _______ _____ _____    ______ ____
ROOT
ATOM      1  C   UNL     1      35.640   2.602  15.464  0.00  0.00    +0.000 C 
ATOM      2  O   UNL     1      35.443   2.062  16.853  0.00  0.00    +0.000 OA
ATOM      3  N   UNL     1      35.128   0.758  16.471  0.00  0.00    +0.000 NA
ATOM      4  C   UNL     1      36.261   0.454  15.634  0.00  0.00    +0.000 C 
ATOM      5  C   UNL     1      36.662   1.490  14.985  0.00  0.00    +0.000 C 
ENDROOT
BRANCH   1  11
ATOM      6  C   UNL     1      36.719   4.806  14.961  0.00  0.00    +0.000 A 
ATOM      7  C   UNL     1      37.632   5.785  15.293  0.00  0.00    +0.000 A 
ATOM      8  C   UNL     1      38.414   5.727  16.409  0.00  0.00    +0.000 A 
ATOM      9  C   UNL     1      38.307   4.646  17.285  0.00  0.00    +0.000 A 
ATOM     10  C   UNL     1      37.407   3.666  16.964  0.00  0.00    +0.000 A 
ATOM     11  C   UNL     1      36.677   3.753  15.884  0.00  0.00    +0.000 A 
BRANCH   6  12
ATOM     12  O   UNL     1      35.905   4.798  13.873  0.00  0.00    +0.000 OA
BRANCH  12  14
ATOM     13  C   UNL     1      34.113   6.440  13.981  0.00  0.00    +0.000 C 
ATOM     14  C   UNL     1      35.183   5.740  13.230  0.00  0.00    +0.000 C 
ENDBRANCH  12  14
ENDBRANCH   6  12
ENDBRANCH   1  11
BRANCH   4  15
ATOM     15  C   UNL     1      36.811  -0.908  15.584  0.00  0.00    +0.000 A 
ATOM     16  C   UNL     1      38.010  -1.232  16.150  0.00  0.00    +0.000 A 
ATOM     17  C   UNL     1      38.536  -2.496  16.098  0.00  0.00    +0.000 A 
ATOM     18  C   UNL     1      37.857  -3.522  15.456  0.00  0.00    +0.000 A 
ATOM     19  C   UNL     1      36.635  -3.200  14.882  0.00  0.00    +0.000 A 
ATOM     20  C   UNL     1      36.142  -1.922  14.949  0.00  0.00    +0.000 A 
ENDBRANCH   4  15
BRANCH   5  21
ATOM     21  C   UNL     1      37.738   1.702  14.085  0.00  0.00    +0.000 C 
ATOM     22  O   UNL     1      37.427   1.863  12.845  0.00  0.00    +0.000 OA
ATOM     23  N   UNL     1      39.106   1.757  14.347  0.00  0.00    +0.000 NA
BRANCH  23  24
ATOM     24  C   UNL     1      40.149   1.996  13.436  0.00  0.00    +0.000 C 
BRANCH  24  25
ATOM     25  C   UNL     1      41.237   1.001  13.572  0.00  0.00    +0.000 A 
ATOM     26  C   UNL     1      41.096  -0.177  14.188  0.00  0.00    +0.000 A 
ATOM     27  C   UNL     1      42.142  -1.085  14.286  0.00  0.00    +0.000 A 
ATOM     28  C   UNL     1      43.347  -0.719  13.716  0.00  0.00    +0.000 A 
ATOM     29  C   UNL     1      43.501   0.477  13.088  0.00  0.00    +0.000 A 
ATOM     30  C   UNL     1      42.471   1.365  12.996  0.00  0.00    +0.000 A 
BRANCH  28  31
ATOM     31  C   UNL     1      44.564  -1.622  13.760  0.00  0.00    +0.000 C 
ATOM     32  C   UNL     1      44.224  -2.925  13.035  0.00  0.00    +0.000 C 
ATOM     33  C   UNL     1      45.755  -0.933  13.167  0.00  0.00    +0.000 C 
ATOM     34  C   UNL     1      44.789  -1.938  15.237  0.00  0.00    +0.000 C 
ENDBRANCH  28  31
ENDBRANCH  24  25
ENDBRANCH  23  24
ENDBRANCH   5  21
TORSDOF 8
ENDMDL
