MODEL 1
REMARK VINA RESULT:      -7.8      0.000      0.000
REMARK  Name = 
REMARK  3 active torsions:
REMARK  status: ('A' for Active; 'I' for Inactive)
REMARK    1  A    between atoms: C_5  and  C_6
REMARK    2  A    between atoms: N_8  and  C_9
REMARK    3  A    between atoms: C_11  and  N_12
REMARK                            x       y       z     vdW  Elec       q    Type
REMARK                         _______ _______ _______ _____ _____    ______ ____
ROOT
ATOM      1  C   UNL     1      16.258  11.428  36.304  0.00  0.00    +0.000 C 
ATOM      2  O   UNL     1      16.689  12.612  36.089  0.00  0.00    +0.000 OA
ATOM      3  N   UNL     1      15.742  10.741  35.193  0.00  0.00    +0.000 NA
ENDROOT
BRANCH   1   8
ATOM      4  C   UNL     1      16.442   9.010  41.580  0.00  0.00    +0.000 C 
ATOM      5  C   UNL     1      16.405   9.644  40.240  0.00  0.00    +0.000 A 
ATOM      6  C   UNL     1      15.272  10.228  39.721  0.00  0.00    +0.000 A 
ATOM      7  C   UNL     1      15.197  10.810  38.492  0.00  0.00    +0.000 A 
ATOM      8  C   UNL     1      16.311  10.852  37.646  0.00  0.00    +0.000 A 
ATOM      9  C   UNL     1      17.461  10.273  38.147  0.00  0.00    +0.000 A 
ATOM     10  C   UNL     1      18.668  10.321  37.251  0.00  0.00    +0.000 C 
ATOM     11  C   UNL     1      17.528   9.684  39.397  0.00  0.00    +0.000 A 
ENDBRANCH   1   8
BRANCH   3  12
ATOM     12  C   UNL     1      15.674  11.278  33.870  0.00  0.00    +0.000 A 
ATOM     13  C   UNL     1      14.753  12.253  33.536  0.00  0.00    +0.000 A 
ATOM     14  C   UNL     1      14.637  12.824  32.285  0.00  0.00    +0.000 A 
ATOM     15  C   UNL     1      15.500  12.395  31.292  0.00  0.00    +0.000 A 
ATOM     16  C   UNL     1      16.431  11.422  31.589  0.00  0.00    +0.000 A 
ATOM     17  C   UNL     1      16.524  10.864  32.865  0.00  0.00    +0.000 A 
ATOM     18  F   UNL     1      17.447   9.910  33.142  0.00  0.00    +0.000 F 
BRANCH  14  19
ATOM     19  N   UNL     1      13.705  13.840  31.971  0.00  0.00    +0.000 N 
ATOM     20  O   UNL     1      13.239  13.884  30.827  0.00  0.00    +0.000 OA
ATOM     21  O   UNL     1      13.306  14.789  32.866  0.00  0.00    +0.000 OA
ENDBRANCH  14  19
ENDBRANCH   3  12
TORSDOF 3
ENDMDL
MODEL 2
REMARK VINA RESULT:      -7.7      2.069      2.897
REMARK  Name = 
REMARK  3 active torsions:
REMARK  status: ('A' for Active; 'I' for Inactive)
REMARK    1  A    between atoms: C_5  and  C_6
REMARK    2  A    between atoms: N_8  and  C_9
REMARK    3  A    between atoms: C_11  and  N_12
REMARK                            x       y       z     vdW  Elec       q    Type
REMARK                         _______ _______ _______ _____ _____    ______ ____
ROOT
ATOM      1  C   UNL     1      15.782  12.008  36.565  0.00  0.00    +0.000 C 
ATOM      2  O   UNL     1      16.346  13.148  36.443  0.00  0.00    +0.000 OA
ATOM      3  N   UNL     1      14.841  11.669  35.579  0.00  0.00    +0.000 NA
ENDROOT
BRANCH   1   8
ATOM      4  C   UNL     1      17.144   8.636  41.092  0.00  0.00    +0.000 C 
ATOM      5  C   UNL     1      16.788   9.481  39.926  0.00  0.00    +0.000 A 
ATOM      6  C   UNL     1      17.705   9.871  38.978  0.00  0.00    +0.000 A 
ATOM      7  C   UNL     1      17.418  10.655  37.902  0.00  0.00    +0.000 A 
ATOM      8  C   UNL     1      16.120  11.130  37.683  0.00  0.00    +0.000 A 
ATOM      9  C   UNL     1      15.181  10.749  38.622  0.00  0.00    +0.000 A 
ATOM     10  C   UNL     1      13.780  11.246  38.393  0.00  0.00    +0.000 C 
ATOM     11  C   UNL     1      15.482   9.953  39.713  0.00  0.00    +0.000 A 
ENDBRANCH   1   8
BRANCH   3  12
ATOM     12  C   UNL     1      14.488  12.507  34.476  0.00  0.00    +0.000 A 
ATOM     13  C   UNL     1      14.917  12.224  33.192  0.00  0.00    +0.000 A 
ATOM     14  C   UNL     1      14.608  12.980  32.080  0.00  0.00    +0.000 A 
ATOM     15  C   UNL     1      13.814  14.100  32.255  0.00  0.00    +0.000 A 
ATOM     16  C   UNL     1      13.370  14.414  33.523  0.00  0.00    +0.000 A 
ATOM     17  C   UNL     1      13.699  13.628  34.628  0.00  0.00    +0.000 A 
ATOM     18  F   UNL     1      13.253  13.948  35.868  0.00  0.00    +0.000 F 
BRANCH  14  19
ATOM     19  N   UNL     1      15.034  12.658  30.771  0.00  0.00    +0.000 N 
ATOM     20  O   UNL     1      15.872  13.385  30.225  0.00  0.00    +0.000 OA
ATOM     21  O   UNL     1      14.551  11.592  30.070  0.00  0.00    +0.000 OA
ENDBRANCH  14  19
ENDBRANCH   3  12
TORSDOF 3
ENDMDL
MODEL 3
REMARK VINA RESULT:      -7.3      1.495      2.334
REMARK  Name = 
REMARK  3 active torsions:
REMARK  status: ('A' for Active; 'I' for Inactive)
REMARK    1  A    between atoms: C_5  and  C_6
REMARK    2  A    between atoms: N_8  and  C_9
REMARK    3  A    between atoms: C_11  and  N_12
REMARK                            x       y       z     vdW  Elec       q    Type
REMARK                         _______ _______ _______ _____ _____    ______ ____
ROOT
ATOM      1  C   UNL     1      17.188  10.242  35.415  0.00  0.00    +0.000 C 
ATOM      2  O   UNL     1      16.450   9.264  35.050  0.00  0.00    +0.000 OA
ATOM      3  N   UNL     1      17.182  11.372  34.581  0.00  0.00    +0.000 NA
ENDROOT
BRANCH   1   8
ATOM      4  C   UNL     1      20.381  10.034  40.260  0.00  0.00    +0.000 C 
ATOM      5  C   UNL     1      19.557  10.069  39.028  0.00  0.00    +0.000 A 
ATOM      6  C   UNL     1      20.058   9.758  37.785  0.00  0.00    +0.000 A 
ATOM      7  C   UNL     1      19.335   9.789  36.631  0.00  0.00    +0.000 A 
ATOM      8  C   UNL     1      17.984  10.154  36.637  0.00  0.00    +0.000 A 
ATOM      9  C   UNL     1      17.459  10.469  37.875  0.00  0.00    +0.000 A 
ATOM     10  C   UNL     1      16.004  10.853  37.896  0.00  0.00    +0.000 C 
ATOM     11  C   UNL     1      18.200  10.434  39.042  0.00  0.00    +0.000 A 
ENDBRANCH   1   8
BRANCH   3  12
ATOM     12  C   UNL     1      16.417  11.486  33.379  0.00  0.00    +0.000 A 
ATOM     13  C   UNL     1      15.431  12.446  33.243  0.00  0.00    +0.000 A 
ATOM     14  C   UNL     1      14.661  12.622  32.111  0.00  0.00    +0.000 A 
ATOM     15  C   UNL     1      14.887  11.782  31.035  0.00  0.00    +0.000 A 
ATOM     16  C   UNL     1      15.862  10.812  31.135  0.00  0.00    +0.000 A 
ATOM     17  C   UNL     1      16.625  10.660  32.294  0.00  0.00    +0.000 A 
ATOM     18  F   UNL     1      17.582   9.702  32.377  0.00  0.00    +0.000 F 
BRANCH  14  19
ATOM     19  N   UNL     1      13.676  13.627  31.983  0.00  0.00    +0.000 N 
ATOM     20  O   UNL     1      13.143  13.799  30.880  0.00  0.00    +0.000 OA
ATOM     21  O   UNL     1      13.293  14.434  33.015  0.00  0.00    +0.000 OA
ENDBRANCH  14  19
ENDBRANCH   3  12
TORSDOF 3
ENDMDL
MODEL 4
REMARK VINA RESULT:      -7.1      3.201      7.669
REMARK  Name = 
REMARK  3 active torsions:
REMARK  status: ('A' for Active; 'I' for Inactive)
REMARK    1  A    between atoms: C_5  and  C_6
REMARK    2  A    between atoms: N_8  and  C_9
REMARK    3  A    between atoms: C_11  and  N_12
REMARK                            x       y       z     vdW  Elec       q    Type
REMARK                         _______ _______ _______ _____ _____    ______ ____
ROOT
ATOM      1  C   UNL     1      16.833  10.593  35.157  0.00  0.00    +0.000 C 
ATOM      2  O   UNL     1      16.860   9.316  35.205  0.00  0.00    +0.000 OA
ATOM      3  N   UNL     1      17.435  11.271  36.231  0.00  0.00    +0.000 NA
ENDROOT
BRANCH   1   8
ATOM      4  C   UNL     1      14.225  13.209  30.677  0.00  0.00    +0.000 C 
ATOM      5  C   UNL     1      14.900  12.559  31.826  0.00  0.00    +0.000 A 
ATOM      6  C   UNL     1      16.008  11.756  31.685  0.00  0.00    +0.000 A 
ATOM      7  C   UNL     1      16.647  11.134  32.715  0.00  0.00    +0.000 A 
ATOM      8  C   UNL     1      16.201  11.279  34.032  0.00  0.00    +0.000 A 
ATOM      9  C   UNL     1      15.090  12.083  34.199  0.00  0.00    +0.000 A 
ATOM     10  C   UNL     1      14.605  12.256  35.612  0.00  0.00    +0.000 C 
ATOM     11  C   UNL     1      14.447  12.711  33.147  0.00  0.00    +0.000 A 
ENDBRANCH   1   8
BRANCH   3  12
ATOM     12  C   UNL     1      18.059  10.628  37.345  0.00  0.00    +0.000 A 
ATOM     13  C   UNL     1      19.416  10.365  37.356  0.00  0.00    +0.000 A 
ATOM     14  C   UNL     1      20.086   9.758  38.398  0.00  0.00    +0.000 A 
ATOM     15  C   UNL     1      19.356   9.386  39.513  0.00  0.00    +0.000 A 
ATOM     16  C   UNL     1      17.998   9.632  39.536  0.00  0.00    +0.000 A 
ATOM     17  C   UNL     1      17.349  10.248  38.465  0.00  0.00    +0.000 A 
ATOM     18  F   UNL     1      16.014  10.486  38.504  0.00  0.00    +0.000 F 
BRANCH  14  19
ATOM     19  N   UNL     1      21.480   9.522  38.401  0.00  0.00    +0.000 N 
ATOM     20  O   UNL     1      22.106   9.656  37.343  0.00  0.00    +0.000 OA
ATOM     21  O   UNL     1      22.170   9.134  39.512  0.00  0.00    +0.000 OA
ENDBRANCH  14  19
ENDBRANCH   3  12
TORSDOF 3
ENDMDL
MODEL 5
REMARK VINA RESULT:      -7.1      3.213      7.500
REMARK  Name = 
REMARK  3 active torsions:
REMARK  status: ('A' for Active; 'I' for Inactive)
REMARK    1  A    between atoms: C_5  and  C_6
REMARK    2  A    between atoms: N_8  and  C_9
REMARK    3  A    between atoms: C_11  and  N_12
REMARK                            x       y       z     vdW  Elec       q    Type
REMARK                         _______ _______ _______ _____ _____    ______ ____
ROOT
ATOM      1  C   UNL     1      16.947  10.218  35.217  0.00  0.00    +0.000 C 
ATOM      2  O   UNL     1      17.017   8.942  35.249  0.00  0.00    +0.000 OA
ATOM      3  N   UNL     1      17.444  10.898  36.340  0.00  0.00    +0.000 NA
ENDROOT
BRANCH   1   8
ATOM      4  C   UNL     1      14.557  12.824  30.611  0.00  0.00    +0.000 C 
ATOM      5  C   UNL     1      15.178  12.176  31.791  0.00  0.00    +0.000 A 
ATOM      6  C   UNL     1      16.207  11.267  31.690  0.00  0.00    +0.000 A 
ATOM      7  C   UNL     1      16.794  10.644  32.749  0.00  0.00    +0.000 A 
ATOM      8  C   UNL     1      16.372  10.899  34.059  0.00  0.00    +0.000 A 
ATOM      9  C   UNL     1      15.340  11.809  34.185  0.00  0.00    +0.000 A 
ATOM     10  C   UNL     1      14.884  12.099  35.589  0.00  0.00    +0.000 C 
ATOM     11  C   UNL     1      14.750  12.438  33.103  0.00  0.00    +0.000 A 
ENDBRANCH   1   8
BRANCH   3  12
ATOM     12  C   UNL     1      18.009  10.260  37.488  0.00  0.00    +0.000 A 
ATOM     13  C   UNL     1      17.236   9.948  38.591  0.00  0.00    +0.000 A 
ATOM     14  C   UNL     1      17.710   9.324  39.727  0.00  0.00    +0.000 A 
ATOM     15  C   UNL     1      19.051   8.985  39.771  0.00  0.00    +0.000 A 
ATOM     16  C   UNL     1      19.853   9.283  38.689  0.00  0.00    +0.000 A 
ATOM     17  C   UNL     1      19.343   9.914  37.553  0.00  0.00    +0.000 A 
ATOM     18  F   UNL     1      20.144  10.199  36.496  0.00  0.00    +0.000 F 
BRANCH  14  19
ATOM     19  N   UNL     1      16.897   8.989  40.833  0.00  0.00    +0.000 N 
ATOM     20  O   UNL     1      16.592   9.878  41.636  0.00  0.00    +0.000 OA
ATOM     21  O   UNL     1      16.444   7.724  41.071  0.00  0.00    +0.000 OA
ENDBRANCH  14  19
ENDBRANCH   3  12
TORSDOF 3
ENDMDL
MODEL 6
REMARK VINA RESULT:      -6.9     29.004     31.488
REMARK  Name = 
REMARK  3 active torsions:
REMARK  status: ('A' for Active; 'I' for Inactive)
REMARK    1  A    between atoms: C_5  and  C_6
REMARK    2  A    between atoms: N_8  and  C_9
REMARK    3  A    between atoms: C_11  and  N_12
REMARK                            x       y       z     vdW  Elec       q    Type
REMARK                         _______ _______ _______ _____ _____    ______ ____
ROOT
ATOM      1  C   UNL     1      29.997  20.961  10.246  0.00  0.00    +0.000 C 
ATOM      2  O   UNL     1      29.798  19.709  10.406  0.00  0.00    +0.000 OA
ATOM      3  N   UNL     1      30.607  21.347   9.041  0.00  0.00    +0.000 NA
ENDROOT
BRANCH   1   8
ATOM      4  C   UNL     1      28.378  24.629  14.446  0.00  0.00    +0.000 C 
ATOM      5  C   UNL     1      28.803  23.708  13.365  0.00  0.00    +0.000 A 
ATOM      6  C   UNL     1      28.008  23.406  12.284  0.00  0.00    +0.000 A 
ATOM      7  C   UNL     1      28.360  22.556  11.279  0.00  0.00    +0.000 A 
ATOM      8  C   UNL     1      29.601  21.912  11.283  0.00  0.00    +0.000 A 
ATOM      9  C   UNL     1      30.419  22.201  12.359  0.00  0.00    +0.000 A 
ATOM     10  C   UNL     1      31.761  21.522  12.370  0.00  0.00    +0.000 C 
ATOM     11  C   UNL     1      30.053  23.065  13.375  0.00  0.00    +0.000 A 
ENDBRANCH   1   8
BRANCH   3  12
ATOM     12  C   UNL     1      31.006  20.441   8.010  0.00  0.00    +0.000 A 
ATOM     13  C   UNL     1      30.080  19.863   7.162  0.00  0.00    +0.000 A 
ATOM     14  C   UNL     1      30.393  18.989   6.141  0.00  0.00    +0.000 A 
ATOM     15  C   UNL     1      31.725  18.666   5.947  0.00  0.00    +0.000 A 
ATOM     16  C   UNL     1      32.677  19.223   6.776  0.00  0.00    +0.000 A 
ATOM     17  C   UNL     1      32.328  20.104   7.800  0.00  0.00    +0.000 A 
ATOM     18  F   UNL     1      33.276  20.646   8.606  0.00  0.00    +0.000 F 
BRANCH  14  19
ATOM     19  N   UNL     1      29.433  18.430   5.267  0.00  0.00    +0.000 N 
ATOM     20  O   UNL     1      28.708  19.191   4.616  0.00  0.00    +0.000 OA
ATOM     21  O   UNL     1      29.252  17.086   5.119  0.00  0.00    +0.000 OA
ENDBRANCH  14  19
ENDBRANCH   3  12
TORSDOF 3
ENDMDL
MODEL 7
REMARK VINA RESULT:      -6.8     18.484     19.284
REMARK  Name = 
REMARK  3 active torsions:
REMARK  status: ('A' for Active; 'I' for Inactive)
REMARK    1  A    between atoms: C_5  and  C_6
REMARK    2  A    between atoms: N_8  and  C_9
REMARK    3  A    between atoms: C_11  and  N_12
REMARK                            x       y       z     vdW  Elec       q    Type
REMARK                         _______ _______ _______ _____ _____    ______ ____
ROOT
ATOM      1  C   UNL     1      29.399  23.217  28.016  0.00  0.00    +0.000 C 
ATOM      2  O   UNL     1      29.491  24.449  27.690  0.00  0.00    +0.000 OA
ATOM      3  N   UNL     1      28.293  22.517  27.507  0.00  0.00    +0.000 NA
ENDROOT
BRANCH   1   8
ATOM      4  C   UNL     1      33.469  20.901  31.450  0.00  0.00    +0.000 C 
ATOM      5  C   UNL     1      32.418  21.475  30.576  0.00  0.00    +0.000 A 
ATOM      6  C   UNL     1      32.519  21.501  29.204  0.00  0.00    +0.000 A 
ATOM      7  C   UNL     1      31.581  22.029  28.370  0.00  0.00    +0.000 A 
ATOM      8  C   UNL     1      30.408  22.601  28.876  0.00  0.00    +0.000 A 
ATOM      9  C   UNL     1      30.284  22.586  30.251  0.00  0.00    +0.000 A 
ATOM     10  C   UNL     1      29.023  23.189  30.807  0.00  0.00    +0.000 C 
ATOM     11  C   UNL     1      31.242  22.046  31.091  0.00  0.00    +0.000 A 
ENDBRANCH   1   8
BRANCH   3  12
ATOM     12  C   UNL     1      27.289  23.092  26.667  0.00  0.00    +0.000 A 
ATOM     13  C   UNL     1      27.295  22.891  25.299  0.00  0.00    +0.000 A 
ATOM     14  C   UNL     1      26.355  23.405  24.429  0.00  0.00    +0.000 A 
ATOM     15  C   UNL     1      25.334  24.176  24.956  0.00  0.00    +0.000 A 
ATOM     16  C   UNL     1      25.298  24.400  26.317  0.00  0.00    +0.000 A 
ATOM     17  C   UNL     1      26.263  23.865  27.171  0.00  0.00    +0.000 A 
ATOM     18  F   UNL     1      26.213  24.092  28.507  0.00  0.00    +0.000 F 
BRANCH  14  19
ATOM     19  N   UNL     1      26.363  23.164  23.036  0.00  0.00    +0.000 N 
ATOM     20  O   UNL     1      27.411  23.355  22.407  0.00  0.00    +0.000 OA
ATOM     21  O   UNL     1      25.264  22.748  22.344  0.00  0.00    +0.000 OA
ENDBRANCH  14  19
ENDBRANCH   3  12
TORSDOF 3
ENDMDL
MODEL 8
REMARK VINA RESULT:      -6.7      3.641      4.965
REMARK  Name = 
REMARK  3 active torsions:
REMARK  status: ('A' for Active; 'I' for Inactive)
REMARK    1  A    between atoms: C_5  and  C_6
REMARK    2  A    between atoms: N_8  and  C_9
REMARK    3  A    between atoms: C_11  and  N_12
REMARK                            x       y       z     vdW  Elec       q    Type
REMARK                         _______ _______ _______ _____ _____    ______ ____
ROOT
ATOM      1  C   UNL     1      17.963  10.172  37.418  0.00  0.00    +0.000 C 
ATOM      2  O   UNL     1      17.468   9.500  36.450  0.00  0.00    +0.000 OA
ATOM      3  N   UNL     1      17.204  11.263  37.873  0.00  0.00    +0.000 NA
ENDROOT
BRANCH   1   8
ATOM      4  C   UNL     1      23.085   8.814  39.792  0.00  0.00    +0.000 C 
ATOM      5  C   UNL     1      21.775   9.141  39.179  0.00  0.00    +0.000 A 
ATOM      6  C   UNL     1      21.656   9.810  37.983  0.00  0.00    +0.000 A 
ATOM      7  C   UNL     1      20.471  10.138  37.396  0.00  0.00    +0.000 A 
ATOM      8  C   UNL     1      19.253   9.800  37.995  0.00  0.00    +0.000 A 
ATOM      9  C   UNL     1      19.348   9.126  39.197  0.00  0.00    +0.000 A 
ATOM     10  C   UNL     1      18.045   8.748  39.847  0.00  0.00    +0.000 C 
ATOM     11  C   UNL     1      20.555   8.797  39.786  0.00  0.00    +0.000 A 
ENDBRANCH   1   8
BRANCH   3  12
ATOM     12  C   UNL     1      15.941  11.653  37.327  0.00  0.00    +0.000 A 
ATOM     13  C   UNL     1      14.755  11.150  37.829  0.00  0.00    +0.000 A 
ATOM     14  C   UNL     1      13.502  11.488  37.360  0.00  0.00    +0.000 A 
ATOM     15  C   UNL     1      13.420  12.393  36.317  0.00  0.00    +0.000 A 
ATOM     16  C   UNL     1      14.584  12.914  35.790  0.00  0.00    +0.000 A 
ATOM     17  C   UNL     1      15.837  12.553  36.287  0.00  0.00    +0.000 A 
ATOM     18  F   UNL     1      16.972  13.076  35.760  0.00  0.00    +0.000 F 
BRANCH  14  19
ATOM     19  N   UNL     1      12.300  10.982  37.905  0.00  0.00    +0.000 N 
ATOM     20  O   UNL     1      11.225  11.422  37.481  0.00  0.00    +0.000 OA
ATOM     21  O   UNL     1      12.265  10.041  38.892  0.00  0.00    +0.000 OA
ENDBRANCH  14  19
ENDBRANCH   3  12
TORSDOF 3
ENDMDL
MODEL 9
REMARK VINA RESULT:      -6.6     20.428     22.458
REMARK  Name = 
REMARK  3 active torsions:
REMARK  status: ('A' for Active; 'I' for Inactive)
REMARK    1  A    between atoms: C_5  and  C_6
REMARK    2  A    between atoms: N_8  and  C_9
REMARK    3  A    between atoms: C_11  and  N_12
REMARK                            x       y       z     vdW  Elec       q    Type
REMARK                         _______ _______ _______ _____ _____    ______ ____
ROOT
ATOM      1  C   UNL     1      33.161  -0.237  34.670  0.00  0.00    +0.000 C 
ATOM      2  O   UNL     1      31.979  -0.626  34.963  0.00  0.00    +0.000 OA
ATOM      3  N   UNL     1      34.096  -1.244  34.380  0.00  0.00    +0.000 NA
ENDROOT
BRANCH   1   8
ATOM      4  C   UNL     1      34.326   5.452  34.633  0.00  0.00    +0.000 C 
ATOM      5  C   UNL     1      34.049   3.995  34.642  0.00  0.00    +0.000 A 
ATOM      6  C   UNL     1      33.677   3.297  33.517  0.00  0.00    +0.000 A 
ATOM      7  C   UNL     1      33.404   1.963  33.490  0.00  0.00    +0.000 A 
ATOM      8  C   UNL     1      33.488   1.187  34.651  0.00  0.00    +0.000 A 
ATOM      9  C   UNL     1      33.862   1.866  35.794  0.00  0.00    +0.000 A 
ATOM     10  C   UNL     1      33.966   1.042  37.048  0.00  0.00    +0.000 C 
ATOM     11  C   UNL     1      34.137   3.222  35.813  0.00  0.00    +0.000 A 
ENDBRANCH   1   8
BRANCH   3  12
ATOM     12  C   UNL     1      33.806  -2.644  34.394  0.00  0.00    +0.000 A 
ATOM     13  C   UNL     1      33.555  -3.338  33.224  0.00  0.00    +0.000 A 
ATOM     14  C   UNL     1      33.279  -4.688  33.160  0.00  0.00    +0.000 A 
ATOM     15  C   UNL     1      33.250  -5.403  34.344  0.00  0.00    +0.000 A 
ATOM     16  C   UNL     1      33.494  -4.743  35.531  0.00  0.00    +0.000 A 
ATOM     17  C   UNL     1      33.771  -3.376  35.563  0.00  0.00    +0.000 A 
ATOM     18  F   UNL     1      34.011  -2.741  36.737  0.00  0.00    +0.000 F 
BRANCH  14  19
ATOM     19  N   UNL     1      33.052  -5.384  31.951  0.00  0.00    +0.000 N 
ATOM     20  O   UNL     1      32.602  -6.534  32.004  0.00  0.00    +0.000 OA
ATOM     21  O   UNL     1      33.323  -4.855  30.723  0.00  0.00    +0.000 OA
ENDBRANCH  14  19
ENDBRANCH   3  12
TORSDOF 3
ENDMDL
MODEL 10
REMARK VINA RESULT:      -6.5     18.877     20.628
REMARK  Name = 
REMARK  3 active torsions:
REMARK  status: ('A' for Active; 'I' for Inactive)
REMARK    1  A    between atoms: C_5  and  C_6
REMARK    2  A    between atoms: N_8  and  C_9
REMARK    3  A    between atoms: C_11  and  N_12
REMARK                            x       y       z     vdW  Elec       q    Type
REMARK                         _______ _______ _______ _____ _____    ______ ____
ROOT
ATOM      1  C   UNL     1      25.109  25.830  25.319  0.00  0.00    +0.000 C 
ATOM      2  O   UNL     1      26.073  26.663  25.425  0.00  0.00    +0.000 OA
ATOM      3  N   UNL     1      25.407  24.608  24.695  0.00  0.00    +0.000 NA
ENDROOT
BRANCH   1   8
ATOM      4  C   UNL     1      19.793  27.021  27.327  0.00  0.00    +0.000 C 
ATOM      5  C   UNL     1      21.157  26.735  26.822  0.00  0.00    +0.000 A 
ATOM      6  C   UNL     1      21.517  26.901  25.505  0.00  0.00    +0.000 A 
ATOM      7  C   UNL     1      22.756  26.638  25.003  0.00  0.00    +0.000 A 
ATOM      8  C   UNL     1      23.781  26.165  25.829  0.00  0.00    +0.000 A 
ATOM      9  C   UNL     1      23.444  25.991  27.157  0.00  0.00    +0.000 A 
ATOM     10  C   UNL     1      24.540  25.492  28.057  0.00  0.00    +0.000 C 
ATOM     11  C   UNL     1      22.183  26.261  27.658  0.00  0.00    +0.000 A 
ENDBRANCH   1   8
BRANCH   3  12
ATOM     12  C   UNL     1      26.695  24.253  24.184  0.00  0.00    +0.000 A 
ATOM     13  C   UNL     1      27.189  24.818  23.023  0.00  0.00    +0.000 A 
ATOM     14  C   UNL     1      28.424  24.532  22.479  0.00  0.00    +0.000 A 
ATOM     15  C   UNL     1      29.228  23.617  23.135  0.00  0.00    +0.000 A 
ATOM     16  C   UNL     1      28.767  23.032  24.296  0.00  0.00    +0.000 A 
ATOM     17  C   UNL     1      27.512  23.343  24.822  0.00  0.00    +0.000 A 
ATOM     18  F   UNL     1      27.073  22.760  25.966  0.00  0.00    +0.000 F 
BRANCH  14  19
ATOM     19  N   UNL     1      28.922  25.142  21.304  0.00  0.00    +0.000 N 
ATOM     20  O   UNL     1      29.744  24.524  20.618  0.00  0.00    +0.000 OA
ATOM     21  O   UNL     1      28.553  26.391  20.898  0.00  0.00    +0.000 OA
ENDBRANCH  14  19
ENDBRANCH   3  12
TORSDOF 3
ENDMDL
