MODEL 1
REMARK VINA RESULT:      -6.1      0.000      0.000
REMARK  Name = 
REMARK  5 active torsions:
REMARK  status: ('A' for Active; 'I' for Inactive)
REMARK    1  A    between atoms: O_2  and  C_3
REMARK    2  A    between atoms: C_9  and  N_10
REMARK    3  A    between atoms: N_10  and  C_11
REMARK    4  A    between atoms: C_11  and  C_12
REMARK    5  A    between atoms: C_12  and  C_13
REMARK                            x       y       z     vdW  Elec       q    Type
REMARK                         _______ _______ _______ _____ _____    ______ ____
ROOT
ATOM      1  C   UNL     1      23.491  -7.298  24.131  0.00  0.00    +0.000 A 
ATOM      2  C   UNL     1      23.512  -8.619  24.451  0.00  0.00    +0.000 A 
ATOM      3  C   UNL     1      22.503  -9.202  25.181  0.00  0.00    +0.000 A 
ATOM      4  C   UNL     1      21.439  -8.438  25.604  0.00  0.00    +0.000 A 
ATOM      5  N   UNL     1      20.321  -8.705  26.319  0.00  0.00    +0.000 NA
ATOM      6  C   UNL     1      19.612  -7.570  26.444  0.00  0.00    +0.000 A 
ATOM      7  C   UNL     1      18.414  -7.316  27.073  0.00  0.00    +0.000 A 
ATOM      8  N   UNL     1      17.904  -6.062  27.054  0.00  0.00    +0.000 NA
ATOM      9  C   UNL     1      18.580  -5.069  26.414  0.00  0.00    +0.000 A 
ATOM     10  N   UNL     1      19.750  -5.310  25.797  0.00  0.00    +0.000 NA
ATOM     11  C   UNL     1      20.259  -6.533  25.810  0.00  0.00    +0.000 A 
ATOM     12  C   UNL     1      21.423  -7.099  25.278  0.00  0.00    +0.000 A 
ATOM     13  C   UNL     1      22.426  -6.522  24.553  0.00  0.00    +0.000 A 
ENDROOT
BRANCH   1  15
ATOM     14  C   UNL     1      25.788  -7.327  23.430  0.00  0.00    +0.000 C 
ATOM     15  O   UNL     1      24.524  -6.695  23.383  0.00  0.00    +0.000 OA
ENDBRANCH   1  15
BRANCH   7  16
ATOM     16  N   UNL     1      17.759  -8.398  27.725  0.00  0.00    +0.000 NA
BRANCH  16  17
ATOM     17  C   UNL     1      18.239  -8.935  28.984  0.00  0.00    +0.000 C 
BRANCH  17  18
ATOM     18  C   UNL     1      17.271 -10.058  29.364  0.00  0.00    +0.000 C 
BRANCH  18  19
ATOM     19  C   UNL     1      17.153 -10.163  30.871  0.00  0.00    +0.000 C 
ATOM     20  C   UNL     1      16.485 -11.495  31.164  0.00  0.00    +0.000 C 
ATOM     21  C   UNL     1      18.546 -10.207  31.436  0.00  0.00    +0.000 C 
ENDBRANCH  18  19
ENDBRANCH  17  18
ENDBRANCH  16  17
ENDBRANCH   7  16
TORSDOF 5
ENDMDL
MODEL 2
REMARK VINA RESULT:      -5.9     33.929     36.794
REMARK  Name = 
REMARK  5 active torsions:
REMARK  status: ('A' for Active; 'I' for Inactive)
REMARK    1  A    between atoms: O_2  and  C_3
REMARK    2  A    between atoms: C_9  and  N_10
REMARK    3  A    between atoms: N_10  and  C_11
REMARK    4  A    between atoms: C_11  and  C_12
REMARK    5  A    between atoms: C_12  and  C_13
REMARK                            x       y       z     vdW  Elec       q    Type
REMARK                         _______ _______ _______ _____ _____    ______ ____
ROOT
ATOM      1  C   UNL     1      27.149  24.538  23.739  0.00  0.00    +0.000 A 
ATOM      2  C   UNL     1      27.727  23.443  23.177  0.00  0.00    +0.000 A 
ATOM      3  C   UNL     1      28.565  23.545  22.091  0.00  0.00    +0.000 A 
ATOM      4  C   UNL     1      28.832  24.782  21.549  0.00  0.00    +0.000 A 
ATOM      5  N   UNL     1      29.590  25.206  20.512  0.00  0.00    +0.000 NA
ATOM      6  C   UNL     1      29.486  26.544  20.424  0.00  0.00    +0.000 A 
ATOM      7  C   UNL     1      30.057  27.440  19.549  0.00  0.00    +0.000 A 
ATOM      8  N   UNL     1      29.788  28.761  19.678  0.00  0.00    +0.000 NA
ATOM      9  C   UNL     1      28.957  29.186  20.668  0.00  0.00    +0.000 A 
ATOM     10  N   UNL     1      28.397  28.316  21.526  0.00  0.00    +0.000 NA
ATOM     11  C   UNL     1      28.653  27.022  21.410  0.00  0.00    +0.000 A 
ATOM     12  C   UNL     1      28.241  25.889  22.122  0.00  0.00    +0.000 A 
ATOM     13  C   UNL     1      27.410  25.786  23.200  0.00  0.00    +0.000 A 
ENDROOT
BRANCH   1  15
ATOM     14  C   UNL     1      25.897  23.134  25.230  0.00  0.00    +0.000 C 
ATOM     15  O   UNL     1      26.289  24.438  24.852  0.00  0.00    +0.000 OA
ENDBRANCH   1  15
BRANCH   7  16
ATOM     16  N   UNL     1      30.916  26.930  18.535  0.00  0.00    +0.000 NA
BRANCH  16  17
ATOM     17  C   UNL     1      31.425  27.773  17.470  0.00  0.00    +0.000 C 
BRANCH  17  18
ATOM     18  C   UNL     1      30.460  27.600  16.294  0.00  0.00    +0.000 C 
BRANCH  18  19
ATOM     19  C   UNL     1      29.898  28.942  15.874  0.00  0.00    +0.000 C 
ATOM     20  C   UNL     1      30.077  29.037  14.368  0.00  0.00    +0.000 C 
ATOM     21  C   UNL     1      28.423  28.933  16.167  0.00  0.00    +0.000 C 
ENDBRANCH  18  19
ENDBRANCH  17  18
ENDBRANCH  16  17
ENDBRANCH   7  16
TORSDOF 5
ENDMDL
MODEL 3
REMARK VINA RESULT:      -5.8     31.846     33.415
REMARK  Name = 
REMARK  5 active torsions:
REMARK  status: ('A' for Active; 'I' for Inactive)
REMARK    1  A    between atoms: O_2  and  C_3
REMARK    2  A    between atoms: C_9  and  N_10
REMARK    3  A    between atoms: N_10  and  C_11
REMARK    4  A    between atoms: C_11  and  C_12
REMARK    5  A    between atoms: C_12  and  C_13
REMARK                            x       y       z     vdW  Elec       q    Type
REMARK                         _______ _______ _______ _____ _____    ______ ____
ROOT
ATOM      1  C   UNL     1      23.444  26.442  26.494  0.00  0.00    +0.000 A 
ATOM      2  C   UNL     1      23.977  26.212  25.265  0.00  0.00    +0.000 A 
ATOM      3  C   UNL     1      25.038  25.355  25.085  0.00  0.00    +0.000 A 
ATOM      4  C   UNL     1      25.584  24.709  26.171  0.00  0.00    +0.000 A 
ATOM      5  N   UNL     1      26.602  23.831  26.323  0.00  0.00    +0.000 NA
ATOM      6  C   UNL     1      26.706  23.517  27.626  0.00  0.00    +0.000 A 
ATOM      7  C   UNL     1      27.572  22.676  28.288  0.00  0.00    +0.000 A 
ATOM      8  N   UNL     1      27.464  22.531  29.630  0.00  0.00    +0.000 NA
ATOM      9  C   UNL     1      26.504  23.217  30.308  0.00  0.00    +0.000 A 
ATOM     10  N   UNL     1      25.654  24.039  29.667  0.00  0.00    +0.000 NA
ATOM     11  C   UNL     1      25.750  24.189  28.355  0.00  0.00    +0.000 A 
ATOM     12  C   UNL     1      25.040  24.947  27.416  0.00  0.00    +0.000 A 
ATOM     13  C   UNL     1      23.987  25.797  27.592  0.00  0.00    +0.000 A 
ENDROOT
BRANCH   1  15
ATOM     14  C   UNL     1      21.302  26.849  27.499  0.00  0.00    +0.000 C 
ATOM     15  O   UNL     1      22.357  27.320  26.683  0.00  0.00    +0.000 OA
ENDBRANCH   1  15
BRANCH   7  16
ATOM     16  N   UNL     1      28.554  21.989  27.521  0.00  0.00    +0.000 NA
BRANCH  16  17
ATOM     17  C   UNL     1      29.875  22.546  27.296  0.00  0.00    +0.000 C 
BRANCH  17  18
ATOM     18  C   UNL     1      30.260  22.161  25.866  0.00  0.00    +0.000 C 
BRANCH  18  19
ATOM     19  C   UNL     1      30.250  23.385  24.973  0.00  0.00    +0.000 C 
ATOM     20  C   UNL     1      31.668  23.555  24.452  0.00  0.00    +0.000 C 
ATOM     21  C   UNL     1      29.357  23.089  23.800  0.00  0.00    +0.000 C 
ENDBRANCH  18  19
ENDBRANCH  17  18
ENDBRANCH  16  17
ENDBRANCH   7  16
TORSDOF 5
ENDMDL
MODEL 4
REMARK VINA RESULT:      -5.7     32.109     33.235
REMARK  Name = 
REMARK  5 active torsions:
REMARK  status: ('A' for Active; 'I' for Inactive)
REMARK    1  A    between atoms: O_2  and  C_3
REMARK    2  A    between atoms: C_9  and  N_10
REMARK    3  A    between atoms: N_10  and  C_11
REMARK    4  A    between atoms: C_11  and  C_12
REMARK    5  A    between atoms: C_12  and  C_13
REMARK                            x       y       z     vdW  Elec       q    Type
REMARK                         _______ _______ _______ _____ _____    ______ ____
ROOT
ATOM      1  C   UNL     1      30.286  22.795  29.116  0.00  0.00    +0.000 A 
ATOM      2  C   UNL     1      31.373  22.614  28.321  0.00  0.00    +0.000 A 
ATOM      3  C   UNL     1      31.274  22.613  26.950  0.00  0.00    +0.000 A 
ATOM      4  C   UNL     1      30.047  22.799  26.355  0.00  0.00    +0.000 A 
ATOM      5  N   UNL     1      29.628  22.848  25.069  0.00  0.00    +0.000 NA
ATOM      6  C   UNL     1      28.300  23.056  25.059  0.00  0.00    +0.000 A 
ATOM      7  C   UNL     1      27.411  23.184  24.015  0.00  0.00    +0.000 A 
ATOM      8  N   UNL     1      26.099  23.393  24.278  0.00  0.00    +0.000 NA
ATOM      9  C   UNL     1      25.675  23.475  25.569  0.00  0.00    +0.000 A 
ATOM     10  N   UNL     1      26.537  23.352  26.593  0.00  0.00    +0.000 NA
ATOM     11  C   UNL     1      27.823  23.147  26.348  0.00  0.00    +0.000 A 
ATOM     12  C   UNL     1      28.947  22.981  27.166  0.00  0.00    +0.000 A 
ATOM     13  C   UNL     1      29.047  22.982  28.527  0.00  0.00    +0.000 A 
ENDROOT
BRANCH   1  15
ATOM     14  C   UNL     1      31.233  21.824  31.097  0.00  0.00    +0.000 C 
ATOM     15  O   UNL     1      30.382  22.796  30.523  0.00  0.00    +0.000 OA
ENDBRANCH   1  15
BRANCH   7  16
ATOM     16  N   UNL     1      27.920  23.087  22.689  0.00  0.00    +0.000 NA
BRANCH  16  17
ATOM     17  C   UNL     1      27.991  24.242  21.813  0.00  0.00    +0.000 C 
BRANCH  17  18
ATOM     18  C   UNL     1      29.420  24.777  21.934  0.00  0.00    +0.000 C 
BRANCH  18  19
ATOM     19  C   UNL     1      29.405  26.207  22.435  0.00  0.00    +0.000 C 
ATOM     20  C   UNL     1      27.945  26.610  22.558  0.00  0.00    +0.000 C 
ATOM     21  C   UNL     1      30.007  26.215  23.813  0.00  0.00    +0.000 C 
ENDBRANCH  18  19
ENDBRANCH  17  18
ENDBRANCH  16  17
ENDBRANCH   7  16
TORSDOF 5
ENDMDL
MODEL 5
REMARK VINA RESULT:      -5.7     31.962     33.339
REMARK  Name = 
REMARK  5 active torsions:
REMARK  status: ('A' for Active; 'I' for Inactive)
REMARK    1  A    between atoms: O_2  and  C_3
REMARK    2  A    between atoms: C_9  and  N_10
REMARK    3  A    between atoms: N_10  and  C_11
REMARK    4  A    between atoms: C_11  and  C_12
REMARK    5  A    between atoms: C_12  and  C_13
REMARK                            x       y       z     vdW  Elec       q    Type
REMARK                         _______ _______ _______ _____ _____    ______ ____
ROOT
ATOM      1  C   UNL     1      28.415  22.811  29.904  0.00  0.00    +0.000 A 
ATOM      2  C   UNL     1      27.073  22.972  29.756  0.00  0.00    +0.000 A 
ATOM      3  C   UNL     1      26.491  23.090  28.516  0.00  0.00    +0.000 A 
ATOM      4  C   UNL     1      27.278  23.048  27.387  0.00  0.00    +0.000 A 
ATOM      5  N   UNL     1      27.018  23.133  26.062  0.00  0.00    +0.000 NA
ATOM      6  C   UNL     1      28.178  23.029  25.390  0.00  0.00    +0.000 A 
ATOM      7  C   UNL     1      28.449  23.055  24.041  0.00  0.00    +0.000 A 
ATOM      8  N   UNL     1      29.727  22.926  23.614  0.00  0.00    +0.000 NA
ATOM      9  C   UNL     1      30.729  22.774  24.523  0.00  0.00    +0.000 A 
ATOM     10  N   UNL     1      30.472  22.748  25.843  0.00  0.00    +0.000 NA
ATOM     11  C   UNL     1      29.225  22.872  26.271  0.00  0.00    +0.000 A 
ATOM     12  C   UNL     1      28.638  22.886  27.542  0.00  0.00    +0.000 A 
ATOM     13  C   UNL     1      29.214  22.768  28.774  0.00  0.00    +0.000 A 
ENDROOT
BRANCH   1  15
ATOM     14  C   UNL     1      29.624  23.854  31.697  0.00  0.00    +0.000 C 
ATOM     15  O   UNL     1      29.017  22.690  31.174  0.00  0.00    +0.000 OA
ENDBRANCH   1  15
BRANCH   7  16
ATOM     16  N   UNL     1      27.356  23.218  23.143  0.00  0.00    +0.000 NA
BRANCH  16  17
ATOM     17  C   UNL     1      27.419  24.138  22.023  0.00  0.00    +0.000 C 
BRANCH  17  18
ATOM     18  C   UNL     1      27.495  25.541  22.631  0.00  0.00    +0.000 C 
BRANCH  18  19
ATOM     19  C   UNL     1      28.581  26.349  21.951  0.00  0.00    +0.000 C 
ATOM     20  C   UNL     1      29.587  26.719  23.028  0.00  0.00    +0.000 C 
ATOM     21  C   UNL     1      29.269  25.450  20.961  0.00  0.00    +0.000 C 
ENDBRANCH  18  19
ENDBRANCH  17  18
ENDBRANCH  16  17
ENDBRANCH   7  16
TORSDOF 5
ENDMDL
MODEL 6
REMARK VINA RESULT:      -5.7     34.927     36.648
REMARK  Name = 
REMARK  5 active torsions:
REMARK  status: ('A' for Active; 'I' for Inactive)
REMARK    1  A    between atoms: O_2  and  C_3
REMARK    2  A    between atoms: C_9  and  N_10
REMARK    3  A    between atoms: N_10  and  C_11
REMARK    4  A    between atoms: C_11  and  C_12
REMARK    5  A    between atoms: C_12  and  C_13
REMARK                            x       y       z     vdW  Elec       q    Type
REMARK                         _______ _______ _______ _____ _____    ______ ____
ROOT
ATOM      1  C   UNL     1      34.951  23.173   7.690  0.00  0.00    +0.000 A 
ATOM      2  C   UNL     1      35.414  23.745   8.833  0.00  0.00    +0.000 A 
ATOM      3  C   UNL     1      34.754  23.603  10.032  0.00  0.00    +0.000 A 
ATOM      4  C   UNL     1      33.593  22.865  10.088  0.00  0.00    +0.000 A 
ATOM      5  N   UNL     1      32.734  22.547  11.083  0.00  0.00    +0.000 NA
ATOM      6  C   UNL     1      31.748  21.789  10.572  0.00  0.00    +0.000 A 
ATOM      7  C   UNL     1      30.646  21.217  11.166  0.00  0.00    +0.000 A 
ATOM      8  N   UNL     1      29.789  20.485  10.415  0.00  0.00    +0.000 NA
ATOM      9  C   UNL     1      30.027  20.323   9.085  0.00  0.00    +0.000 A 
ATOM     10  N   UNL     1      31.102  20.879   8.499  0.00  0.00    +0.000 NA
ATOM     11  C   UNL     1      31.947  21.597   9.223  0.00  0.00    +0.000 A 
ATOM     12  C   UNL     1      33.127  22.289   8.925  0.00  0.00    +0.000 A 
ATOM     13  C   UNL     1      33.783  22.430   7.736  0.00  0.00    +0.000 A 
ENDROOT
BRANCH   1  15
ATOM     14  C   UNL     1      35.791  24.636   5.983  0.00  0.00    +0.000 C 
ATOM     15  O   UNL     1      35.623  23.316   6.459  0.00  0.00    +0.000 OA
ENDBRANCH   1  15
BRANCH   7  16
ATOM     16  N   UNL     1      30.454  21.425  12.561  0.00  0.00    +0.000 NA
BRANCH  16  17
ATOM     17  C   UNL     1      30.022  22.705  13.089  0.00  0.00    +0.000 C 
BRANCH  17  18
ATOM     18  C   UNL     1      28.668  22.997  12.440  0.00  0.00    +0.000 C 
BRANCH  18  19
ATOM     19  C   UNL     1      27.645  23.360  13.497  0.00  0.00    +0.000 C 
ATOM     20  C   UNL     1      28.182  24.584  14.220  0.00  0.00    +0.000 C 
ATOM     21  C   UNL     1      26.378  23.756  12.792  0.00  0.00    +0.000 C 
ENDBRANCH  18  19
ENDBRANCH  17  18
ENDBRANCH  16  17
ENDBRANCH   7  16
TORSDOF 5
ENDMDL
MODEL 7
REMARK VINA RESULT:      -5.6     31.541     33.744
REMARK  Name = 
REMARK  5 active torsions:
REMARK  status: ('A' for Active; 'I' for Inactive)
REMARK    1  A    between atoms: O_2  and  C_3
REMARK    2  A    between atoms: C_9  and  N_10
REMARK    3  A    between atoms: N_10  and  C_11
REMARK    4  A    between atoms: C_11  and  C_12
REMARK    5  A    between atoms: C_12  and  C_13
REMARK                            x       y       z     vdW  Elec       q    Type
REMARK                         _______ _______ _______ _____ _____    ______ ____
ROOT
ATOM      1  C   UNL     1      24.983  25.647  30.869  0.00  0.00    +0.000 A 
ATOM      2  C   UNL     1      24.153  26.394  30.094  0.00  0.00    +0.000 A 
ATOM      3  C   UNL     1      24.119  26.253  28.726  0.00  0.00    +0.000 A 
ATOM      4  C   UNL     1      24.943  25.335  28.115  0.00  0.00    +0.000 A 
ATOM      5  N   UNL     1      25.142  24.968  26.828  0.00  0.00    +0.000 NA
ATOM      6  C   UNL     1      26.081  24.007  26.797  0.00  0.00    +0.000 A 
ATOM      7  C   UNL     1      26.631  23.311  25.744  0.00  0.00    +0.000 A 
ATOM      8  N   UNL     1      27.579  22.375  25.985  0.00  0.00    +0.000 NA
ATOM      9  C   UNL     1      27.978  22.134  27.264  0.00  0.00    +0.000 A 
ATOM     10  N   UNL     1      27.445  22.809  28.297  0.00  0.00    +0.000 NA
ATOM     11  C   UNL     1      26.516  23.726  28.073  0.00  0.00    +0.000 A 
ATOM     12  C   UNL     1      25.783  24.581  28.905  0.00  0.00    +0.000 A 
ATOM     13  C   UNL     1      25.815  24.721  30.263  0.00  0.00    +0.000 A 
ENDROOT
BRANCH   1  15
ATOM     14  C   UNL     1      26.302  25.914  32.857  0.00  0.00    +0.000 C 
ATOM     15  O   UNL     1      25.022  25.788  32.272  0.00  0.00    +0.000 OA
ENDBRANCH   1  15
BRANCH   7  16
ATOM     16  N   UNL     1      26.170  23.613  24.431  0.00  0.00    +0.000 NA
BRANCH  16  17
ATOM     17  C   UNL     1      26.864  24.559  23.577  0.00  0.00    +0.000 C 
BRANCH  17  18
ATOM     18  C   UNL     1      27.139  23.823  22.264  0.00  0.00    +0.000 C 
BRANCH  18  19
ATOM     19  C   UNL     1      28.604  23.940  21.893  0.00  0.00    +0.000 C 
ATOM     20  C   UNL     1      28.800  25.339  21.332  0.00  0.00    +0.000 C 
ATOM     21  C   UNL     1      29.407  23.831  23.160  0.00  0.00    +0.000 C 
ENDBRANCH  18  19
ENDBRANCH  17  18
ENDBRANCH  16  17
ENDBRANCH   7  16
TORSDOF 5
ENDMDL
MODEL 8
REMARK VINA RESULT:      -5.5     31.940     34.041
REMARK  Name = 
REMARK  5 active torsions:
REMARK  status: ('A' for Active; 'I' for Inactive)
REMARK    1  A    between atoms: O_2  and  C_3
REMARK    2  A    between atoms: C_9  and  N_10
REMARK    3  A    between atoms: N_10  and  C_11
REMARK    4  A    between atoms: C_11  and  C_12
REMARK    5  A    between atoms: C_12  and  C_13
REMARK                            x       y       z     vdW  Elec       q    Type
REMARK                         _______ _______ _______ _____ _____    ______ ____
ROOT
ATOM      1  C   UNL     1      25.860  24.110  28.445  0.00  0.00    +0.000 A 
ATOM      2  C   UNL     1      24.947  24.799  27.710  0.00  0.00    +0.000 A 
ATOM      3  C   UNL     1      25.118  25.015  26.363  0.00  0.00    +0.000 A 
ATOM      4  C   UNL     1      26.239  24.528  25.730  0.00  0.00    +0.000 A 
ATOM      5  N   UNL     1      26.687  24.571  24.455  0.00  0.00    +0.000 NA
ATOM      6  C   UNL     1      27.862  23.921  24.391  0.00  0.00    +0.000 A 
ATOM      7  C   UNL     1      28.711  23.687  23.333  0.00  0.00    +0.000 A 
ATOM      8  N   UNL     1      29.855  22.991  23.537  0.00  0.00    +0.000 NA
ATOM      9  C   UNL     1      30.152  22.533  24.784  0.00  0.00    +0.000 A 
ATOM     10  N   UNL     1      29.327  22.758  25.822  0.00  0.00    +0.000 NA
ATOM     11  C   UNL     1      28.206  23.437  25.634  0.00  0.00    +0.000 A 
ATOM     12  C   UNL     1      27.162  23.831  26.480  0.00  0.00    +0.000 A 
ATOM     13  C   UNL     1      26.991  23.616  27.818  0.00  0.00    +0.000 A 
ENDROOT
BRANCH   1  15
ATOM     14  C   UNL     1      26.466  22.850  30.397  0.00  0.00    +0.000 C 
ATOM     15  O   UNL     1      25.690  23.885  29.826  0.00  0.00    +0.000 OA
ENDBRANCH   1  15
BRANCH   7  16
ATOM     16  N   UNL     1      28.342  24.194  22.055  0.00  0.00    +0.000 NA
BRANCH  16  17
ATOM     17  C   UNL     1      29.270  24.953  21.238  0.00  0.00    +0.000 C 
BRANCH  17  18
ATOM     18  C   UNL     1      29.180  26.400  21.726  0.00  0.00    +0.000 C 
BRANCH  18  19
ATOM     19  C   UNL     1      27.739  26.870  21.714  0.00  0.00    +0.000 C 
ATOM     20  C   UNL     1      27.536  27.686  22.979  0.00  0.00    +0.000 C 
ATOM     21  C   UNL     1      27.567  27.788  20.535  0.00  0.00    +0.000 C 
ENDBRANCH  18  19
ENDBRANCH  17  18
ENDBRANCH  16  17
ENDBRANCH   7  16
TORSDOF 5
ENDMDL
MODEL 9
REMARK VINA RESULT:      -5.3     31.969     33.713
REMARK  Name = 
REMARK  5 active torsions:
REMARK  status: ('A' for Active; 'I' for Inactive)
REMARK    1  A    between atoms: O_2  and  C_3
REMARK    2  A    between atoms: C_9  and  N_10
REMARK    3  A    between atoms: N_10  and  C_11
REMARK    4  A    between atoms: C_11  and  C_12
REMARK    5  A    between atoms: C_12  and  C_13
REMARK                            x       y       z     vdW  Elec       q    Type
REMARK                         _______ _______ _______ _____ _____    ______ ____
ROOT
ATOM      1  C   UNL     1      23.205  26.704  28.208  0.00  0.00    +0.000 A 
ATOM      2  C   UNL     1      23.743  26.727  29.456  0.00  0.00    +0.000 A 
ATOM      3  C   UNL     1      24.841  25.966  29.784  0.00  0.00    +0.000 A 
ATOM      4  C   UNL     1      25.417  25.155  28.833  0.00  0.00    +0.000 A 
ATOM      5  N   UNL     1      26.472  24.308  28.840  0.00  0.00    +0.000 NA
ATOM      6  C   UNL     1      26.592  23.763  27.617  0.00  0.00    +0.000 A 
ATOM      7  C   UNL     1      27.496  22.853  27.116  0.00  0.00    +0.000 A 
ATOM      8  N   UNL     1      27.399  22.459  25.825  0.00  0.00    +0.000 NA
ATOM      9  C   UNL     1      26.410  22.965  25.038  0.00  0.00    +0.000 A 
ATOM     10  N   UNL     1      25.525  23.854  25.521  0.00  0.00    +0.000 NA
ATOM     11  C   UNL     1      25.610  24.247  26.782  0.00  0.00    +0.000 A 
ATOM     12  C   UNL     1      24.866  25.134  27.570  0.00  0.00    +0.000 A 
ATOM     13  C   UNL     1      23.777  25.891  27.245  0.00  0.00    +0.000 A 
ENDROOT
BRANCH   1  15
ATOM     14  C   UNL     1      21.394  28.102  28.936  0.00  0.00    +0.000 C 
ATOM     15  O   UNL     1      22.080  27.483  27.866  0.00  0.00    +0.000 OA
ENDBRANCH   1  15
BRANCH   7  16
ATOM     16  N   UNL     1      28.506  22.362  27.992  0.00  0.00    +0.000 NA
BRANCH  16  17
ATOM     17  C   UNL     1      29.782  23.036  28.139  0.00  0.00    +0.000 C 
BRANCH  17  18
ATOM     18  C   UNL     1      30.702  22.438  27.072  0.00  0.00    +0.000 C 
BRANCH  18  19
ATOM     19  C   UNL     1      30.888  23.418  25.931  0.00  0.00    +0.000 C 
ATOM     20  C   UNL     1      32.264  24.037  26.108  0.00  0.00    +0.000 C 
ATOM     21  C   UNL     1      30.893  22.632  24.649  0.00  0.00    +0.000 C 
ENDBRANCH  18  19
ENDBRANCH  17  18
ENDBRANCH  16  17
ENDBRANCH   7  16
TORSDOF 5
ENDMDL
MODEL 10
REMARK VINA RESULT:      -5.3     32.137     33.650
REMARK  Name = 
REMARK  5 active torsions:
REMARK  status: ('A' for Active; 'I' for Inactive)
REMARK    1  A    between atoms: O_2  and  C_3
REMARK    2  A    between atoms: C_9  and  N_10
REMARK    3  A    between atoms: N_10  and  C_11
REMARK    4  A    between atoms: C_11  and  C_12
REMARK    5  A    between atoms: C_12  and  C_13
REMARK                            x       y       z     vdW  Elec       q    Type
REMARK                         _______ _______ _______ _____ _____    ______ ____
ROOT
ATOM      1  C   UNL     1      24.320  25.973  25.917  0.00  0.00    +0.000 A 
ATOM      2  C   UNL     1      24.545  25.165  26.987  0.00  0.00    +0.000 A 
ATOM      3  C   UNL     1      25.613  24.300  27.027  0.00  0.00    +0.000 A 
ATOM      4  C   UNL     1      26.483  24.241  25.962  0.00  0.00    +0.000 A 
ATOM      5  N   UNL     1      27.596  23.516  25.701  0.00  0.00    +0.000 NA
ATOM      6  C   UNL     1      28.059  23.864  24.488  0.00  0.00    +0.000 A 
ATOM      7  C   UNL     1      29.151  23.423  23.775  0.00  0.00    +0.000 A 
ATOM      8  N   UNL     1      29.404  23.945  22.551  0.00  0.00    +0.000 NA
ATOM      9  C   UNL     1      28.577  24.897  22.041  0.00  0.00    +0.000 A 
ATOM     10  N   UNL     1      27.509  25.333  22.732  0.00  0.00    +0.000 NA
ATOM     11  C   UNL     1      27.252  24.830  23.930  0.00  0.00    +0.000 A 
ATOM     12  C   UNL     1      26.250  25.062  24.879  0.00  0.00    +0.000 A 
ATOM     13  C   UNL     1      25.189  25.921  24.841  0.00  0.00    +0.000 A 
ENDROOT
BRANCH   1  15
ATOM     14  C   UNL     1      22.089  26.501  26.630  0.00  0.00    +0.000 C 
ATOM     15  O   UNL     1      23.226  26.862  25.872  0.00  0.00    +0.000 OA
ENDBRANCH   1  15
BRANCH   7  16
ATOM     16  N   UNL     1      29.976  22.424  24.366  0.00  0.00    +0.000 NA
BRANCH  16  17
ATOM     17  C   UNL     1      30.959  22.749  25.382  0.00  0.00    +0.000 C 
BRANCH  17  18
ATOM     18  C   UNL     1      30.547  21.972  26.634  0.00  0.00    +0.000 C 
BRANCH  18  19
ATOM     19  C   UNL     1      30.697  22.843  27.865  0.00  0.00    +0.000 C 
ATOM     20  C   UNL     1      31.929  22.347  28.603  0.00  0.00    +0.000 C 
ATOM     21  C   UNL     1      30.967  24.248  27.403  0.00  0.00    +0.000 C 
ENDBRANCH  18  19
ENDBRANCH  17  18
ENDBRANCH  16  17
ENDBRANCH   7  16
TORSDOF 5
ENDMDL
