MODEL 1
REMARK VINA RESULT:      -9.4      0.000      0.000
REMARK  Name = 
REMARK  6 active torsions:
REMARK  status: ('A' for Active; 'I' for Inactive)
REMARK    1  A    between atoms: C_2  and  O_3
REMARK    2  A    between atoms: O_3  and  C_4
REMARK    3  A    between atoms: C_7  and  C_8
REMARK    4  A    between atoms: C_10  and  C_11
REMARK    5  A    between atoms: N_13  and  N_14
REMARK    6  A    between atoms: C_15  and  C_16
REMARK                            x       y       z     vdW  Elec       q    Type
REMARK                         _______ _______ _______ _____ _____    ______ ____
ROOT
ATOM      1  C   UNL     1      37.383  -0.875  15.439  0.00  0.00    +0.000 A 
ATOM      2  C   UNL     1      37.539   0.455  15.134  0.00  0.00    +0.000 A 
ATOM      3  C   UNL     1      38.747   0.970  14.717  0.00  0.00    +0.000 A 
ATOM      4  C   UNL     1      39.808   0.091  14.613  0.00  0.00    +0.000 A 
ATOM      5  C   UNL     1      41.057   0.536  14.185  0.00  0.00    +0.000 A 
ATOM      6  C   UNL     1      42.087  -0.367  14.083  0.00  0.00    +0.000 A 
ATOM      7  C   UNL     1      41.913  -1.703  14.393  0.00  0.00    +0.000 A 
ATOM      8  C   UNL     1      40.687  -2.136  14.812  0.00  0.00    +0.000 A 
ATOM      9  C   UNL     1      39.639  -1.243  14.920  0.00  0.00    +0.000 A 
ATOM     10  N   UNL     1      38.429  -1.704  15.330  0.00  0.00    +0.000 NA
ENDROOT
BRANCH   1  14
ATOM     11  C   UNL     1      33.674  -2.447  16.792  0.00  0.00    +0.000 A 
ATOM     12  C   UNL     1      34.136  -1.231  17.287  0.00  0.00    +0.000 A 
ATOM     13  C   UNL     1      35.340  -0.764  16.818  0.00  0.00    +0.000 A 
ATOM     14  C   UNL     1      36.111  -1.434  15.887  0.00  0.00    +0.000 A 
ATOM     15  C   UNL     1      35.633  -2.625  15.417  0.00  0.00    +0.000 A 
ATOM     16  C   UNL     1      34.425  -3.126  15.868  0.00  0.00    +0.000 A 
BRANCH  11  17
ATOM     17  O   UNL     1      32.475  -2.934  17.245  0.00  0.00    +0.000 OA
BRANCH  17  19
ATOM     18  C   UNL     1      30.360  -2.874  18.432  0.00  0.00    +0.000 C 
ATOM     19  C   UNL     1      31.394  -2.091  17.623  0.00  0.00    +0.000 C 
ENDBRANCH  17  19
ENDBRANCH  11  17
ENDBRANCH   1  14
BRANCH   3  20
ATOM     20  C   UNL     1      38.950   2.356  14.416  0.00  0.00    +0.000 C 
ATOM     21  O   UNL     1      38.779   2.703  13.199  0.00  0.00    +0.000 OA
ATOM     22  N   UNL     1      39.324   3.367  15.377  0.00  0.00    +0.000 NA
BRANCH  22  23
ATOM     23  N   UNL     1      39.481   4.630  14.882  0.00  0.00    +0.000 NA
ATOM     24  C   UNL     1      39.876   5.568  15.511  0.00  0.00    +0.000 C 
BRANCH  24  25
ATOM     25  C   UNL     1      40.297   5.809  16.821  0.00  0.00    +0.000 A 
ATOM     26  C   UNL     1      39.665   5.631  18.019  0.00  0.00    +0.000 A 
ATOM     27  C   UNL     1      38.283   5.105  18.093  0.00  0.00    +0.000 C 
ATOM     28  C   UNL     1      40.281   5.936  19.258  0.00  0.00    +0.000 A 
ATOM     29  C   UNL     1      41.541   6.427  19.312  0.00  0.00    +0.000 A 
ATOM     30  C   UNL     1      42.240   6.764  20.573  0.00  0.00    +0.000 C 
ATOM     31  C   UNL     1      42.206   6.618  18.121  0.00  0.00    +0.000 A 
ATOM     32  C   UNL     1      41.611   6.324  16.945  0.00  0.00    +0.000 A 
ATOM     33  C   UNL     1      42.370   6.548  15.674  0.00  0.00    +0.000 C 
ENDBRANCH  24  25
ENDBRANCH  22  23
ENDBRANCH   3  20
TORSDOF 6
ENDMDL
MODEL 2
REMARK VINA RESULT:      -8.8      3.191      8.721
REMARK  Name = 
REMARK  6 active torsions:
REMARK  status: ('A' for Active; 'I' for Inactive)
REMARK    1  A    between atoms: C_2  and  O_3
REMARK    2  A    between atoms: O_3  and  C_4
REMARK    3  A    between atoms: C_7  and  C_8
REMARK    4  A    between atoms: C_10  and  C_11
REMARK    5  A    between atoms: N_13  and  N_14
REMARK    6  A    between atoms: C_15  and  C_16
REMARK                            x       y       z     vdW  Elec       q    Type
REMARK                         _______ _______ _______ _____ _____    ______ ____
ROOT
ATOM      1  C   UNL     1      39.156   5.382  16.758  0.00  0.00    +0.000 A 
ATOM      2  C   UNL     1      38.316   4.313  16.563  0.00  0.00    +0.000 A 
ATOM      3  C   UNL     1      38.417   3.499  15.456  0.00  0.00    +0.000 A 
ATOM      4  C   UNL     1      39.406   3.797  14.539  0.00  0.00    +0.000 A 
ATOM      5  C   UNL     1      39.578   3.011  13.403  0.00  0.00    +0.000 A 
ATOM      6  C   UNL     1      40.578   3.329  12.517  0.00  0.00    +0.000 A 
ATOM      7  C   UNL     1      41.415   4.408  12.727  0.00  0.00    +0.000 A 
ATOM      8  C   UNL     1      41.245   5.177  13.843  0.00  0.00    +0.000 A 
ATOM      9  C   UNL     1      40.246   4.872  14.746  0.00  0.00    +0.000 A 
ATOM     10  N   UNL     1      40.106   5.648  15.851  0.00  0.00    +0.000 NA
ENDROOT
BRANCH   1  14
ATOM     11  C   UNL     1      38.823   7.971  20.111  0.00  0.00    +0.000 A 
ATOM     12  C   UNL     1      38.016   8.172  18.995  0.00  0.00    +0.000 A 
ATOM     13  C   UNL     1      38.160   7.307  17.936  0.00  0.00    +0.000 A 
ATOM     14  C   UNL     1      39.058   6.257  17.922  0.00  0.00    +0.000 A 
ATOM     15  C   UNL     1      39.837   6.083  19.032  0.00  0.00    +0.000 A 
ATOM     16  C   UNL     1      39.719   6.934  20.116  0.00  0.00    +0.000 A 
BRANCH  11  17
ATOM     17  O   UNL     1      38.697   8.821  21.179  0.00  0.00    +0.000 OA
BRANCH  17  19
ATOM     18  C   UNL     1      39.814  10.967  20.993  0.00  0.00    +0.000 C 
ATOM     19  C   UNL     1      38.481  10.218  21.032  0.00  0.00    +0.000 C 
ENDBRANCH  17  19
ENDBRANCH  11  17
ENDBRANCH   1  14
BRANCH   3  20
ATOM     20  C   UNL     1      37.540   2.392  15.212  0.00  0.00    +0.000 C 
ATOM     21  O   UNL     1      36.452   2.658  14.597  0.00  0.00    +0.000 OA
ATOM     22  N   UNL     1      37.798   1.027  15.604  0.00  0.00    +0.000 NA
BRANCH  22  23
ATOM     23  N   UNL     1      36.825   0.123  15.289  0.00  0.00    +0.000 NA
ATOM     24  C   UNL     1      36.600  -0.883  15.897  0.00  0.00    +0.000 C 
BRANCH  24  25
ATOM     25  C   UNL     1      37.117  -1.526  17.025  0.00  0.00    +0.000 A 
ATOM     26  C   UNL     1      36.951  -1.280  18.358  0.00  0.00    +0.000 A 
ATOM     27  C   UNL     1      36.109  -0.162  18.840  0.00  0.00    +0.000 C 
ATOM     28  C   UNL     1      37.569  -2.068  19.361  0.00  0.00    +0.000 A 
ATOM     29  C   UNL     1      38.364  -3.115  19.038  0.00  0.00    +0.000 A 
ATOM     30  C   UNL     1      39.037  -3.977  20.035  0.00  0.00    +0.000 C 
ATOM     31  C   UNL     1      38.551  -3.389  17.700  0.00  0.00    +0.000 A 
ATOM     32  C   UNL     1      37.958  -2.632  16.753  0.00  0.00    +0.000 A 
ATOM     33  C   UNL     1      38.189  -2.964  15.311  0.00  0.00    +0.000 C 
ENDBRANCH  24  25
ENDBRANCH  22  23
ENDBRANCH   3  20
TORSDOF 6
ENDMDL
MODEL 3
REMARK VINA RESULT:      -8.7      2.973      9.440
REMARK  Name = 
REMARK  6 active torsions:
REMARK  status: ('A' for Active; 'I' for Inactive)
REMARK    1  A    between atoms: C_2  and  O_3
REMARK    2  A    between atoms: O_3  and  C_4
REMARK    3  A    between atoms: C_7  and  C_8
REMARK    4  A    between atoms: C_10  and  C_11
REMARK    5  A    between atoms: N_13  and  N_14
REMARK    6  A    between atoms: C_15  and  C_16
REMARK                            x       y       z     vdW  Elec       q    Type
REMARK                         _______ _______ _______ _____ _____    ______ ____
ROOT
ATOM      1  C   UNL     1      38.706   5.583  17.081  0.00  0.00    +0.000 A 
ATOM      2  C   UNL     1      38.219   4.299  17.113  0.00  0.00    +0.000 A 
ATOM      3  C   UNL     1      37.317   3.839  16.178  0.00  0.00    +0.000 A 
ATOM      4  C   UNL     1      36.915   4.724  15.196  0.00  0.00    +0.000 A 
ATOM      5  C   UNL     1      36.016   4.327  14.210  0.00  0.00    +0.000 A 
ATOM      6  C   UNL     1      35.647   5.229  13.243  0.00  0.00    +0.000 A 
ATOM      7  C   UNL     1      36.146   6.518  13.225  0.00  0.00    +0.000 A 
ATOM      8  C   UNL     1      37.029   6.904  14.193  0.00  0.00    +0.000 A 
ATOM      9  C   UNL     1      37.413   6.011  15.174  0.00  0.00    +0.000 A 
ATOM     10  N   UNL     1      38.299   6.420  16.118  0.00  0.00    +0.000 NA
ENDROOT
BRANCH   1  14
ATOM     11  C   UNL     1      41.532   7.033  19.903  0.00  0.00    +0.000 A 
ATOM     12  C   UNL     1      41.946   6.690  18.620  0.00  0.00    +0.000 A 
ATOM     13  C   UNL     1      40.994   6.227  17.742  0.00  0.00    +0.000 A 
ATOM     14  C   UNL     1      39.659   6.086  18.067  0.00  0.00    +0.000 A 
ATOM     15  C   UNL     1      39.281   6.431  19.334  0.00  0.00    +0.000 A 
ATOM     16  C   UNL     1      40.212   6.900  20.243  0.00  0.00    +0.000 A 
BRANCH  11  17
ATOM     17  O   UNL     1      42.464   7.498  20.796  0.00  0.00    +0.000 OA
BRANCH  17  19
ATOM     18  C   UNL     1      43.895   5.736  21.653  0.00  0.00    +0.000 C 
ATOM     19  C   UNL     1      43.803   7.021  20.830  0.00  0.00    +0.000 C 
ENDBRANCH  17  19
ENDBRANCH  11  17
ENDBRANCH   1  14
BRANCH   3  20
ATOM     20  C   UNL     1      36.770   2.515  16.199  0.00  0.00    +0.000 C 
ATOM     21  O   UNL     1      35.622   2.384  16.742  0.00  0.00    +0.000 OA
ATOM     22  N   UNL     1      37.416   1.343  15.658  0.00  0.00    +0.000 NA
BRANCH  22  23
ATOM     23  N   UNL     1      36.732   0.169  15.792  0.00  0.00    +0.000 NA
ATOM     24  C   UNL     1      37.101  -0.892  15.379  0.00  0.00    +0.000 C 
BRANCH  24  25
ATOM     25  C   UNL     1      38.208  -1.381  14.682  0.00  0.00    +0.000 A 
ATOM     26  C   UNL     1      38.589  -1.234  13.378  0.00  0.00    +0.000 A 
ATOM     27  C   UNL     1      37.779  -0.452  12.418  0.00  0.00    +0.000 C 
ATOM     28  C   UNL     1      39.773  -1.817  12.861  0.00  0.00    +0.000 A 
ATOM     29  C   UNL     1      40.591  -2.557  13.645  0.00  0.00    +0.000 A 
ATOM     30  C   UNL     1      41.840  -3.191  13.167  0.00  0.00    +0.000 C 
ATOM     31  C   UNL     1      40.233  -2.724  14.966  0.00  0.00    +0.000 A 
ATOM     32  C   UNL     1      39.103  -2.165  15.450  0.00  0.00    +0.000 A 
ATOM     33  C   UNL     1      38.753  -2.372  16.890  0.00  0.00    +0.000 C 
ENDBRANCH  24  25
ENDBRANCH  22  23
ENDBRANCH   3  20
TORSDOF 6
ENDMDL
MODEL 4
REMARK VINA RESULT:      -8.7      3.107      9.072
REMARK  Name = 
REMARK  6 active torsions:
REMARK  status: ('A' for Active; 'I' for Inactive)
REMARK    1  A    between atoms: C_2  and  O_3
REMARK    2  A    between atoms: O_3  and  C_4
REMARK    3  A    between atoms: C_7  and  C_8
REMARK    4  A    between atoms: C_10  and  C_11
REMARK    5  A    between atoms: N_13  and  N_14
REMARK    6  A    between atoms: C_15  and  C_16
REMARK                            x       y       z     vdW  Elec       q    Type
REMARK                         _______ _______ _______ _____ _____    ______ ____
ROOT
ATOM      1  C   UNL     1      39.052   5.174  16.468  0.00  0.00    +0.000 A 
ATOM      2  C   UNL     1      38.081   4.229  16.692  0.00  0.00    +0.000 A 
ATOM      3  C   UNL     1      37.312   3.718  15.669  0.00  0.00    +0.000 A 
ATOM      4  C   UNL     1      37.555   4.193  14.395  0.00  0.00    +0.000 A 
ATOM      5  C   UNL     1      36.827   3.714  13.309  0.00  0.00    +0.000 A 
ATOM      6  C   UNL     1      37.103   4.201  12.055  0.00  0.00    +0.000 A 
ATOM      7  C   UNL     1      38.083   5.152  11.846  0.00  0.00    +0.000 A 
ATOM      8  C   UNL     1      38.797   5.620  12.913  0.00  0.00    +0.000 A 
ATOM      9  C   UNL     1      38.534   5.142  14.181  0.00  0.00    +0.000 A 
ATOM     10  N   UNL     1      39.266   5.618  15.222  0.00  0.00    +0.000 NA
ENDROOT
BRANCH   1  14
ATOM     11  C   UNL     1      41.377   6.787  19.638  0.00  0.00    +0.000 A 
ATOM     12  C   UNL     1      40.066   6.384  19.873  0.00  0.00    +0.000 A 
ATOM     13  C   UNL     1      39.355   5.867  18.816  0.00  0.00    +0.000 A 
ATOM     14  C   UNL     1      39.871   5.729  17.542  0.00  0.00    +0.000 A 
ATOM     15  C   UNL     1      41.161   6.133  17.340  0.00  0.00    +0.000 A 
ATOM     16  C   UNL     1      41.906   6.658  18.380  0.00  0.00    +0.000 A 
BRANCH  11  17
ATOM     17  O   UNL     1      42.106   7.306  20.677  0.00  0.00    +0.000 OA
BRANCH  17  19
ATOM     18  C   UNL     1      43.798   5.977  21.798  0.00  0.00    +0.000 C 
ATOM     19  C   UNL     1      43.507   7.108  20.810  0.00  0.00    +0.000 C 
ENDBRANCH  17  19
ENDBRANCH  11  17
ENDBRANCH   1  14
BRANCH   3  20
ATOM     20  C   UNL     1      36.274   2.751  15.873  0.00  0.00    +0.000 C 
ATOM     21  O   UNL     1      35.106   3.214  16.105  0.00  0.00    +0.000 OA
ATOM     22  N   UNL     1      36.456   1.320  15.836  0.00  0.00    +0.000 NA
BRANCH  22  23
ATOM     23  N   UNL     1      35.339   0.570  16.072  0.00  0.00    +0.000 NA
ATOM     24  C   UNL     1      35.327  -0.484  16.637  0.00  0.00    +0.000 C 
BRANCH  24  25
ATOM     25  C   UNL     1      36.267  -1.330  17.231  0.00  0.00    +0.000 A 
ATOM     26  C   UNL     1      37.089  -2.281  16.695  0.00  0.00    +0.000 A 
ATOM     27  C   UNL     1      37.083  -2.582  15.246  0.00  0.00    +0.000 C 
ATOM     28  C   UNL     1      37.991  -3.038  17.484  0.00  0.00    +0.000 A 
ATOM     29  C   UNL     1      38.080  -2.852  18.821  0.00  0.00    +0.000 A 
ATOM     30  C   UNL     1      39.002  -3.608  19.699  0.00  0.00    +0.000 C 
ATOM     31  C   UNL     1      37.264  -1.899  19.391  0.00  0.00    +0.000 A 
ATOM     32  C   UNL     1      36.408  -1.182  18.632  0.00  0.00    +0.000 A 
ATOM     33  C   UNL     1      35.539  -0.157  19.292  0.00  0.00    +0.000 C 
ENDBRANCH  24  25
ENDBRANCH  22  23
ENDBRANCH   3  20
TORSDOF 6
ENDMDL
MODEL 5
REMARK VINA RESULT:      -8.5      2.474      5.970
REMARK  Name = 
REMARK  6 active torsions:
REMARK  status: ('A' for Active; 'I' for Inactive)
REMARK    1  A    between atoms: C_2  and  O_3
REMARK    2  A    between atoms: O_3  and  C_4
REMARK    3  A    between atoms: C_7  and  C_8
REMARK    4  A    between atoms: C_10  and  C_11
REMARK    5  A    between atoms: N_13  and  N_14
REMARK    6  A    between atoms: C_15  and  C_16
REMARK                            x       y       z     vdW  Elec       q    Type
REMARK                         _______ _______ _______ _____ _____    ______ ____
ROOT
ATOM      1  C   UNL     1      38.971  -0.055  14.513  0.00  0.00    +0.000 A 
ATOM      2  C   UNL     1      39.134   1.308  14.470  0.00  0.00    +0.000 A 
ATOM      3  C   UNL     1      38.193   2.171  14.990  0.00  0.00    +0.000 A 
ATOM      4  C   UNL     1      37.069   1.611  15.566  0.00  0.00    +0.000 A 
ATOM      5  C   UNL     1      36.083   2.419  16.124  0.00  0.00    +0.000 A 
ATOM      6  C   UNL     1      34.983   1.828  16.698  0.00  0.00    +0.000 A 
ATOM      7  C   UNL     1      34.834   0.455  16.733  0.00  0.00    +0.000 A 
ATOM      8  C   UNL     1      35.804  -0.336  16.185  0.00  0.00    +0.000 A 
ATOM      9  C   UNL     1      36.917   0.240  15.605  0.00  0.00    +0.000 A 
ATOM     10  N   UNL     1      37.870  -0.571  15.076  0.00  0.00    +0.000 NA
ENDROOT
BRANCH   1  14
ATOM     11  C   UNL     1      41.790  -2.766  12.851  0.00  0.00    +0.000 A 
ATOM     12  C   UNL     1      40.623  -2.464  12.156  0.00  0.00    +0.000 A 
ATOM     13  C   UNL     1      39.742  -1.581  12.734  0.00  0.00    +0.000 A 
ATOM     14  C   UNL     1      39.955  -0.981  13.961  0.00  0.00    +0.000 A 
ATOM     15  C   UNL     1      41.110  -1.296  14.621  0.00  0.00    +0.000 A 
ATOM     16  C   UNL     1      42.018  -2.181  14.070  0.00  0.00    +0.000 A 
BRANCH  11  17
ATOM     17  O   UNL     1      42.683  -3.645  12.294  0.00  0.00    +0.000 OA
BRANCH  17  19
ATOM     18  C   UNL     1      44.672  -2.539  11.454  0.00  0.00    +0.000 C 
ATOM     19  C   UNL     1      44.089  -3.527  12.465  0.00  0.00    +0.000 C 
ENDBRANCH  17  19
ENDBRANCH  11  17
ENDBRANCH   1  14
BRANCH   3  20
ATOM     20  C   UNL     1      38.321   3.597  14.938  0.00  0.00    +0.000 C 
ATOM     21  O   UNL     1      37.723   4.184  13.974  0.00  0.00    +0.000 OA
ATOM     22  N   UNL     1      39.065   4.398  15.881  0.00  0.00    +0.000 NA
BRANCH  22  23
ATOM     23  N   UNL     1      39.074   5.743  15.644  0.00  0.00    +0.000 NA
ATOM     24  C   UNL     1      39.721   6.543  16.255  0.00  0.00    +0.000 C 
BRANCH  24  25
ATOM     25  C   UNL     1      40.624   6.518  17.321  0.00  0.00    +0.000 A 
ATOM     26  C   UNL     1      41.990   6.544  17.346  0.00  0.00    +0.000 A 
ATOM     27  C   UNL     1      42.786   6.599  16.099  0.00  0.00    +0.000 C 
ATOM     28  C   UNL     1      42.730   6.518  18.554  0.00  0.00    +0.000 A 
ATOM     29  C   UNL     1      42.109   6.465  19.756  0.00  0.00    +0.000 A 
ATOM     30  C   UNL     1      42.823   6.436  21.052  0.00  0.00    +0.000 C 
ATOM     31  C   UNL     1      40.731   6.437  19.764  0.00  0.00    +0.000 A 
ATOM     32  C   UNL     1      40.035   6.463  18.607  0.00  0.00    +0.000 A 
ATOM     33  C   UNL     1      38.539   6.430  18.662  0.00  0.00    +0.000 C 
ENDBRANCH  24  25
ENDBRANCH  22  23
ENDBRANCH   3  20
TORSDOF 6
ENDMDL
MODEL 6
REMARK VINA RESULT:      -8.2      2.152      6.059
REMARK  Name = 
REMARK  6 active torsions:
REMARK  status: ('A' for Active; 'I' for Inactive)
REMARK    1  A    between atoms: C_2  and  O_3
REMARK    2  A    between atoms: O_3  and  C_4
REMARK    3  A    between atoms: C_7  and  C_8
REMARK    4  A    between atoms: C_10  and  C_11
REMARK    5  A    between atoms: N_13  and  N_14
REMARK    6  A    between atoms: C_15  and  C_16
REMARK                            x       y       z     vdW  Elec       q    Type
REMARK                         _______ _______ _______ _____ _____    ______ ____
ROOT
ATOM      1  C   UNL     1      39.403  -0.818  14.673  0.00  0.00    +0.000 A 
ATOM      2  C   UNL     1      39.170   0.535  14.618  0.00  0.00    +0.000 A 
ATOM      3  C   UNL     1      38.007   1.095  15.101  0.00  0.00    +0.000 A 
ATOM      4  C   UNL     1      37.073   0.238  15.651  0.00  0.00    +0.000 A 
ATOM      5  C   UNL     1      35.880   0.733  16.171  0.00  0.00    +0.000 A 
ATOM      6  C   UNL     1      34.977  -0.146  16.720  0.00  0.00    +0.000 A 
ATOM      7  C   UNL     1      35.227  -1.504  16.767  0.00  0.00    +0.000 A 
ATOM      8  C   UNL     1      36.398  -1.986  16.257  0.00  0.00    +0.000 A 
ATOM      9  C   UNL     1      37.318  -1.118  15.702  0.00  0.00    +0.000 A 
ATOM     10  N   UNL     1      38.478  -1.625  15.211  0.00  0.00    +0.000 NA
ENDROOT
BRANCH   1  14
ATOM     11  C   UNL     1      43.004  -2.529  13.204  0.00  0.00    +0.000 A 
ATOM     12  C   UNL     1      43.043  -1.336  13.919  0.00  0.00    +0.000 A 
ATOM     13  C   UNL     1      41.852  -0.822  14.375  0.00  0.00    +0.000 A 
ATOM     14  C   UNL     1      40.627  -1.426  14.161  0.00  0.00    +0.000 A 
ATOM     15  C   UNL     1      40.619  -2.596  13.456  0.00  0.00    +0.000 A 
ATOM     16  C   UNL     1      41.799  -3.141  12.982  0.00  0.00    +0.000 A 
BRANCH  11  17
ATOM     17  O   UNL     1      44.180  -3.059  12.739  0.00  0.00    +0.000 OA
BRANCH  17  19
ATOM     18  C   UNL     1      44.509  -3.274  10.345  0.00  0.00    +0.000 C 
ATOM     19  C   UNL     1      44.234  -3.992  11.667  0.00  0.00    +0.000 C 
ENDBRANCH  17  19
ENDBRANCH  11  17
ENDBRANCH   1  14
BRANCH   3  20
ATOM     20  C   UNL     1      37.724   2.498  15.036  0.00  0.00    +0.000 C 
ATOM     21  O   UNL     1      37.026   2.888  14.040  0.00  0.00    +0.000 OA
ATOM     22  N   UNL     1      38.165   3.479  15.998  0.00  0.00    +0.000 NA
BRANCH  22  23
ATOM     23  N   UNL     1      37.800   4.770  15.744  0.00  0.00    +0.000 NA
ATOM     24  C   UNL     1      38.466   5.732  15.991  0.00  0.00    +0.000 C 
BRANCH  24  25
ATOM     25  C   UNL     1      39.718   5.984  16.558  0.00  0.00    +0.000 A 
ATOM     26  C   UNL     1      40.124   6.037  17.861  0.00  0.00    +0.000 A 
ATOM     27  C   UNL     1      39.175   5.818  18.976  0.00  0.00    +0.000 C 
ATOM     28  C   UNL     1      41.465   6.305  18.231  0.00  0.00    +0.000 A 
ATOM     29  C   UNL     1      42.419   6.525  17.296  0.00  0.00    +0.000 A 
ATOM     30  C   UNL     1      43.836   6.808  17.616  0.00  0.00    +0.000 C 
ATOM     31  C   UNL     1      42.042   6.478  15.971  0.00  0.00    +0.000 A 
ATOM     32  C   UNL     1      40.761   6.221  15.629  0.00  0.00    +0.000 A 
ATOM     33  C   UNL     1      40.394   6.180  14.178  0.00  0.00    +0.000 C 
ENDBRANCH  24  25
ENDBRANCH  22  23
ENDBRANCH   3  20
TORSDOF 6
ENDMDL
MODEL 7
REMARK VINA RESULT:      -8.2      2.068      2.960
REMARK  Name = 
REMARK  6 active torsions:
REMARK  status: ('A' for Active; 'I' for Inactive)
REMARK    1  A    between atoms: C_2  and  O_3
REMARK    2  A    between atoms: O_3  and  C_4
REMARK    3  A    between atoms: C_7  and  C_8
REMARK    4  A    between atoms: C_10  and  C_11
REMARK    5  A    between atoms: N_13  and  N_14
REMARK    6  A    between atoms: C_15  and  C_16
REMARK                            x       y       z     vdW  Elec       q    Type
REMARK                         _______ _______ _______ _____ _____    ______ ____
ROOT
ATOM      1  C   UNL     1      37.648  -0.007  14.610  0.00  0.00    +0.000 A 
ATOM      2  C   UNL     1      37.392   1.197  15.221  0.00  0.00    +0.000 A 
ATOM      3  C   UNL     1      38.155   2.317  14.972  0.00  0.00    +0.000 A 
ATOM      4  C   UNL     1      39.198   2.187  14.075  0.00  0.00    +0.000 A 
ATOM      5  C   UNL     1      40.004   3.278  13.764  0.00  0.00    +0.000 A 
ATOM      6  C   UNL     1      41.026   3.115  12.860  0.00  0.00    +0.000 A 
ATOM      7  C   UNL     1      41.269   1.898  12.254  0.00  0.00    +0.000 A 
ATOM      8  C   UNL     1      40.476   0.829  12.560  0.00  0.00    +0.000 A 
ATOM      9  C   UNL     1      39.444   0.973  13.467  0.00  0.00    +0.000 A 
ATOM     10  N   UNL     1      38.666  -0.104  13.745  0.00  0.00    +0.000 NA
ENDROOT
BRANCH   1  14
ATOM     11  C   UNL     1      35.296  -3.453  15.413  0.00  0.00    +0.000 A 
ATOM     12  C   UNL     1      35.043  -2.265  16.093  0.00  0.00    +0.000 A 
ATOM     13  C   UNL     1      35.830  -1.178  15.798  0.00  0.00    +0.000 A 
ATOM     14  C   UNL     1      36.851  -1.203  14.868  0.00  0.00    +0.000 A 
ATOM     15  C   UNL     1      37.077  -2.382  14.215  0.00  0.00    +0.000 A 
ATOM     16  C   UNL     1      36.305  -3.497  14.487  0.00  0.00    +0.000 A 
BRANCH  11  17
ATOM     17  O   UNL     1      34.524  -4.552  15.692  0.00  0.00    +0.000 OA
BRANCH  17  19
ATOM     18  C   UNL     1      33.715  -6.680  14.853  0.00  0.00    +0.000 C 
ATOM     19  C   UNL     1      34.916  -5.876  15.353  0.00  0.00    +0.000 C 
ENDBRANCH  17  19
ENDBRANCH  11  17
ENDBRANCH   1  14
BRANCH   3  20
ATOM     20  C   UNL     1      37.931   3.579  15.613  0.00  0.00    +0.000 C 
ATOM     21  O   UNL     1      37.075   4.350  15.060  0.00  0.00    +0.000 OA
ATOM     22  N   UNL     1      38.592   4.028  16.814  0.00  0.00    +0.000 NA
BRANCH  22  23
ATOM     23  N   UNL     1      38.246   5.274  17.255  0.00  0.00    +0.000 NA
ATOM     24  C   UNL     1      39.015   6.165  17.467  0.00  0.00    +0.000 C 
BRANCH  24  25
ATOM     25  C   UNL     1      40.398   6.354  17.389  0.00  0.00    +0.000 A 
ATOM     26  C   UNL     1      41.233   6.460  16.313  0.00  0.00    +0.000 A 
ATOM     27  C   UNL     1      40.725   6.367  14.926  0.00  0.00    +0.000 C 
ATOM     28  C   UNL     1      42.630   6.661  16.451  0.00  0.00    +0.000 A 
ATOM     29  C   UNL     1      43.207   6.757  17.672  0.00  0.00    +0.000 A 
ATOM     30  C   UNL     1      44.656   6.968  17.883  0.00  0.00    +0.000 C 
ATOM     31  C   UNL     1      42.390   6.655  18.777  0.00  0.00    +0.000 A 
ATOM     32  C   UNL     1      41.061   6.464  18.635  0.00  0.00    +0.000 A 
ATOM     33  C   UNL     1      40.210   6.357  19.863  0.00  0.00    +0.000 C 
ENDBRANCH  24  25
ENDBRANCH  22  23
ENDBRANCH   3  20
TORSDOF 6
ENDMDL
MODEL 8
REMARK VINA RESULT:      -8.0      4.369      8.890
REMARK  Name = 
REMARK  6 active torsions:
REMARK  status: ('A' for Active; 'I' for Inactive)
REMARK    1  A    between atoms: C_2  and  O_3
REMARK    2  A    between atoms: O_3  and  C_4
REMARK    3  A    between atoms: C_7  and  C_8
REMARK    4  A    between atoms: C_10  and  C_11
REMARK    5  A    between atoms: N_13  and  N_14
REMARK    6  A    between atoms: C_15  and  C_16
REMARK                            x       y       z     vdW  Elec       q    Type
REMARK                         _______ _______ _______ _____ _____    ______ ____
ROOT
ATOM      1  C   UNL     1      36.208   5.512  14.065  0.00  0.00    +0.000 A 
ATOM      2  C   UNL     1      35.958   4.233  14.500  0.00  0.00    +0.000 A 
ATOM      3  C   UNL     1      36.573   3.711  15.618  0.00  0.00    +0.000 A 
ATOM      4  C   UNL     1      37.458   4.528  16.294  0.00  0.00    +0.000 A 
ATOM      5  C   UNL     1      38.107   4.073  17.439  0.00  0.00    +0.000 A 
ATOM      6  C   UNL     1      38.973   4.916  18.093  0.00  0.00    +0.000 A 
ATOM      7  C   UNL     1      39.213   6.200  17.642  0.00  0.00    +0.000 A 
ATOM      8  C   UNL     1      38.574   6.643  16.518  0.00  0.00    +0.000 A 
ATOM      9  C   UNL     1      37.700   5.811  15.848  0.00  0.00    +0.000 A 
ATOM     10  N   UNL     1      37.072   6.282  14.740  0.00  0.00    +0.000 NA
ENDROOT
BRANCH   1  14
ATOM     11  C   UNL     1      34.406   7.141  10.579  0.00  0.00    +0.000 A 
ATOM     12  C   UNL     1      35.636   6.497  10.489  0.00  0.00    +0.000 A 
ATOM     13  C   UNL     1      36.178   5.985  11.644  0.00  0.00    +0.000 A 
ATOM     14  C   UNL     1      35.568   6.077  12.881  0.00  0.00    +0.000 A 
ATOM     15  C   UNL     1      34.361   6.715  12.940  0.00  0.00    +0.000 A 
ATOM     16  C   UNL     1      33.787   7.242  11.797  0.00  0.00    +0.000 A 
BRANCH  11  17
ATOM     17  O   UNL     1      33.846   7.660   9.440  0.00  0.00    +0.000 OA
BRANCH  17  19
ATOM     18  C   UNL     1      33.335   6.465   7.391  0.00  0.00    +0.000 C 
ATOM     19  C   UNL     1      34.329   7.357   8.137  0.00  0.00    +0.000 C 
ENDBRANCH  17  19
ENDBRANCH  11  17
ENDBRANCH   1  14
BRANCH   3  20
ATOM     20  C   UNL     1      36.353   2.373  16.082  0.00  0.00    +0.000 C 
ATOM     21  O   UNL     1      35.305   2.183  16.786  0.00  0.00    +0.000 OA
ATOM     22  N   UNL     1      37.219   1.250  15.813  0.00  0.00    +0.000 NA
BRANCH  22  23
ATOM     23  N   UNL     1      36.838   0.059  16.362  0.00  0.00    +0.000 NA
ATOM     24  C   UNL     1      37.307  -1.006  16.084  0.00  0.00    +0.000 C 
BRANCH  24  25
ATOM     25  C   UNL     1      38.296  -1.487  15.221  0.00  0.00    +0.000 A 
ATOM     26  C   UNL     1      38.501  -1.288  13.885  0.00  0.00    +0.000 A 
ATOM     27  C   UNL     1      37.591  -0.443  13.080  0.00  0.00    +0.000 C 
ATOM     28  C   UNL     1      39.587  -1.872  13.187  0.00  0.00    +0.000 A 
ATOM     29  C   UNL     1      40.482  -2.666  13.820  0.00  0.00    +0.000 A 
ATOM     30  C   UNL     1      41.637  -3.304  13.149  0.00  0.00    +0.000 C 
ATOM     31  C   UNL     1      40.302  -2.887  15.168  0.00  0.00    +0.000 A 
ATOM     32  C   UNL     1      39.264  -2.325  15.825  0.00  0.00    +0.000 A 
ATOM     33  C   UNL     1      39.106  -2.592  17.290  0.00  0.00    +0.000 C 
ENDBRANCH  24  25
ENDBRANCH  22  23
ENDBRANCH   3  20
TORSDOF 6
ENDMDL
MODEL 9
REMARK VINA RESULT:      -8.0      3.533     10.331
REMARK  Name = 
REMARK  6 active torsions:
REMARK  status: ('A' for Active; 'I' for Inactive)
REMARK    1  A    between atoms: C_2  and  O_3
REMARK    2  A    between atoms: O_3  and  C_4
REMARK    3  A    between atoms: C_7  and  C_8
REMARK    4  A    between atoms: C_10  and  C_11
REMARK    5  A    between atoms: N_13  and  N_14
REMARK    6  A    between atoms: C_15  and  C_16
REMARK                            x       y       z     vdW  Elec       q    Type
REMARK                         _______ _______ _______ _____ _____    ______ ____
ROOT
ATOM      1  C   UNL     1      41.602   6.789  19.472  0.00  0.00    +0.000 A 
ATOM      2  C   UNL     1      41.245   6.482  18.181  0.00  0.00    +0.000 A 
ATOM      3  C   UNL     1      40.006   6.803  17.672  0.00  0.00    +0.000 A 
ATOM      4  C   UNL     1      39.124   7.454  18.514  0.00  0.00    +0.000 A 
ATOM      5  C   UNL     1      37.858   7.822  18.065  0.00  0.00    +0.000 A 
ATOM      6  C   UNL     1      37.011   8.477  18.926  0.00  0.00    +0.000 A 
ATOM      7  C   UNL     1      37.386   8.779  20.221  0.00  0.00    +0.000 A 
ATOM      8  C   UNL     1      38.629   8.417  20.658  0.00  0.00    +0.000 A 
ATOM      9  C   UNL     1      39.494   7.758  19.807  0.00  0.00    +0.000 A 
ATOM     10  N   UNL     1      40.726   7.420  20.266  0.00  0.00    +0.000 NA
ENDROOT
BRANCH   1  14
ATOM     11  C   UNL     1      45.438   5.824  21.024  0.00  0.00    +0.000 A 
ATOM     12  C   UNL     1      45.325   6.427  19.775  0.00  0.00    +0.000 A 
ATOM     13  C   UNL     1      44.063   6.721  19.316  0.00  0.00    +0.000 A 
ATOM     14  C   UNL     1      42.909   6.451  20.027  0.00  0.00    +0.000 A 
ATOM     15  C   UNL     1      43.050   5.859  21.251  0.00  0.00    +0.000 A 
ATOM     16  C   UNL     1      44.304   5.549  21.743  0.00  0.00    +0.000 A 
BRANCH  11  17
ATOM     17  O   UNL     1      46.687   5.522  21.502  0.00  0.00    +0.000 OA
BRANCH  17  19
ATOM     18  C   UNL     1      46.877   3.189  20.863  0.00  0.00    +0.000 C 
ATOM     19  C   UNL     1      47.039   4.227  21.974  0.00  0.00    +0.000 C 
ENDBRANCH  17  19
ENDBRANCH  11  17
ENDBRANCH   1  14
BRANCH   3  20
ATOM     20  C   UNL     1      39.594   6.474  16.339  0.00  0.00    +0.000 C 
ATOM     21  O   UNL     1      39.866   7.333  15.434  0.00  0.00    +0.000 OA
ATOM     22  N   UNL     1      38.907   5.263  15.959  0.00  0.00    +0.000 NA
BRANCH  22  23
ATOM     23  N   UNL     1      38.590   5.148  14.636  0.00  0.00    +0.000 NA
ATOM     24  C   UNL     1      38.073   4.192  14.135  0.00  0.00    +0.000 C 
BRANCH  24  25
ATOM     25  C   UNL     1      37.617   2.942  14.562  0.00  0.00    +0.000 A 
ATOM     26  C   UNL     1      38.276   1.761  14.757  0.00  0.00    +0.000 A 
ATOM     27  C   UNL     1      39.728   1.634  14.502  0.00  0.00    +0.000 C 
ATOM     28  C   UNL     1      37.620   0.589  15.209  0.00  0.00    +0.000 A 
ATOM     29  C   UNL     1      36.292   0.587  15.471  0.00  0.00    +0.000 A 
ATOM     30  C   UNL     1      35.548  -0.602  15.946  0.00  0.00    +0.000 C 
ATOM     31  C   UNL     1      35.599   1.763  15.284  0.00  0.00    +0.000 A 
ATOM     32  C   UNL     1      36.233   2.875  14.854  0.00  0.00    +0.000 A 
ATOM     33  C   UNL     1      35.442   4.132  14.663  0.00  0.00    +0.000 C 
ENDBRANCH  24  25
ENDBRANCH  22  23
ENDBRANCH   3  20
TORSDOF 6
ENDMDL
MODEL 10
REMARK VINA RESULT:      -7.9     26.283     29.329
REMARK  Name = 
REMARK  6 active torsions:
REMARK  status: ('A' for Active; 'I' for Inactive)
REMARK    1  A    between atoms: C_2  and  O_3
REMARK    2  A    between atoms: O_3  and  C_4
REMARK    3  A    between atoms: C_7  and  C_8
REMARK    4  A    between atoms: C_10  and  C_11
REMARK    5  A    between atoms: N_13  and  N_14
REMARK    6  A    between atoms: C_15  and  C_16
REMARK                            x       y       z     vdW  Elec       q    Type
REMARK                         _______ _______ _______ _____ _____    ______ ____
ROOT
ATOM      1  C   UNL     1      25.834  13.833  40.525  0.00  0.00    +0.000 A 
ATOM      2  C   UNL     1      26.629  14.033  39.423  0.00  0.00    +0.000 A 
ATOM      3  C   UNL     1      26.449  15.109  38.581  0.00  0.00    +0.000 A 
ATOM      4  C   UNL     1      25.430  15.990  38.888  0.00  0.00    +0.000 A 
ATOM      5  C   UNL     1      25.197  17.107  38.090  0.00  0.00    +0.000 A 
ATOM      6  C   UNL     1      24.183  17.969  38.431  0.00  0.00    +0.000 A 
ATOM      7  C   UNL     1      23.392  17.753  39.543  0.00  0.00    +0.000 A 
ATOM      8  C   UNL     1      23.624  16.657  40.324  0.00  0.00    +0.000 A 
ATOM      9  C   UNL     1      24.639  15.780  39.998  0.00  0.00    +0.000 A 
ATOM     10  N   UNL     1      24.853  14.704  40.798  0.00  0.00    +0.000 NA
ENDROOT
BRANCH   1  14
ATOM     11  C   UNL     1      26.378  10.486  43.086  0.00  0.00    +0.000 A 
ATOM     12  C   UNL     1      26.959  10.495  41.822  0.00  0.00    +0.000 A 
ATOM     13  C   UNL     1      26.755  11.601  41.030  0.00  0.00    +0.000 A 
ATOM     14  C   UNL     1      26.009  12.695  41.423  0.00  0.00    +0.000 A 
ATOM     15  C   UNL     1      25.451  12.660  42.670  0.00  0.00    +0.000 A 
ATOM     16  C   UNL     1      25.635  11.563  43.493  0.00  0.00    +0.000 A 
BRANCH  11  17
ATOM     17  O   UNL     1      26.567   9.394  43.893  0.00  0.00    +0.000 OA
BRANCH  17  19
ATOM     18  C   UNL     1      24.553   8.043  43.815  0.00  0.00    +0.000 C 
ATOM     19  C   UNL     1      26.062   8.103  43.575  0.00  0.00    +0.000 C 
ENDBRANCH  17  19
ENDBRANCH  11  17
ENDBRANCH   1  14
BRANCH   3  20
ATOM     20  C   UNL     1      27.244  15.331  37.409  0.00  0.00    +0.000 C 
ATOM     21  O   UNL     1      28.268  16.080  37.554  0.00  0.00    +0.000 OA
ATOM     22  N   UNL     1      26.970  14.778  36.104  0.00  0.00    +0.000 NA
BRANCH  22  23
ATOM     23  N   UNL     1      27.845  15.125  35.114  0.00  0.00    +0.000 NA
ATOM     24  C   UNL     1      27.588  15.844  34.193  0.00  0.00    +0.000 C 
BRANCH  24  25
ATOM     25  C   UNL     1      26.476  16.559  33.741  0.00  0.00    +0.000 A 
ATOM     26  C   UNL     1      25.374  16.163  33.039  0.00  0.00    +0.000 A 
ATOM     27  C   UNL     1      25.196  14.759  32.605  0.00  0.00    +0.000 C 
ATOM     28  C   UNL     1      24.337  17.060  32.679  0.00  0.00    +0.000 A 
ATOM     29  C   UNL     1      24.393  18.369  33.018  0.00  0.00    +0.000 A 
ATOM     30  C   UNL     1      23.345  19.355  32.674  0.00  0.00    +0.000 C 
ATOM     31  C   UNL     1      25.493  18.800  33.728  0.00  0.00    +0.000 A 
ATOM     32  C   UNL     1      26.476  17.937  34.066  0.00  0.00    +0.000 A 
ATOM     33  C   UNL     1      27.654  18.449  34.837  0.00  0.00    +0.000 C 
ENDBRANCH  24  25
ENDBRANCH  22  23
ENDBRANCH   3  20
TORSDOF 6
ENDMDL
