MODEL 1
REMARK VINA RESULT:      -6.5      0.000      0.000
REMARK  Name = 
REMARK  5 active torsions:
REMARK  status: ('A' for Active; 'I' for Inactive)
REMARK    1  A    between atoms: C_2  and  C_3
REMARK    2  A    between atoms: C_3  and  O_4
REMARK    3  A    between atoms: C_3  and  C_8
REMARK    4  A    between atoms: O_4  and  C_5
REMARK    5  A    between atoms: C_11  and  C_12
REMARK                            x       y       z     vdW  Elec       q    Type
REMARK                         _______ _______ _______ _____ _____    ______ ____
ROOT
ATOM      1  C   UNL     1      17.124   9.796  36.694  0.00  0.00    +0.000 C 
ATOM      2  C   UNL     1      16.787  11.244  36.740  0.00  0.00    +0.000 C 
ATOM      3  C   UNL     1      16.014  11.656  35.536  0.00  0.00    +0.000 C 
ATOM      4  C   UNL     1      16.859  11.493  34.313  0.00  0.00    +0.000 C 
ATOM      5  C   UNL     1      17.669  10.251  34.272  0.00  0.00    +0.000 C 
ATOM      6  C   UNL     1      17.477   9.278  35.346  0.00  0.00    +0.000 C 
ENDROOT
BRANCH   4   7
ATOM      7  C   UNL     1      16.070  11.546  33.054  0.00  0.00    +0.000 A 
ATOM      8  C   UNL     1      16.249  10.728  31.982  0.00  0.00    +0.000 A 
ATOM      9  C   UNL     1      15.456  10.853  30.840  0.00  0.00    +0.000 A 
ATOM     10  C   UNL     1      14.472  11.804  30.756  0.00  0.00    +0.000 A 
ATOM     11  C   UNL     1      14.283  12.638  31.837  0.00  0.00    +0.000 A 
ATOM     12  C   UNL     1      15.081  12.506  32.978  0.00  0.00    +0.000 A 
ENDBRANCH   4   7
BRANCH   1  13
ATOM     13  C   UNL     1      18.551   9.612  37.486  0.00  0.00    +0.000 C 
BRANCH  13  15
ATOM     14  C   UNL     1      17.308   9.488  40.009  0.00  0.00    +0.000 C 
ATOM     15  C   UNL     1      17.828   9.550  38.923  0.00  0.00    +0.000 C 
ENDBRANCH  13  15
BRANCH  13  16
ATOM     16  O   UNL     1      18.817  11.106  37.596  0.00  0.00    +0.000 OA
BRANCH  16  17
ATOM     17  C   UNL     1      20.059  11.393  38.095  0.00  0.00    +0.000 C 
ATOM     18  N   UNL     1      20.290  12.422  39.069  0.00  0.00    +0.000 NA
ATOM     19  O   UNL     1      21.053  10.762  37.719  0.00  0.00    +0.000 OA
ENDBRANCH  16  17
ENDBRANCH  13  16
ENDBRANCH   1  13
TORSDOF 5
ENDMDL
MODEL 2
REMARK VINA RESULT:      -6.5     28.179     30.171
REMARK  Name = 
REMARK  5 active torsions:
REMARK  status: ('A' for Active; 'I' for Inactive)
REMARK    1  A    between atoms: C_2  and  C_3
REMARK    2  A    between atoms: C_3  and  O_4
REMARK    3  A    between atoms: C_3  and  C_8
REMARK    4  A    between atoms: O_4  and  C_5
REMARK    5  A    between atoms: C_11  and  C_12
REMARK                            x       y       z     vdW  Elec       q    Type
REMARK                         _______ _______ _______ _____ _____    ______ ____
ROOT
ATOM      1  C   UNL     1      32.270  20.437  11.193  0.00  0.00    +0.000 C 
ATOM      2  C   UNL     1      32.333  21.268  12.425  0.00  0.00    +0.000 C 
ATOM      3  C   UNL     1      30.971  21.656  12.884  0.00  0.00    +0.000 C 
ATOM      4  C   UNL     1      30.323  22.531  11.859  0.00  0.00    +0.000 C 
ATOM      5  C   UNL     1      30.527  22.105  10.453  0.00  0.00    +0.000 C 
ATOM      6  C   UNL     1      31.222  20.840  10.219  0.00  0.00    +0.000 C 
ENDROOT
BRANCH   4   7
ATOM      7  C   UNL     1      28.857  22.677  12.066  0.00  0.00    +0.000 A 
ATOM      8  C   UNL     1      27.896  22.188  11.237  0.00  0.00    +0.000 A 
ATOM      9  C   UNL     1      26.541  22.375  11.516  0.00  0.00    +0.000 A 
ATOM     10  C   UNL     1      26.131  23.058  12.632  0.00  0.00    +0.000 A 
ATOM     11  C   UNL     1      27.097  23.556  13.479  0.00  0.00    +0.000 A 
ATOM     12  C   UNL     1      28.453  23.365  13.193  0.00  0.00    +0.000 A 
ENDBRANCH   4   7
BRANCH   1  13
ATOM     13  C   UNL     1      33.635  20.749  10.336  0.00  0.00    +0.000 C 
BRANCH  13  15
ATOM     14  C   UNL     1      35.294  19.513  12.246  0.00  0.00    +0.000 C 
ATOM     15  C   UNL     1      34.572  20.030  11.430  0.00  0.00    +0.000 C 
ENDBRANCH  13  15
BRANCH  13  16
ATOM     16  O   UNL     1      33.844  22.127  10.947  0.00  0.00    +0.000 OA
BRANCH  16  17
ATOM     17  C   UNL     1      34.290  23.051  10.040  0.00  0.00    +0.000 C 
ATOM     18  N   UNL     1      35.395  23.930  10.302  0.00  0.00    +0.000 NA
ATOM     19  O   UNL     1      33.747  23.168   8.936  0.00  0.00    +0.000 OA
ENDBRANCH  16  17
ENDBRANCH  13  16
ENDBRANCH   1  13
TORSDOF 5
ENDMDL
MODEL 3
REMARK VINA RESULT:      -6.4      1.707      2.723
REMARK  Name = 
REMARK  5 active torsions:
REMARK  status: ('A' for Active; 'I' for Inactive)
REMARK    1  A    between atoms: C_2  and  C_3
REMARK    2  A    between atoms: C_3  and  O_4
REMARK    3  A    between atoms: C_3  and  C_8
REMARK    4  A    between atoms: O_4  and  C_5
REMARK    5  A    between atoms: C_11  and  C_12
REMARK                            x       y       z     vdW  Elec       q    Type
REMARK                         _______ _______ _______ _____ _____    ______ ____
ROOT
ATOM      1  C   UNL     1      17.654  11.283  36.174  0.00  0.00    +0.000 C 
ATOM      2  C   UNL     1      17.007  10.144  35.469  0.00  0.00    +0.000 C 
ATOM      3  C   UNL     1      16.387  10.584  34.189  0.00  0.00    +0.000 C 
ATOM      4  C   UNL     1      15.278  11.547  34.469  0.00  0.00    +0.000 C 
ATOM      5  C   UNL     1      15.570  12.550  35.523  0.00  0.00    +0.000 C 
ATOM      6  C   UNL     1      16.920  12.572  36.084  0.00  0.00    +0.000 C 
ENDROOT
BRANCH   4   7
ATOM      7  C   UNL     1      14.841  12.294  33.260  0.00  0.00    +0.000 A 
ATOM      8  C   UNL     1      14.092  13.430  33.268  0.00  0.00    +0.000 A 
ATOM      9  C   UNL     1      13.731  14.063  32.077  0.00  0.00    +0.000 A 
ATOM     10  C   UNL     1      14.114  13.563  30.860  0.00  0.00    +0.000 A 
ATOM     11  C   UNL     1      14.872  12.413  30.841  0.00  0.00    +0.000 A 
ATOM     12  C   UNL     1      15.231  11.784  32.038  0.00  0.00    +0.000 A 
ENDBRANCH   4   7
BRANCH   1  13
ATOM     13  C   UNL     1      17.549  10.971  37.783  0.00  0.00    +0.000 C 
BRANCH  13  15
ATOM     14  C   UNL     1      19.956  12.314  38.357  0.00  0.00    +0.000 C 
ATOM     15  C   UNL     1      18.925  11.745  38.096  0.00  0.00    +0.000 C 
ENDBRANCH  13  15
BRANCH  13  16
ATOM     16  O   UNL     1      18.241   9.619  37.684  0.00  0.00    +0.000 OA
BRANCH  16  17
ATOM     17  C   UNL     1      18.403   9.012  38.901  0.00  0.00    +0.000 C 
ATOM     18  N   UNL     1      17.372   8.976  39.899  0.00  0.00    +0.000 NA
ATOM     19  O   UNL     1      19.468   8.457  39.194  0.00  0.00    +0.000 OA
ENDBRANCH  16  17
ENDBRANCH  13  16
ENDBRANCH   1  13
TORSDOF 5
ENDMDL
MODEL 4
REMARK VINA RESULT:      -6.2     28.132     30.213
REMARK  Name = 
REMARK  5 active torsions:
REMARK  status: ('A' for Active; 'I' for Inactive)
REMARK    1  A    between atoms: C_2  and  C_3
REMARK    2  A    between atoms: C_3  and  O_4
REMARK    3  A    between atoms: C_3  and  C_8
REMARK    4  A    between atoms: O_4  and  C_5
REMARK    5  A    between atoms: C_11  and  C_12
REMARK                            x       y       z     vdW  Elec       q    Type
REMARK                         _______ _______ _______ _____ _____    ______ ____
ROOT
ATOM      1  C   UNL     1      32.334  20.406  10.881  0.00  0.00    +0.000 C 
ATOM      2  C   UNL     1      32.416  20.711  12.335  0.00  0.00    +0.000 C 
ATOM      3  C   UNL     1      31.105  21.176  12.863  0.00  0.00    +0.000 C 
ATOM      4  C   UNL     1      30.731  22.472  12.216  0.00  0.00    +0.000 C 
ATOM      5  C   UNL     1      31.000  22.545  10.759  0.00  0.00    +0.000 C 
ATOM      6  C   UNL     1      31.481  21.334  10.094  0.00  0.00    +0.000 C 
ENDROOT
BRANCH   4   7
ATOM      7  C   UNL     1      29.301  22.828  12.418  0.00  0.00    +0.000 A 
ATOM      8  C   UNL     1      28.282  22.478  11.587  0.00  0.00    +0.000 A 
ATOM      9  C   UNL     1      26.967  22.859  11.861  0.00  0.00    +0.000 A 
ATOM     10  C   UNL     1      26.656  23.599  12.973  0.00  0.00    +0.000 A 
ATOM     11  C   UNL     1      27.682  23.958  13.820  0.00  0.00    +0.000 A 
ATOM     12  C   UNL     1      28.997  23.572  13.540  0.00  0.00    +0.000 A 
ENDBRANCH   4   7
BRANCH   1  13
ATOM     13  C   UNL     1      33.814  20.720  10.243  0.00  0.00    +0.000 C 
BRANCH  13  15
ATOM     14  C   UNL     1      33.305  19.142   7.967  0.00  0.00    +0.000 C 
ATOM     15  C   UNL     1      33.518  19.831   8.934  0.00  0.00    +0.000 C 
ENDBRANCH  13  15
BRANCH  13  16
ATOM     16  O   UNL     1      34.499  19.569  10.965  0.00  0.00    +0.000 OA
BRANCH  16  17
ATOM     17  C   UNL     1      35.838  19.781  11.160  0.00  0.00    +0.000 C 
ATOM     18  N   UNL     1      36.754  18.729  11.499  0.00  0.00    +0.000 NA
ATOM     19  O   UNL     1      36.322  20.913  11.048  0.00  0.00    +0.000 OA
ENDBRANCH  16  17
ENDBRANCH  13  16
ENDBRANCH   1  13
TORSDOF 5
ENDMDL
MODEL 5
REMARK VINA RESULT:      -6.0     19.851     21.306
REMARK  Name = 
REMARK  5 active torsions:
REMARK  status: ('A' for Active; 'I' for Inactive)
REMARK    1  A    between atoms: C_2  and  C_3
REMARK    2  A    between atoms: C_3  and  O_4
REMARK    3  A    between atoms: C_3  and  C_8
REMARK    4  A    between atoms: O_4  and  C_5
REMARK    5  A    between atoms: C_11  and  C_12
REMARK                            x       y       z     vdW  Elec       q    Type
REMARK                         _______ _______ _______ _____ _____    ______ ____
ROOT
ATOM      1  C   UNL     1      23.713   1.845  17.201  0.00  0.00    +0.000 C 
ATOM      2  C   UNL     1      23.448   2.867  16.153  0.00  0.00    +0.000 C 
ATOM      3  C   UNL     1      24.507   3.913  16.139  0.00  0.00    +0.000 C 
ATOM      4  C   UNL     1      24.489   4.667  17.431  0.00  0.00    +0.000 C 
ATOM      5  C   UNL     1      24.302   3.832  18.642  0.00  0.00    +0.000 C 
ATOM      6  C   UNL     1      24.274   2.380  18.469  0.00  0.00    +0.000 C 
ENDROOT
BRANCH   4   7
ATOM      7  C   UNL     1      25.715   5.482  17.643  0.00  0.00    +0.000 A 
ATOM      8  C   UNL     1      26.125   6.503  16.843  0.00  0.00    +0.000 A 
ATOM      9  C   UNL     1      27.294   7.213  17.124  0.00  0.00    +0.000 A 
ATOM     10  C   UNL     1      28.071   6.905  18.211  0.00  0.00    +0.000 A 
ATOM     11  C   UNL     1      27.664   5.872  19.027  0.00  0.00    +0.000 A 
ATOM     12  C   UNL     1      26.491   5.165  18.740  0.00  0.00    +0.000 A 
ENDBRANCH   4   7
BRANCH   1  13
ATOM     13  C   UNL     1      22.253   1.292  17.710  0.00  0.00    +0.000 C 
BRANCH  13  15
ATOM     14  C   UNL     1      21.888  -0.307  15.421  0.00  0.00    +0.000 C 
ATOM     15  C   UNL     1      22.060   0.381  16.397  0.00  0.00    +0.000 C 
ENDBRANCH  13  15
BRANCH  13  16
ATOM     16  O   UNL     1      21.474   2.455  17.114  0.00  0.00    +0.000 OA
BRANCH  16  17
ATOM     17  C   UNL     1      20.264   2.657  17.724  0.00  0.00    +0.000 C 
ATOM     18  N   UNL     1      19.116   1.834  17.469  0.00  0.00    +0.000 NA
ATOM     19  O   UNL     1      20.110   3.575  18.536  0.00  0.00    +0.000 OA
ENDBRANCH  16  17
ENDBRANCH  13  16
ENDBRANCH   1  13
TORSDOF 5
ENDMDL
MODEL 6
REMARK VINA RESULT:      -5.9      1.884      2.604
REMARK  Name = 
REMARK  5 active torsions:
REMARK  status: ('A' for Active; 'I' for Inactive)
REMARK    1  A    between atoms: C_2  and  C_3
REMARK    2  A    between atoms: C_3  and  O_4
REMARK    3  A    between atoms: C_3  and  C_8
REMARK    4  A    between atoms: O_4  and  C_5
REMARK    5  A    between atoms: C_11  and  C_12
REMARK                            x       y       z     vdW  Elec       q    Type
REMARK                         _______ _______ _______ _____ _____    ______ ____
ROOT
ATOM      1  C   UNL     1      18.463  10.728  37.116  0.00  0.00    +0.000 C 
ATOM      2  C   UNL     1      18.414   9.495  36.285  0.00  0.00    +0.000 C 
ATOM      3  C   UNL     1      17.936   9.793  34.907  0.00  0.00    +0.000 C 
ATOM      4  C   UNL     1      16.523  10.283  34.958  0.00  0.00    +0.000 C 
ATOM      5  C   UNL     1      16.230  11.236  36.056  0.00  0.00    +0.000 C 
ATOM      6  C   UNL     1      17.348  11.683  36.886  0.00  0.00    +0.000 C 
ENDROOT
BRANCH   4   7
ATOM      7  C   UNL     1      16.088  10.925  33.689  0.00  0.00    +0.000 A 
ATOM      8  C   UNL     1      16.504  10.564  32.445  0.00  0.00    +0.000 A 
ATOM      9  C   UNL     1      16.037  11.228  31.309  0.00  0.00    +0.000 A 
ATOM     10  C   UNL     1      15.147  12.266  31.406  0.00  0.00    +0.000 A 
ATOM     11  C   UNL     1      14.720  12.639  32.662  0.00  0.00    +0.000 A 
ATOM     12  C   UNL     1      15.191  11.970  33.795  0.00  0.00    +0.000 A 
ENDBRANCH   4   7
BRANCH   1  13
ATOM     13  C   UNL     1      18.172  10.270  38.666  0.00  0.00    +0.000 C 
BRANCH  13  15
ATOM     14  C   UNL     1      20.498  11.524  39.638  0.00  0.00    +0.000 C 
ATOM     15  C   UNL     1      19.505  10.993  39.206  0.00  0.00    +0.000 C 
ENDBRANCH  13  15
BRANCH  13  16
ATOM     16  O   UNL     1      18.865   8.923  38.522  0.00  0.00    +0.000 OA
BRANCH  16  17
ATOM     17  C   UNL     1      18.819   8.173  39.667  0.00  0.00    +0.000 C 
ATOM     18  N   UNL     1      19.985   7.582  40.260  0.00  0.00    +0.000 NA
ATOM     19  O   UNL     1      17.748   7.971  40.248  0.00  0.00    +0.000 OA
ENDBRANCH  16  17
ENDBRANCH  13  16
ENDBRANCH   1  13
TORSDOF 5
ENDMDL
MODEL 7
REMARK VINA RESULT:      -5.9     19.663     21.286
REMARK  Name = 
REMARK  5 active torsions:
REMARK  status: ('A' for Active; 'I' for Inactive)
REMARK    1  A    between atoms: C_2  and  C_3
REMARK    2  A    between atoms: C_3  and  O_4
REMARK    3  A    between atoms: C_3  and  C_8
REMARK    4  A    between atoms: O_4  and  C_5
REMARK    5  A    between atoms: C_11  and  C_12
REMARK                            x       y       z     vdW  Elec       q    Type
REMARK                         _______ _______ _______ _____ _____    ______ ____
ROOT
ATOM      1  C   UNL     1      29.282  23.958  24.440  0.00  0.00    +0.000 C 
ATOM      2  C   UNL     1      28.548  23.874  25.731  0.00  0.00    +0.000 C 
ATOM      3  C   UNL     1      29.487  23.817  26.884  0.00  0.00    +0.000 C 
ATOM      4  C   UNL     1      30.296  22.560  26.815  0.00  0.00    +0.000 C 
ATOM      5  C   UNL     1      30.778  22.199  25.459  0.00  0.00    +0.000 C 
ATOM      6  C   UNL     1      30.524  23.144  24.373  0.00  0.00    +0.000 C 
ENDROOT
BRANCH   4   7
ATOM      7  C   UNL     1      31.482  22.586  27.712  0.00  0.00    +0.000 A 
ATOM      8  C   UNL     1      31.781  21.638  28.641  0.00  0.00    +0.000 A 
ATOM      9  C   UNL     1      32.921  21.748  29.440  0.00  0.00    +0.000 A 
ATOM     10  C   UNL     1      33.777  22.812  29.318  0.00  0.00    +0.000 A 
ATOM     11  C   UNL     1      33.481  23.777  28.380  0.00  0.00    +0.000 A 
ATOM     12  C   UNL     1      32.338  23.661  27.583  0.00  0.00    +0.000 A 
ENDBRANCH   4   7
BRANCH   1  13
ATOM     13  C   UNL     1      28.353  23.210  23.311  0.00  0.00    +0.000 C 
BRANCH  13  15
ATOM     14  C   UNL     1      29.240  24.951  21.285  0.00  0.00    +0.000 C 
ATOM     15  C   UNL     1      28.847  24.200  22.143  0.00  0.00    +0.000 C 
ENDBRANCH  13  15
BRANCH  13  16
ATOM     16  O   UNL     1      27.116  24.046  23.606  0.00  0.00    +0.000 OA
BRANCH  16  17
ATOM     17  C   UNL     1      25.952  23.332  23.506  0.00  0.00    +0.000 C 
ATOM     18  N   UNL     1      25.443  22.840  22.257  0.00  0.00    +0.000 NA
ATOM     19  O   UNL     1      25.278  23.077  24.510  0.00  0.00    +0.000 OA
ENDBRANCH  16  17
ENDBRANCH  13  16
ENDBRANCH   1  13
TORSDOF 5
ENDMDL
MODEL 8
REMARK VINA RESULT:      -5.8     19.224     20.466
REMARK  Name = 
REMARK  5 active torsions:
REMARK  status: ('A' for Active; 'I' for Inactive)
REMARK    1  A    between atoms: C_2  and  C_3
REMARK    2  A    between atoms: C_3  and  O_4
REMARK    3  A    between atoms: C_3  and  C_8
REMARK    4  A    between atoms: O_4  and  C_5
REMARK    5  A    between atoms: C_11  and  C_12
REMARK                            x       y       z     vdW  Elec       q    Type
REMARK                         _______ _______ _______ _____ _____    ______ ____
ROOT
ATOM      1  C   UNL     1      27.806  23.455  24.914  0.00  0.00    +0.000 C 
ATOM      2  C   UNL     1      28.097  24.892  25.169  0.00  0.00    +0.000 C 
ATOM      3  C   UNL     1      26.973  25.550  25.889  0.00  0.00    +0.000 C 
ATOM      4  C   UNL     1      25.751  25.549  25.027  0.00  0.00    +0.000 C 
ATOM      5  C   UNL     1      25.507  24.287  24.288  0.00  0.00    +0.000 C 
ATOM      6  C   UNL     1      26.394  23.157  24.560  0.00  0.00    +0.000 C 
ENDROOT
BRANCH   4   7
ATOM      7  C   UNL     1      24.510  25.865  25.782  0.00  0.00    +0.000 A 
ATOM      8  C   UNL     1      24.334  25.671  27.117  0.00  0.00    +0.000 A 
ATOM      9  C   UNL     1      23.128  26.000  27.740  0.00  0.00    +0.000 A 
ATOM     10  C   UNL     1      22.080  26.527  27.031  0.00  0.00    +0.000 A 
ATOM     11  C   UNL     1      22.249  26.727  25.678  0.00  0.00    +0.000 A 
ATOM     12  C   UNL     1      23.459  26.396  25.060  0.00  0.00    +0.000 A 
ENDBRANCH   4   7
BRANCH   1  13
ATOM     13  C   UNL     1      28.573  23.053  23.519  0.00  0.00    +0.000 C 
BRANCH  13  15
ATOM     14  C   UNL     1      31.044  22.739  24.832  0.00  0.00    +0.000 C 
ATOM     15  C   UNL     1      29.991  22.887  24.262  0.00  0.00    +0.000 C 
ENDBRANCH  13  15
BRANCH  13  16
ATOM     16  O   UNL     1      28.860  24.494  23.124  0.00  0.00    +0.000 OA
BRANCH  16  17
ATOM     17  C   UNL     1      28.624  24.741  21.797  0.00  0.00    +0.000 C 
ATOM     18  N   UNL     1      29.640  24.623  20.790  0.00  0.00    +0.000 NA
ATOM     19  O   UNL     1      27.503  25.084  21.406  0.00  0.00    +0.000 OA
ENDBRANCH  16  17
ENDBRANCH  13  16
ENDBRANCH   1  13
TORSDOF 5
ENDMDL
MODEL 9
REMARK VINA RESULT:      -5.8     17.393     18.268
REMARK  Name = 
REMARK  5 active torsions:
REMARK  status: ('A' for Active; 'I' for Inactive)
REMARK    1  A    between atoms: C_2  and  C_3
REMARK    2  A    between atoms: C_3  and  O_4
REMARK    3  A    between atoms: C_3  and  C_8
REMARK    4  A    between atoms: O_4  and  C_5
REMARK    5  A    between atoms: C_11  and  C_12
REMARK                            x       y       z     vdW  Elec       q    Type
REMARK                         _______ _______ _______ _____ _____    ______ ____
ROOT
ATOM      1  C   UNL     1      29.186  23.647  28.798  0.00  0.00    +0.000 C 
ATOM      2  C   UNL     1      29.217  22.256  28.271  0.00  0.00    +0.000 C 
ATOM      3  C   UNL     1      29.107  22.239  26.786  0.00  0.00    +0.000 C 
ATOM      4  C   UNL     1      27.776  22.781  26.373  0.00  0.00    +0.000 C 
ATOM      5  C   UNL     1      27.324  23.976  27.126  0.00  0.00    +0.000 C 
ATOM      6  C   UNL     1      28.252  24.562  28.091  0.00  0.00    +0.000 C 
ENDROOT
BRANCH   4   7
ATOM      7  C   UNL     1      27.714  23.123  24.926  0.00  0.00    +0.000 A 
ATOM      8  C   UNL     1      28.793  23.296  24.116  0.00  0.00    +0.000 A 
ATOM      9  C   UNL     1      28.636  23.615  22.766  0.00  0.00    +0.000 A 
ATOM     10  C   UNL     1      27.392  23.768  22.210  0.00  0.00    +0.000 A 
ATOM     11  C   UNL     1      26.293  23.595  23.024  0.00  0.00    +0.000 A 
ATOM     12  C   UNL     1      26.458  23.275  24.375  0.00  0.00    +0.000 A 
ENDBRANCH   4   7
BRANCH   1  13
ATOM     13  C   UNL     1      28.495  23.578  30.286  0.00  0.00    +0.000 C 
BRANCH  13  15
ATOM     14  C   UNL     1      30.703  22.196  31.355  0.00  0.00    +0.000 C 
ATOM     15  C   UNL     1      29.747  22.782  30.910  0.00  0.00    +0.000 C 
ENDBRANCH  13  15
BRANCH  13  16
ATOM     16  O   UNL     1      27.724  22.299  29.998  0.00  0.00    +0.000 OA
BRANCH  16  17
ATOM     17  C   UNL     1      26.440  22.330  30.474  0.00  0.00    +0.000 C 
ATOM     18  N   UNL     1      25.768  21.168  30.983  0.00  0.00    +0.000 NA
ATOM     19  O   UNL     1      25.795  23.384  30.485  0.00  0.00    +0.000 OA
ENDBRANCH  16  17
ENDBRANCH  13  16
ENDBRANCH   1  13
TORSDOF 5
ENDMDL
MODEL 10
REMARK VINA RESULT:      -5.6     19.445     21.034
REMARK  Name = 
REMARK  5 active torsions:
REMARK  status: ('A' for Active; 'I' for Inactive)
REMARK    1  A    between atoms: C_2  and  C_3
REMARK    2  A    between atoms: C_3  and  O_4
REMARK    3  A    between atoms: C_3  and  C_8
REMARK    4  A    between atoms: O_4  and  C_5
REMARK    5  A    between atoms: C_11  and  C_12
REMARK                            x       y       z     vdW  Elec       q    Type
REMARK                         _______ _______ _______ _____ _____    ______ ____
ROOT
ATOM      1  C   UNL     1      28.749  23.078  24.885  0.00  0.00    +0.000 C 
ATOM      2  C   UNL     1      30.221  22.946  24.718  0.00  0.00    +0.000 C 
ATOM      3  C   UNL     1      30.859  22.409  25.951  0.00  0.00    +0.000 C 
ATOM      4  C   UNL     1      30.681  23.379  27.075  0.00  0.00    +0.000 C 
ATOM      5  C   UNL     1      29.338  24.003  27.159  0.00  0.00    +0.000 C 
ATOM      6  C   UNL     1      28.311  23.532  26.231  0.00  0.00    +0.000 C 
ENDROOT
BRANCH   4   7
ATOM      7  C   UNL     1      30.973  22.782  28.406  0.00  0.00    +0.000 A 
ATOM      8  C   UNL     1      32.027  21.969  28.685  0.00  0.00    +0.000 A 
ATOM      9  C   UNL     1      32.219  21.455  29.970  0.00  0.00    +0.000 A 
ATOM     10  C   UNL     1      31.355  21.750  30.992  0.00  0.00    +0.000 A 
ATOM     11  C   UNL     1      30.284  22.574  30.718  0.00  0.00    +0.000 A 
ATOM     12  C   UNL     1      30.098  23.085  29.430  0.00  0.00    +0.000 A 
ENDBRANCH   4   7
BRANCH   1  13
ATOM     13  C   UNL     1      28.273  24.344  23.954  0.00  0.00    +0.000 C 
BRANCH  13  15
ATOM     14  C   UNL     1      25.750  23.184  23.495  0.00  0.00    +0.000 C 
ATOM     15  C   UNL     1      26.825  23.696  23.685  0.00  0.00    +0.000 C 
ENDBRANCH  13  15
BRANCH  13  16
ATOM     16  O   UNL     1      28.857  23.771  22.671  0.00  0.00    +0.000 OA
BRANCH  16  17
ATOM     17  C   UNL     1      29.283  24.737  21.799  0.00  0.00    +0.000 C 
ATOM     18  N   UNL     1      29.286  26.135  22.125  0.00  0.00    +0.000 NA
ATOM     19  O   UNL     1      29.691  24.437  20.672  0.00  0.00    +0.000 OA
ENDBRANCH  16  17
ENDBRANCH  13  16
ENDBRANCH   1  13
TORSDOF 5
ENDMDL
