
     RDKit          2D

 21 24  0  0  0  0  0  0  0  0999 V2000
   -3.7884   -1.6566    0.0000 C   0  0  0  0  0  0  0  0  0  0  0  0
   -2.8701   -0.4706    0.0000 C   0  0  0  0  0  0  0  0  0  0  0  0
   -2.1601   -1.7919    0.0000 C   0  0  0  0  0  0  0  0  0  0  0  0
   -0.6608   -1.8377    0.0000 C   0  0  0  0  0  0  0  0  0  0  0  0
    0.1285   -0.5621    0.0000 C   0  0  0  0  0  0  0  0  0  0  0  0
    1.6278   -0.6079    0.0000 C   0  0  0  0  0  0  0  0  0  0  0  0
    2.3378   -1.9293    0.0000 C   0  0  0  0  0  0  0  0  0  0  0  0
    3.8371   -1.9751    0.0000 C   0  0  0  0  0  0  0  0  0  0  0  0
    4.6264   -0.6995    0.0000 C   0  0  0  0  0  0  0  0  0  0  0  0
    6.1257   -0.7453    0.0000 O   0  0  0  0  0  0  0  0  0  0  0  0
    3.9165    0.6218    0.0000 C   0  0  0  0  0  0  0  0  0  0  0  0
    2.4172    0.6676    0.0000 C   0  0  0  0  0  0  0  0  0  0  0  0
    1.7072    1.9889    0.0000 C   0  0  0  0  0  0  0  0  0  0  0  0
    2.4965    3.2645    0.0000 O   0  0  0  0  0  0  0  0  0  0  0  0
    0.2079    2.0347    0.0000 C   0  0  0  0  0  0  0  0  0  0  0  0
   -0.5814    0.7592    0.0000 C   0  0  0  0  0  0  0  0  0  0  0  0
   -2.0807    0.8050    0.0000 C   0  0  0  0  0  0  0  0  0  0  0  0
   -3.0499    1.9498    0.0000 C   0  0  0  0  0  0  0  0  0  0  0  0
   -4.4383    1.3818    0.0000 C   0  0  0  0  0  0  0  0  0  0  0  0
   -4.3271   -0.1140    0.0000 C   0  0  0  0  0  0  0  0  0  0  0  0
   -5.4719   -1.0832    0.0000 O   0  0  0  0  0  0  0  0  0  0  0  0
  2  1  1  1
  2  3  1  0
  3  4  1  0
  5  4  1  1
  5  6  1  0
  6  7  2  0
  7  8  1  0
  8  9  2  0
  9 10  1  0
  9 11  1  0
 11 12  2  0
 12 13  1  0
 13 14  1  6
 13 15  1  0
 16 15  1  6
 16 17  1  0
 17 18  1  1
 18 19  1  0
 19 20  1  0
 20 21  1  1
 17  2  1  0
 20  2  1  0
 16  5  1  0
 12  6  1  0
M  END
>  <zinc_id>  (1) 
ZINC000003815432

>  <smiles>  (1) 
C[C@]12CC[C@@H]3c4ccc(O)cc4[C@@H](O)C[C@H]3[C@@H]1CC[C@@H]2O

$$$$
