
     RDKit          3D

 21 24  0  0  0  0  0  0  0  0999 V2000
    0.4346   -1.8504   -1.3953 C   0  0  0  0  0  0  0  0  0  0  0  0
    0.3746   -0.4942   -0.6809 C   0  0  1  0  0  0  0  0  0  0  0  0
   -0.3772    0.4646   -1.4567 C   0  0  0  0  0  0  0  0  0  0  0  0
   -1.7277    0.9015   -1.0910 C   0  0  0  0  0  0  0  0  0  0  0  0
   -2.4891    0.2065   -0.1301 C   0  0  1  0  0  0  0  0  0  0  0  0
   -2.8665    0.7316    1.1644 C   0  0  0  0  0  0  0  0  0  0  0  0
   -3.7885   -0.5670   -0.7454 C   0  0  2  0  0  0  0  0  0  0  0  0
   -4.7384    0.5630   -0.4391 O   0  0  0  0  0  0  0  0  0  0  0  0
   -4.0610   -1.3196    0.6807 C   0  0  0  0  0  0  0  0  0  0  0  0
   -2.6945   -1.6378    1.1950 C   0  0  0  0  0  0  0  0  0  0  0  0
   -1.7808   -1.2254   -0.0576 C   0  0  2  0  0  0  0  0  0  0  0  0
   -0.3319   -0.8903    0.7097 C   0  0  2  0  0  0  0  0  0  0  0  0
   -0.5085    0.5987    1.2314 C   0  0  0  0  0  0  0  0  0  0  0  0
    0.6921    1.3716    1.2352 C   0  0  0  0  0  0  0  0  0  0  0  0
    1.9182    0.8486    0.6372 C   0  0  0  0  0  0  0  0  0  0  0  0
    3.1905    1.2835    1.0291 C   0  0  0  0  0  0  0  0  0  0  0  0
    4.3269    0.7711    0.4443 C   0  0  0  0  0  0  0  0  0  0  0  0
    5.6017    1.1485    0.7764 O   0  0  0  0  0  0  0  0  0  0  0  0
    4.1614   -0.1905   -0.5456 C   0  0  0  0  0  0  0  0  0  0  0  0
    2.8988   -0.6078   -0.9196 C   0  0  0  0  0  0  0  0  0  0  0  0
    1.7653   -0.1063   -0.3463 C   0  0  0  0  0  0  0  0  0  0  0  0
  2  1  1  6
  2  3  1  0
  3  4  1  0
  4  5  1  0
  5  6  1  1
  5  7  1  0
  7  8  1  1
  7  9  1  0
  9 10  1  0
 11 10  1  1
 11 12  1  0
 12 13  1  1
 13 14  1  0
 14 15  1  0
 15 16  2  0
 16 17  1  0
 17 18  1  0
 17 19  2  0
 19 20  1  0
 20 21  2  0
 12  2  1  0
 21 15  1  0
 21  2  1  0
 11  5  1  0
M  END
>  <zinc_id>  (1) 
ZINC000003815439

>  <smiles>  (1) 
C[C@@]12CC[C@@]3(C)[C@H](O)CC[C@@H]3[C@@H]1CCc1cc(O)ccc12

$$$$
