
     RDKit          3D

 21 24  0  0  0  0  0  0  0  0999 V2000
   -2.9906   -0.7796    0.9899 C   0  0  0  0  0  0  0  0  0  0  0  0
   -2.7678    0.0075   -0.1351 C   0  0  2  0  0  0  0  0  0  0  0  0
   -2.1943   -0.4236   -1.3946 C   0  0  0  0  0  0  0  0  0  0  0  0
   -0.7283   -0.7052   -1.3926 C   0  0  0  0  0  0  0  0  0  0  0  0
    0.0622    0.6164   -0.8778 C   0  0  2  0  0  0  0  0  0  0  0  0
    1.4325   -0.0384   -0.6152 C   0  0  0  0  0  0  0  0  0  0  0  0
    1.9177   -1.0328   -1.4128 C   0  0  0  0  0  0  0  0  0  0  0  0
    3.1721   -1.6176   -1.1498 C   0  0  0  0  0  0  0  0  0  0  0  0
    3.6639   -2.6306   -1.9642 O   0  0  0  0  0  0  0  0  0  0  0  0
    3.9206   -1.1855   -0.0785 C   0  0  0  0  0  0  0  0  0  0  0  0
    5.1769   -1.7718    0.1844 O   0  0  0  0  0  0  0  0  0  0  0  0
    3.4264   -0.1850    0.7193 C   0  0  0  0  0  0  0  0  0  0  0  0
    2.1630    0.3944    0.4431 C   0  0  0  0  0  0  0  0  0  0  0  0
    1.6885    1.4749    1.3414 C   0  0  0  0  0  0  0  0  0  0  0  0
    0.2170    1.7680    1.2338 C   0  0  0  0  0  0  0  0  0  0  0  0
   -0.5365    0.4693    0.6939 C   0  0  1  0  0  0  0  0  0  0  0  0
   -1.8928    1.3617    0.1718 C   0  0  2  0  0  0  0  0  0  0  0  0
   -2.6245    1.4901    1.6020 C   0  0  0  0  0  0  0  0  0  0  0  0
   -4.0014    1.6751    1.1191 C   0  0  0  0  0  0  0  0  0  0  0  0
   -3.9998    1.0575   -0.4173 C   0  0  2  0  0  0  0  0  0  0  0  0
   -5.1046    0.0553   -0.0782 O   0  0  0  0  0  0  0  0  0  0  0  0
  2  1  1  1
  2  3  1  0
  3  4  1  0
  5  4  1  6
  5  6  1  0
  6  7  2  0
  7  8  1  0
  8  9  1  0
  8 10  2  0
 10 11  1  0
 10 12  1  0
 12 13  2  0
 13 14  1  0
 14 15  1  0
 16 15  1  1
 16 17  1  0
 17 18  1  1
 18 19  1  0
 19 20  1  0
 20 21  1  1
 17  2  1  0
 20  2  1  0
 16  5  1  0
 13  6  1  0
M  END
>  <zinc_id>  (1) 
ZINC000003815419

>  <smiles>  (1) 
C[C@]12CC[C@@H]3c4cc(O)c(O)cc4CC[C@H]3[C@@H]1CC[C@@H]2O

$$$$
