
     RDKit          3D

 19 22  0  0  0  0  0  0  0  0999 V2000
   -1.4821    0.4368    1.7171 C   0  0  0  0  0  0  0  0  0  0  0  0
   -2.0300   -0.4157    0.7262 C   0  0  2  0  0  0  0  0  0  0  0  0
   -1.5483   -1.7920    0.5460 C   0  0  0  0  0  0  0  0  0  0  0  0
   -0.0340   -1.6329    0.5375 C   0  0  0  0  0  0  0  0  0  0  0  0
    0.3450   -0.9495   -0.8983 C   0  0  2  0  0  0  0  0  0  0  0  0
    1.8515   -0.6168   -0.5101 C   0  0  0  0  0  0  0  0  0  0  0  0
    2.5870   -1.5525    0.1390 C   0  0  0  0  0  0  0  0  0  0  0  0
    3.9061   -1.2795    0.4787 C   0  0  0  0  0  0  0  0  0  0  0  0
    4.4239   -0.0435    0.1352 C   0  0  0  0  0  0  0  0  0  0  0  0
    3.6579    0.8973   -0.5266 C   0  0  0  0  0  0  0  0  0  0  0  0
    2.3413    0.6010   -0.8557 C   0  0  0  0  0  0  0  0  0  0  0  0
    1.6063    1.6781   -1.5692 C   0  0  0  0  0  0  0  0  0  0  0  0
    0.1430    1.2800   -1.7948 C   0  0  0  0  0  0  0  0  0  0  0  0
   -0.1949    0.6036   -0.3872 C   0  0  1  0  0  0  0  0  0  0  0  0
   -1.7758    0.1678   -0.7907 C   0  0  2  0  0  0  0  0  0  0  0  0
   -2.4725    1.5577   -0.2830 C   0  0  0  0  0  0  0  0  0  0  0  0
   -3.7672    0.8746   -0.4431 C   0  0  0  0  0  0  0  0  0  0  0  0
   -3.6733   -0.3869    0.6535 C   0  0  2  0  0  0  0  0  0  0  0  0
   -3.8837    0.5724    1.8426 O   0  0  0  0  0  0  0  0  0  0  0  0
  2  1  1  1
  2  3  1  0
  3  4  1  0
  5  4  1  1
  5  6  1  0
  6  7  2  0
  7  8  1  0
  8  9  2  0
  9 10  1  0
 10 11  2  0
 11 12  1  0
 12 13  1  0
 14 13  1  6
 14 15  1  0
 15 16  1  1
 16 17  1  0
 17 18  1  0
 18 19  1  1
 15  2  1  0
 18  2  1  0
 14  5  1  0
 11  6  1  0
M  END
>  <zinc_id>  (1) 
ZINC000003814416

>  <smiles>  (1) 
C[C@]12CC[C@@H]3c4ccccc4CC[C@H]3[C@@H]1CC[C@@H]2O

$$$$
