
     RDKit          3D

 22 25  0  0  0  0  0  0  0  0999 V2000
   -5.3701   -0.1420    0.2441 C   0  0  0  0  0  0  0  0  0  0  0  0
   -4.2593    0.0811   -0.1903 C   0  0  0  0  0  0  0  0  0  0  0  0
   -2.9299    0.3426   -0.7189 C   0  0  2  0  0  0  0  0  0  0  0  0
   -2.6877    1.6811   -0.5608 O   0  0  0  0  0  0  0  0  0  0  0  0
   -2.7571   -0.0876   -2.1427 C   0  0  0  0  0  0  0  0  0  0  0  0
   -1.3128   -0.1130   -2.3468 C   0  0  0  0  0  0  0  0  0  0  0  0
   -0.6392   -0.4707   -0.9353 C   0  0  1  0  0  0  0  0  0  0  0  0
   -0.4787    1.1597   -0.4851 C   0  0  2  0  0  0  0  0  0  0  0  0
    0.6150    1.5439   -1.6125 C   0  0  0  0  0  0  0  0  0  0  0  0
    1.5434    0.6070   -1.9804 C   0  0  0  0  0  0  0  0  0  0  0  0
    2.2684    0.0421   -0.8278 C   0  0  0  0  0  0  0  0  0  0  0  0
    1.7630    0.2458    0.3168 C   0  0  0  0  0  0  0  0  0  0  0  0
    2.4739   -0.3148    1.5176 C   0  0  0  0  0  0  0  0  0  0  0  0
    3.9290   -0.3836    1.3855 C   0  0  0  0  0  0  0  0  0  0  0  0
    4.4591   -0.6359    0.0513 C   0  0  0  0  0  0  0  0  0  0  0  0
    5.6634   -0.7622   -0.0582 O   0  0  0  0  0  0  0  0  0  0  0  0
    3.5446   -0.7276   -1.0909 C   0  0  0  0  0  0  0  0  0  0  0  0
    0.5434    0.9708    0.8190 C   0  0  2  0  0  0  0  0  0  0  0  0
   -0.2090   -0.2847    1.4939 C   0  0  0  0  0  0  0  0  0  0  0  0
   -1.6653   -0.1624    1.3047 C   0  0  0  0  0  0  0  0  0  0  0  0
   -1.9966   -0.5970   -0.0868 C   0  0  1  0  0  0  0  0  0  0  0  0
   -2.4977   -1.9928   -0.1975 C   0  0  0  0  0  0  0  0  0  0  0  0
  1  2  3  0
  2  3  1  0
  3  4  1  6
  3  5  1  0
  5  6  1  0
  7  6  1  6
  7  8  1  0
  8  9  1  6
  9 10  1  0
 10 11  1  0
 11 12  2  0
 12 13  1  0
 13 14  1  0
 14 15  1  0
 15 16  2  0
 15 17  1  0
 12 18  1  0
 18 19  1  1
 19 20  1  0
 20 21  1  0
 21 22  1  1
 21  3  1  0
 21  7  1  0
 18  8  1  0
 17 11  1  0
M  END
>  <zinc_id>  (1) 
ZINC000002106113

>  <smiles>  (1) 
C#C[C@]1(O)CC[C@H]2[C@@H]3CCC4=C(CCC(=O)C4)[C@@H]3CC[C@]21C

$$$$
