
     RDKit          3D

 20 22  0  0  0  0  0  0  0  0999 V2000
   -1.8651   -1.9173    1.8739 O   0  0  0  0  0  0  0  0  0  0  0  0
   -1.3629   -1.1173    1.0547 C   0  0  0  0  0  0  0  0  0  0  0  0
   -0.0131   -0.8662    0.9586 C   0  0  0  0  0  0  0  0  0  0  0  0
    0.8564   -1.5294    1.8113 O   0  0  0  0  0  0  0  0  0  0  0  0
    0.4896    0.0226    0.0410 C   0  0  0  0  0  0  0  0  0  0  0  0
    1.9315    0.2317    0.0039 C   0  0  0  0  0  0  0  0  0  0  0  0
    2.7830   -0.4351    0.8581 C   0  0  0  0  0  0  0  0  0  0  0  0
    4.1508   -0.2486    0.8360 C   0  0  0  0  0  0  0  0  0  0  0  0
    4.7268    0.6297   -0.0599 C   0  0  0  0  0  0  0  0  0  0  0  0
    6.1040    0.8244   -0.0898 O   0  0  0  0  0  0  0  0  0  0  0  0
    3.8727    1.2964   -0.9143 C   0  0  0  0  0  0  0  0  0  0  0  0
    2.5053    1.1100   -0.8923 C   0  0  0  0  0  0  0  0  0  0  0  0
   -0.3468    0.6370   -0.7531 O   0  0  0  0  0  0  0  0  0  0  0  0
   -1.6640    0.4301   -0.7015 C   0  0  0  0  0  0  0  0  0  0  0  0
   -2.4611    1.1242   -1.5787 C   0  0  0  0  0  0  0  0  0  0  0  0
   -3.8186    0.9458   -1.5642 C   0  0  0  0  0  0  0  0  0  0  0  0
   -4.3644    0.0713   -0.6684 C   0  0  0  0  0  0  0  0  0  0  0  0
   -5.7425   -0.1356   -0.6250 O   0  0  0  0  0  0  0  0  0  0  0  0
   -3.5802   -0.6343    0.2198 C   0  0  0  0  0  0  0  0  0  0  0  0
   -2.2014   -0.4394    0.1900 C   0  0  0  0  0  0  0  0  0  0  0  0
  1  2  2  0
  2  3  1  0
  3  4  1  0
  3  5  2  0
  5  6  1  0
  6  7  2  0
  7  8  1  0
  8  9  2  0
  9 10  1  0
  9 11  1  0
 11 12  2  0
  5 13  1  0
 13 14  1  0
 14 15  2  0
 15 16  1  0
 16 17  2  0
 17 18  1  0
 17 19  1  0
 19 20  2  0
 20  2  1  0
 12  6  1  0
 20 14  1  0
M  END
>  <zinc_id>  (1) 
ZINC000000039316

>  <smiles>  (1) 
O=c1c(O)c(-c2ccc(O)cc2)oc2ccc(O)cc12

$$$$
