
     RDKit          3D

 21 24  0  0  0  0  0  0  0  0999 V2000
   -3.3306   -0.8664    1.3375 C   0  0  0  0  0  0  0  0  0  0  0  0
   -2.3736   -0.0563    0.5081 C   0  0  1  0  0  0  0  0  0  0  0  0
   -1.5531    0.7211    1.3591 C   0  0  0  0  0  0  0  0  0  0  0  0
   -0.2761    1.2681    1.0313 C   0  0  0  0  0  0  0  0  0  0  0  0
    0.2208    0.5391   -0.3123 C   0  0  1  0  0  0  0  0  0  0  0  0
    1.7345    0.5162    0.0573 C   0  0  0  0  0  0  0  0  0  0  0  0
    2.3358    1.2443    0.9938 C   0  0  0  0  0  0  0  0  0  0  0  0
    3.6990    1.0944    1.1639 C   0  0  0  0  0  0  0  0  0  0  0  0
    4.4148    0.2118    0.3812 C   0  0  0  0  0  0  0  0  0  0  0  0
    5.7883    0.0231    0.5113 O   0  0  0  0  0  0  0  0  0  0  0  0
    3.7762   -0.5532   -0.6042 C   0  0  0  0  0  0  0  0  0  0  0  0
    2.4327   -0.3604   -0.7226 C   0  0  0  0  0  0  0  0  0  0  0  0
    1.5686   -1.0906   -1.7074 C   0  0  0  0  0  0  0  0  0  0  0  0
    0.4779   -1.8117   -1.0401 C   0  0  0  0  0  0  0  0  0  0  0  0
   -0.0764   -0.9934    0.2408 C   0  0  2  0  0  0  0  0  0  0  0  0
   -1.6506   -1.2155   -0.2998 C   0  0  2  0  0  0  0  0  0  0  0  0
   -1.5396   -0.4857   -1.7296 C   0  0  0  0  0  0  0  0  0  0  0  0
   -3.0429   -0.3269   -1.7995 C   0  0  0  0  0  0  0  0  0  0  0  0
   -3.1046    0.7947   -0.6260 C   0  0  1  0  0  0  0  0  0  0  0  0
   -4.6443    0.4547   -0.2556 C   0  0  0  0  0  0  0  0  0  0  0  0
   -4.8568    0.8929    1.0320 O   0  0  0  0  0  0  0  0  0  0  0  0
  2  1  1  1
  2  3  1  0
  3  4  1  0
  5  4  1  1
  5  6  1  0
  6  7  2  0
  7  8  1  0
  8  9  2  0
  9 10  1  0
  9 11  1  0
 11 12  2  0
 12 13  1  0
 13 14  1  0
 15 14  1  6
 15 16  1  0
 16 17  1  6
 17 18  1  0
 18 19  1  0
 19 20  1  1
 20 21  1  0
 16  2  1  0
 19  2  1  0
 15  5  1  0
 12  6  1  0
M  END
>  <zinc_id>  (1) 
ZINC000003815435

>  <smiles>  (1) 
C[C@@]12CC[C@H]3c4ccc(O)cc4CC[C@@H]3[C@@H]1CC[C@H]2CO

$$$$
