
     RDKit          3D

 24 27  0  0  0  0  0  0  0  0999 V2000
    4.5072    1.3355    2.0635 C   0  0  0  0  0  0  0  0  0  0  0  0
    3.5341    0.7398    1.6617 C   0  0  0  0  0  0  0  0  0  0  0  0
    2.3290    0.0239    1.1478 C   0  0  2  0  0  0  0  0  0  0  0  0
    1.6137   -0.2939    2.3021 O   0  0  0  0  0  0  0  0  0  0  0  0
    2.8612   -1.1776    0.4432 C   0  0  0  0  0  0  0  0  0  0  0  0
    3.1259   -0.6718   -0.8818 C   0  0  0  0  0  0  0  0  0  0  0  0
    1.9260    0.3499   -1.2475 C   0  0  1  0  0  0  0  0  0  0  0  0
    0.7854   -0.8823   -1.4783 C   0  0  1  0  0  0  0  0  0  0  0  0
    0.5992   -1.4140    0.0024 C   0  0  0  0  0  0  0  0  0  0  0  0
   -0.4926   -2.4675   -0.2315 C   0  0  0  0  0  0  0  0  0  0  0  0
   -1.6603   -1.5531   -0.1053 C   0  0  0  0  0  0  0  0  0  0  0  0
   -2.6745   -1.9021    0.7382 C   0  0  0  0  0  0  0  0  0  0  0  0
   -3.7557   -1.0367    0.8872 C   0  0  0  0  0  0  0  0  0  0  0  0
   -4.8187   -1.3605    1.7457 O   0  0  0  0  0  0  0  0  0  0  0  0
   -3.7537    0.1344    0.1760 C   0  0  0  0  0  0  0  0  0  0  0  0
   -2.6881    0.4134   -0.6577 C   0  0  0  0  0  0  0  0  0  0  0  0
   -1.6235   -0.4113   -0.8218 C   0  0  0  0  0  0  0  0  0  0  0  0
   -0.5632    0.0337   -1.8011 C   0  0  1  0  0  0  0  0  0  0  0  0
   -0.0458    1.5397   -1.2131 C   0  0  1  0  0  0  0  0  0  0  0  0
   -1.3803    2.1748   -1.0845 O   0  0  0  0  0  0  0  0  0  0  0  0
   -1.8061    2.2454   -2.4458 C   0  0  0  0  0  0  0  0  0  0  0  0
    0.1463    1.1093    0.3554 C   0  0  0  0  0  0  0  0  0  0  0  0
    1.6055    0.8292    0.2633 C   0  0  1  0  0  0  0  0  0  0  0  0
    2.2290    2.2420    0.1817 C   0  0  0  0  0  0  0  0  0  0  0  0
  1  2  3  0
  2  3  1  0
  3  4  1  1
  3  5  1  0
  5  6  1  0
  7  6  1  1
  7  8  1  0
  8  9  1  1
  9 10  1  0
 10 11  1  0
 11 12  2  0
 12 13  1  0
 13 14  1  0
 13 15  2  0
 15 16  1  0
 16 17  2  0
 18 17  1  1
 18 19  1  0
 19 20  1  1
 20 21  1  0
 19 22  1  0
 22 23  1  0
 23 24  1  6
 23  3  1  0
 23  7  1  0
 18  8  1  0
 17 11  1  0
M  END
>  <zinc_id>  (1) 
ZINC000001999257

>  <smiles>  (1) 
C#C[C@]1(O)CC[C@H]2[C@H]3CCc4cc(O)ccc4[C@H]3[C@@H](OC)C[C@]21C

$$$$
