MODEL 1
REMARK VINA RESULT:      -6.6      0.000      0.000
REMARK  Name = 
REMARK  3 active torsions:
REMARK  status: ('A' for Active; 'I' for Inactive)
REMARK    1  A    between atoms: C_2  and  N_3
REMARK    2  A    between atoms: C_6  and  C_7
REMARK    3  A    between atoms: C_12  and  O_13
REMARK                            x       y       z     vdW  Elec       q    Type
REMARK                         _______ _______ _______ _____ _____    ______ ____
ROOT
ATOM      1  C   UNL     1      14.599  11.903  36.372  0.00  0.00    +0.000 A 
ATOM      2  C   UNL     1      13.620  11.727  37.328  0.00  0.00    +0.000 A 
ATOM      3  N   UNL     1      14.157  11.135  38.382  0.00  0.00    +0.000 NA
ATOM      4  C   UNL     1      15.483  10.892  38.190  0.00  0.00    +0.000 A 
ATOM      5  C   UNL     1      16.455  10.308  38.976  0.00  0.00    +0.000 A 
ATOM      6  C   UNL     1      17.751  10.189  38.517  0.00  0.00    +0.000 A 
ATOM      7  C   UNL     1      18.009  10.677  37.253  0.00  0.00    +0.000 A 
ATOM      8  C   UNL     1      17.047  11.262  36.455  0.00  0.00    +0.000 A 
ATOM      9  C   UNL     1      15.742  11.379  36.927  0.00  0.00    +0.000 A 
ENDROOT
BRANCH   1  13
ATOM     10  N   UNL     1      15.395  12.249  31.509  0.00  0.00    +0.000 NA
ATOM     11  C   UNL     1      14.850  12.643  32.797  0.00  0.00    +0.000 A 
ATOM     12  N   UNL     1      15.017  12.040  33.959  0.00  0.00    +0.000 NA
ATOM     13  C   UNL     1      14.457  12.526  35.022  0.00  0.00    +0.000 A 
ATOM     14  C   UNL     1      13.705  13.669  34.862  0.00  0.00    +0.000 A 
ATOM     15  S   UNL     1      13.854  13.969  33.190  0.00  0.00    +0.000 S 
BRANCH  10  17
ATOM     16  C   UNL     1      16.297  13.952  30.079  0.00  0.00    +0.000 C 
ATOM     17  C   UNL     1      15.072  13.073  30.360  0.00  0.00    +0.000 C 
ENDBRANCH  10  17
ENDBRANCH   1  13
BRANCH   6  18
ATOM     18  O   UNL     1      18.757   9.602  39.294  0.00  0.00    +0.000 OA
ATOM     19  C   UNL     1      18.765   8.190  39.404  0.00  0.00    +0.000 C 
ENDBRANCH   6  18
TORSDOF 3
ENDMDL
MODEL 2
REMARK VINA RESULT:      -6.5      3.468      7.374
REMARK  Name = 
REMARK  3 active torsions:
REMARK  status: ('A' for Active; 'I' for Inactive)
REMARK    1  A    between atoms: C_2  and  N_3
REMARK    2  A    between atoms: C_6  and  C_7
REMARK    3  A    between atoms: C_12  and  O_13
REMARK                            x       y       z     vdW  Elec       q    Type
REMARK                         _______ _______ _______ _____ _____    ______ ____
ROOT
ATOM      1  C   UNL     1      17.162  10.560  35.433  0.00  0.00    +0.000 A 
ATOM      2  C   UNL     1      17.662   9.902  34.329  0.00  0.00    +0.000 A 
ATOM      3  N   UNL     1      17.056  10.365  33.247  0.00  0.00    +0.000 NA
ATOM      4  C   UNL     1      16.146  11.328  33.564  0.00  0.00    +0.000 A 
ATOM      5  C   UNL     1      15.285  12.092  32.806  0.00  0.00    +0.000 A 
ATOM      6  C   UNL     1      14.453  13.015  33.406  0.00  0.00    +0.000 A 
ATOM      7  C   UNL     1      14.534  13.124  34.779  0.00  0.00    +0.000 A 
ATOM      8  C   UNL     1      15.390  12.366  35.551  0.00  0.00    +0.000 A 
ATOM      9  C   UNL     1      16.227  11.436  34.936  0.00  0.00    +0.000 A 
ENDROOT
BRANCH   1  13
ATOM     10  N   UNL     1      16.280   9.693  40.215  0.00  0.00    +0.000 NA
ATOM     11  C   UNL     1      17.093   9.968  39.043  0.00  0.00    +0.000 A 
ATOM     12  N   UNL     1      16.683  10.126  37.799  0.00  0.00    +0.000 NA
ATOM     13  C   UNL     1      17.547  10.369  36.863  0.00  0.00    +0.000 A 
ATOM     14  C   UNL     1      18.869  10.446  37.241  0.00  0.00    +0.000 A 
ATOM     15  S   UNL     1      18.782  10.165  38.921  0.00  0.00    +0.000 S 
BRANCH  10  17
ATOM     16  C   UNL     1      16.428   8.277  42.147  0.00  0.00    +0.000 C 
ATOM     17  C   UNL     1      16.958   9.557  41.490  0.00  0.00    +0.000 C 
ENDBRANCH  10  17
ENDBRANCH   1  13
BRANCH   6  18
ATOM     18  O   UNL     1      13.569  13.805  32.661  0.00  0.00    +0.000 OA
ATOM     19  C   UNL     1      13.689  13.776  31.250  0.00  0.00    +0.000 C 
ENDBRANCH   6  18
TORSDOF 3
ENDMDL
MODEL 3
REMARK VINA RESULT:      -6.2      3.613      7.198
REMARK  Name = 
REMARK  3 active torsions:
REMARK  status: ('A' for Active; 'I' for Inactive)
REMARK    1  A    between atoms: C_2  and  N_3
REMARK    2  A    between atoms: C_6  and  C_7
REMARK    3  A    between atoms: C_12  and  O_13
REMARK                            x       y       z     vdW  Elec       q    Type
REMARK                         _______ _______ _______ _____ _____    ______ ____
ROOT
ATOM      1  C   UNL     1      16.779  11.398  36.706  0.00  0.00    +0.000 A 
ATOM      2  C   UNL     1      15.742  12.263  36.986  0.00  0.00    +0.000 A 
ATOM      3  N   UNL     1      15.079  12.508  35.867  0.00  0.00    +0.000 NA
ATOM      4  C   UNL     1      15.624  11.839  34.814  0.00  0.00    +0.000 A 
ATOM      5  C   UNL     1      15.300  11.771  33.475  0.00  0.00    +0.000 A 
ATOM      6  C   UNL     1      16.044  10.993  32.612  0.00  0.00    +0.000 A 
ATOM      7  C   UNL     1      17.107  10.304  33.157  0.00  0.00    +0.000 A 
ATOM      8  C   UNL     1      17.444  10.362  34.494  0.00  0.00    +0.000 A 
ATOM      9  C   UNL     1      16.687  11.150  35.358  0.00  0.00    +0.000 A 
ENDROOT
BRANCH   1  13
ATOM     10  N   UNL     1      18.677   7.960  39.703  0.00  0.00    +0.000 NA
ATOM     11  C   UNL     1      18.619   9.240  39.019  0.00  0.00    +0.000 A 
ATOM     12  N   UNL     1      17.690   9.666  38.185  0.00  0.00    +0.000 NA
ATOM     13  C   UNL     1      17.790  10.846  37.657  0.00  0.00    +0.000 A 
ATOM     14  C   UNL     1      18.891  11.594  38.011  0.00  0.00    +0.000 A 
ATOM     15  S   UNL     1      19.709  10.550  39.083  0.00  0.00    +0.000 S 
BRANCH  10  17
ATOM     16  C   UNL     1      19.984   6.192  40.663  0.00  0.00    +0.000 C 
ATOM     17  C   UNL     1      19.806   7.713  40.578  0.00  0.00    +0.000 C 
ENDBRANCH  10  17
ENDBRANCH   1  13
BRANCH   6  18
ATOM     18  O   UNL     1      15.737  10.906  31.248  0.00  0.00    +0.000 OA
ATOM     19  C   UNL     1      14.662  11.689  30.763  0.00  0.00    +0.000 C 
ENDBRANCH   6  18
TORSDOF 3
ENDMDL
MODEL 4
REMARK VINA RESULT:      -6.2      4.039      6.998
REMARK  Name = 
REMARK  3 active torsions:
REMARK  status: ('A' for Active; 'I' for Inactive)
REMARK    1  A    between atoms: C_2  and  N_3
REMARK    2  A    between atoms: C_6  and  C_7
REMARK    3  A    between atoms: C_12  and  O_13
REMARK                            x       y       z     vdW  Elec       q    Type
REMARK                         _______ _______ _______ _____ _____    ______ ____
ROOT
ATOM      1  C   UNL     1      16.782  11.195  36.653  0.00  0.00    +0.000 A 
ATOM      2  C   UNL     1      15.780  12.089  36.966  0.00  0.00    +0.000 A 
ATOM      3  N   UNL     1      15.133  12.408  35.856  0.00  0.00    +0.000 NA
ATOM      4  C   UNL     1      15.656  11.762  34.777  0.00  0.00    +0.000 A 
ATOM      5  C   UNL     1      15.338  11.764  33.435  0.00  0.00    +0.000 A 
ATOM      6  C   UNL     1      16.054  10.993  32.542  0.00  0.00    +0.000 A 
ATOM      7  C   UNL     1      17.085  10.239  33.062  0.00  0.00    +0.000 A 
ATOM      8  C   UNL     1      17.416  10.226  34.401  0.00  0.00    +0.000 A 
ATOM      9  C   UNL     1      16.687  11.007  35.295  0.00  0.00    +0.000 A 
ENDROOT
BRANCH   1  13
ATOM     10  N   UNL     1      21.296   9.833  38.127  0.00  0.00    +0.000 NA
ATOM     11  C   UNL     1      19.852   9.958  38.216  0.00  0.00    +0.000 A 
ATOM     12  N   UNL     1      19.040  10.535  37.351  0.00  0.00    +0.000 NA
ATOM     13  C   UNL     1      17.764  10.561  37.584  0.00  0.00    +0.000 A 
ATOM     14  C   UNL     1      17.332   9.970  38.750  0.00  0.00    +0.000 A 
ATOM     15  S   UNL     1      18.792   9.413  39.436  0.00  0.00    +0.000 S 
BRANCH  10  17
ATOM     16  C   UNL     1      23.428   8.925  38.752  0.00  0.00    +0.000 C 
ATOM     17  C   UNL     1      21.982   9.152  39.209  0.00  0.00    +0.000 C 
ENDBRANCH  10  17
ENDBRANCH   1  13
BRANCH   6  18
ATOM     18  O   UNL     1      15.751  10.976  31.176  0.00  0.00    +0.000 OA
ATOM     19  C   UNL     1      14.649  11.748  30.735  0.00  0.00    +0.000 C 
ENDBRANCH   6  18
TORSDOF 3
ENDMDL
MODEL 5
REMARK VINA RESULT:      -6.1     20.478     23.179
REMARK  Name = 
REMARK  3 active torsions:
REMARK  status: ('A' for Active; 'I' for Inactive)
REMARK    1  A    between atoms: C_2  and  N_3
REMARK    2  A    between atoms: C_6  and  C_7
REMARK    3  A    between atoms: C_12  and  O_13
REMARK                            x       y       z     vdW  Elec       q    Type
REMARK                         _______ _______ _______ _____ _____    ______ ____
ROOT
ATOM      1  C   UNL     1      33.333  -2.008  34.596  0.00  0.00    +0.000 A 
ATOM      2  C   UNL     1      32.689  -1.751  35.789  0.00  0.00    +0.000 A 
ATOM      3  N   UNL     1      32.517  -0.444  35.906  0.00  0.00    +0.000 NA
ATOM      4  C   UNL     1      33.023   0.219  34.829  0.00  0.00    +0.000 A 
ATOM      5  C   UNL     1      33.085   1.555  34.492  0.00  0.00    +0.000 A 
ATOM      6  C   UNL     1      33.669   1.954  33.308  0.00  0.00    +0.000 A 
ATOM      7  C   UNL     1      34.175   0.958  32.499  0.00  0.00    +0.000 A 
ATOM      8  C   UNL     1      34.121  -0.383  32.822  0.00  0.00    +0.000 A 
ATOM      9  C   UNL     1      33.529  -0.776  34.020  0.00  0.00    +0.000 A 
ENDROOT
BRANCH   1  13
ATOM     10  N   UNL     1      33.750  -5.425  31.054  0.00  0.00    +0.000 NA
ATOM     11  C   UNL     1      33.903  -4.869  32.387  0.00  0.00    +0.000 A 
ATOM     12  N   UNL     1      33.522  -3.679  32.811  0.00  0.00    +0.000 NA
ATOM     13  C   UNL     1      33.735  -3.336  34.043  0.00  0.00    +0.000 A 
ATOM     14  C   UNL     1      34.362  -4.261  34.847  0.00  0.00    +0.000 A 
ATOM     15  S   UNL     1      34.603  -5.567  33.776  0.00  0.00    +0.000 S 
BRANCH  10  17
ATOM     16  C   UNL     1      34.541  -6.883  29.320  0.00  0.00    +0.000 C 
ATOM     17  C   UNL     1      34.251  -6.766  30.821  0.00  0.00    +0.000 C 
ENDBRANCH  10  17
ENDBRANCH   1  13
BRANCH   6  18
ATOM     18  O   UNL     1      33.745   3.303  32.942  0.00  0.00    +0.000 OA
ATOM     19  C   UNL     1      33.428   4.272  33.924  0.00  0.00    +0.000 C 
ENDBRANCH   6  18
TORSDOF 3
ENDMDL
MODEL 6
REMARK VINA RESULT:      -6.0     28.720     31.194
REMARK  Name = 
REMARK  3 active torsions:
REMARK  status: ('A' for Active; 'I' for Inactive)
REMARK    1  A    between atoms: C_2  and  N_3
REMARK    2  A    between atoms: C_6  and  C_7
REMARK    3  A    between atoms: C_12  and  O_13
REMARK                            x       y       z     vdW  Elec       q    Type
REMARK                         _______ _______ _______ _____ _____    ______ ____
ROOT
ATOM      1  C   UNL     1      31.762  21.099  10.551  0.00  0.00    +0.000 A 
ATOM      2  C   UNL     1      31.056  20.598   9.477  0.00  0.00    +0.000 A 
ATOM      3  N   UNL     1      29.779  20.913   9.624  0.00  0.00    +0.000 NA
ATOM      4  C   UNL     1      29.574  21.621  10.770  0.00  0.00    +0.000 A 
ATOM      5  C   UNL     1      28.446  22.163  11.351  0.00  0.00    +0.000 A 
ATOM      6  C   UNL     1      28.532  22.847  12.545  0.00  0.00    +0.000 A 
ATOM      7  C   UNL     1      29.785  22.953  13.112  0.00  0.00    +0.000 A 
ATOM      8  C   UNL     1      30.922  22.416  12.543  0.00  0.00    +0.000 A 
ATOM      9  C   UNL     1      30.826  21.727  11.336  0.00  0.00    +0.000 A 
ENDROOT
BRANCH   1  13
ATOM     10  N   UNL     1      35.824  18.939  12.349  0.00  0.00    +0.000 NA
ATOM     11  C   UNL     1      35.060  19.960  11.654  0.00  0.00    +0.000 A 
ATOM     12  N   UNL     1      33.756  19.995  11.458  0.00  0.00    +0.000 NA
ATOM     13  C   UNL     1      33.229  20.987  10.811  0.00  0.00    +0.000 A 
ATOM     14  C   UNL     1      34.089  21.963  10.358  0.00  0.00    +0.000 A 
ATOM     15  S   UNL     1      35.603  21.388  10.896  0.00  0.00    +0.000 S 
BRANCH  10  17
ATOM     16  C   UNL     1      37.552  19.752  13.802  0.00  0.00    +0.000 C 
ATOM     17  C   UNL     1      37.261  19.115  12.438  0.00  0.00    +0.000 C 
ENDBRANCH  10  17
ENDBRANCH   1  13
BRANCH   6  18
ATOM     18  O   UNL     1      27.403  23.407  13.156  0.00  0.00    +0.000 OA
ATOM     19  C   UNL     1      26.139  22.857  12.835  0.00  0.00    +0.000 C 
ENDBRANCH   6  18
TORSDOF 3
ENDMDL
MODEL 7
REMARK VINA RESULT:      -5.9     20.932     23.813
REMARK  Name = 
REMARK  3 active torsions:
REMARK  status: ('A' for Active; 'I' for Inactive)
REMARK    1  A    between atoms: C_2  and  N_3
REMARK    2  A    between atoms: C_6  and  C_7
REMARK    3  A    between atoms: C_12  and  O_13
REMARK                            x       y       z     vdW  Elec       q    Type
REMARK                         _______ _______ _______ _____ _____    ______ ____
ROOT
ATOM      1  C   UNL     1      28.802  24.781  21.988  0.00  0.00    +0.000 A 
ATOM      2  C   UNL     1      27.715  23.939  21.877  0.00  0.00    +0.000 A 
ATOM      3  N   UNL     1      27.767  23.046  22.853  0.00  0.00    +0.000 NA
ATOM      4  C   UNL     1      28.860  23.240  23.642  0.00  0.00    +0.000 A 
ATOM      5  C   UNL     1      29.342  22.587  24.757  0.00  0.00    +0.000 A 
ATOM      6  C   UNL     1      30.503  23.010  25.371  0.00  0.00    +0.000 A 
ATOM      7  C   UNL     1      31.138  24.100  24.814  0.00  0.00    +0.000 A 
ATOM      8  C   UNL     1      30.669  24.764  23.699  0.00  0.00    +0.000 A 
ATOM      9  C   UNL     1      29.495  24.330  23.086  0.00  0.00    +0.000 A 
ENDROOT
BRANCH   1  13
ATOM     10  N   UNL     1      30.781  26.906  17.993  0.00  0.00    +0.000 NA
ATOM     11  C   UNL     1      30.078  26.863  19.263  0.00  0.00    +0.000 A 
ATOM     12  N   UNL     1      29.796  25.799  19.991  0.00  0.00    +0.000 NA
ATOM     13  C   UNL     1      29.157  25.935  21.110  0.00  0.00    +0.000 A 
ATOM     14  C   UNL     1      28.805  27.216  21.473  0.00  0.00    +0.000 A 
ATOM     15  S   UNL     1      29.419  28.141  20.178  0.00  0.00    +0.000 S 
BRANCH  10  17
ATOM     16  C   UNL     1      32.426  28.618  17.645  0.00  0.00    +0.000 C 
ATOM     17  C   UNL     1      30.975  28.203  17.373  0.00  0.00    +0.000 C 
ENDBRANCH  10  17
ENDBRANCH   1  13
BRANCH   6  18
ATOM     18  O   UNL     1      31.014  22.365  26.504  0.00  0.00    +0.000 OA
ATOM     19  C   UNL     1      30.665  22.887  27.773  0.00  0.00    +0.000 C 
ENDBRANCH   6  18
TORSDOF 3
ENDMDL
MODEL 8
REMARK VINA RESULT:      -5.8      2.487      3.636
REMARK  Name = 
REMARK  3 active torsions:
REMARK  status: ('A' for Active; 'I' for Inactive)
REMARK    1  A    between atoms: C_2  and  N_3
REMARK    2  A    between atoms: C_6  and  C_7
REMARK    3  A    between atoms: C_12  and  O_13
REMARK                            x       y       z     vdW  Elec       q    Type
REMARK                         _______ _______ _______ _____ _____    ______ ____
ROOT
ATOM      1  C   UNL     1      17.637  10.291  37.604  0.00  0.00    +0.000 A 
ATOM      2  C   UNL     1      18.964   9.932  37.488  0.00  0.00    +0.000 A 
ATOM      3  N   UNL     1      19.348   9.357  38.617  0.00  0.00    +0.000 NA
ATOM      4  C   UNL     1      18.327   9.304  39.517  0.00  0.00    +0.000 A 
ATOM      5  C   UNL     1      18.232   8.813  40.802  0.00  0.00    +0.000 A 
ATOM      6  C   UNL     1      17.043   8.893  41.498  0.00  0.00    +0.000 A 
ATOM      7  C   UNL     1      15.981   9.482  40.845  0.00  0.00    +0.000 A 
ATOM      8  C   UNL     1      16.060   9.979  39.560  0.00  0.00    +0.000 A 
ATOM      9  C   UNL     1      17.265   9.893  38.865  0.00  0.00    +0.000 A 
ENDROOT
BRANCH   1  13
ATOM     10  N   UNL     1      15.939  11.106  33.037  0.00  0.00    +0.000 NA
ATOM     11  C   UNL     1      16.035  11.303  34.473  0.00  0.00    +0.000 A 
ATOM     12  N   UNL     1      16.819  10.666  35.322  0.00  0.00    +0.000 NA
ATOM     13  C   UNL     1      16.781  10.966  36.582  0.00  0.00    +0.000 A 
ATOM     14  C   UNL     1      15.901  11.956  36.960  0.00  0.00    +0.000 A 
ATOM     15  S   UNL     1      15.186  12.391  35.474  0.00  0.00    +0.000 S 
BRANCH  10  17
ATOM     16  C   UNL     1      14.575  11.135  31.063  0.00  0.00    +0.000 C 
ATOM     17  C   UNL     1      14.997  11.930  32.305  0.00  0.00    +0.000 C 
ENDBRANCH  10  17
ENDBRANCH   1  13
BRANCH   6  18
ATOM     18  O   UNL     1      16.919   8.402  42.803  0.00  0.00    +0.000 OA
ATOM     19  C   UNL     1      15.950   7.397  43.040  0.00  0.00    +0.000 C 
ENDBRANCH   6  18
TORSDOF 3
ENDMDL
MODEL 9
REMARK VINA RESULT:      -5.7     21.534     23.124
REMARK  Name = 
REMARK  3 active torsions:
REMARK  status: ('A' for Active; 'I' for Inactive)
REMARK    1  A    between atoms: C_2  and  N_3
REMARK    2  A    between atoms: C_6  and  C_7
REMARK    3  A    between atoms: C_12  and  O_13
REMARK                            x       y       z     vdW  Elec       q    Type
REMARK                         _______ _______ _______ _____ _____    ______ ____
ROOT
ATOM      1  C   UNL     1      19.236  -7.723  26.658  0.00  0.00    +0.000 A 
ATOM      2  C   UNL     1      18.928  -6.416  26.343  0.00  0.00    +0.000 A 
ATOM      3  N   UNL     1      19.908  -5.914  25.609  0.00  0.00    +0.000 NA
ATOM      4  C   UNL     1      20.891  -6.834  25.402  0.00  0.00    +0.000 A 
ATOM      5  C   UNL     1      22.089  -6.793  24.718  0.00  0.00    +0.000 A 
ATOM      6  C   UNL     1      22.909  -7.901  24.672  0.00  0.00    +0.000 A 
ATOM      7  C   UNL     1      22.470  -9.027  25.337  0.00  0.00    +0.000 A 
ATOM      8  C   UNL     1      21.275  -9.084  26.025  0.00  0.00    +0.000 A 
ATOM      9  C   UNL     1      20.453  -7.960  26.066  0.00  0.00    +0.000 A 
ENDROOT
BRANCH   1  13
ATOM     10  N   UNL     1      17.929 -10.072  30.802  0.00  0.00    +0.000 NA
ATOM     11  C   UNL     1      17.864  -9.733  29.392  0.00  0.00    +0.000 A 
ATOM     12  N   UNL     1      18.616  -8.869  28.737  0.00  0.00    +0.000 NA
ATOM     13  C   UNL     1      18.426  -8.682  27.468  0.00  0.00    +0.000 A 
ATOM     14  C   UNL     1      17.424  -9.417  26.874  0.00  0.00    +0.000 A 
ATOM     15  S   UNL     1      16.821 -10.331  28.183  0.00  0.00    +0.000 S 
BRANCH  10  17
ATOM     16  C   UNL     1      15.963 -10.309  32.157  0.00  0.00    +0.000 C 
ATOM     17  C   UNL     1      16.992 -11.059  31.303  0.00  0.00    +0.000 C 
ENDBRANCH  10  17
ENDBRANCH   1  13
BRANCH   6  18
ATOM     18  O   UNL     1      24.129  -7.886  23.985  0.00  0.00    +0.000 OA
ATOM     19  C   UNL     1      24.801  -6.646  23.862  0.00  0.00    +0.000 C 
ENDBRANCH   6  18
TORSDOF 3
ENDMDL
MODEL 10
REMARK VINA RESULT:      -5.6      4.304      8.041
REMARK  Name = 
REMARK  3 active torsions:
REMARK  status: ('A' for Active; 'I' for Inactive)
REMARK    1  A    between atoms: C_2  and  N_3
REMARK    2  A    between atoms: C_6  and  C_7
REMARK    3  A    between atoms: C_12  and  O_13
REMARK                            x       y       z     vdW  Elec       q    Type
REMARK                         _______ _______ _______ _____ _____    ______ ____
ROOT
ATOM      1  C   UNL     1      17.706   9.510  38.595  0.00  0.00    +0.000 A 
ATOM      2  C   UNL     1      16.683  10.271  39.124  0.00  0.00    +0.000 A 
ATOM      3  N   UNL     1      16.064  10.897  38.135  0.00  0.00    +0.000 NA
ATOM      4  C   UNL     1      16.625  10.593  36.931  0.00  0.00    +0.000 A 
ATOM      5  C   UNL     1      16.343  10.984  35.638  0.00  0.00    +0.000 A 
ATOM      6  C   UNL     1      17.094  10.509  34.583  0.00  0.00    +0.000 A 
ATOM      7  C   UNL     1      18.119   9.640  34.892  0.00  0.00    +0.000 A 
ATOM      8  C   UNL     1      18.414   9.240  36.180  0.00  0.00    +0.000 A 
ATOM      9  C   UNL     1      17.650   9.725  37.239  0.00  0.00    +0.000 A 
ENDROOT
BRANCH   1  13
ATOM     10  N   UNL     1      19.312   5.241  40.491  0.00  0.00    +0.000 NA
ATOM     11  C   UNL     1      19.363   6.659  40.182  0.00  0.00    +0.000 A 
ATOM     12  N   UNL     1      18.469   7.371  39.522  0.00  0.00    +0.000 NA
ATOM     13  C   UNL     1      18.669   8.638  39.331  0.00  0.00    +0.000 A 
ATOM     14  C   UNL     1      19.833   9.169  39.843  0.00  0.00    +0.000 A 
ATOM     15  S   UNL     1      20.563   7.808  40.567  0.00  0.00    +0.000 S 
BRANCH  10  17
ATOM     16  C   UNL     1      21.352   4.009  40.213  0.00  0.00    +0.000 C 
ATOM     17  C   UNL     1      20.420   4.672  41.234  0.00  0.00    +0.000 C 
ENDBRANCH  10  17
ENDBRANCH   1  13
BRANCH   6  18
ATOM     18  O   UNL     1      16.829  10.888  33.262  0.00  0.00    +0.000 OA
ATOM     19  C   UNL     1      15.480  11.118  32.899  0.00  0.00    +0.000 C 
ENDBRANCH   6  18
TORSDOF 3
ENDMDL
