MODEL 1
REMARK VINA RESULT:      -8.2      0.000      0.000
REMARK  Name = 
REMARK  3 active torsions:
REMARK  status: ('A' for Active; 'I' for Inactive)
REMARK    1  A    between atoms: C_7  and  C_8
REMARK    2  A    between atoms: N_10  and  C_11
REMARK    3  A    between atoms: C_13  and  N_14
REMARK                            x       y       z     vdW  Elec       q    Type
REMARK                         _______ _______ _______ _____ _____    ______ ____
ROOT
ATOM      1  C   UNL     1      15.810  11.491  34.895  0.00  0.00    +0.000 C 
ATOM      2  O   UNL     1      16.079  10.288  34.563  0.00  0.00    +0.000 OA
ATOM      3  N   UNL     1      16.266  11.970  36.154  0.00  0.00    +0.000 NA
ENDROOT
BRANCH   1  10
ATOM      4  C   UNL     1      12.786  15.302  34.364  0.00  0.00    +0.000 C 
ATOM      5  C   UNL     1      13.582  14.232  33.696  0.00  0.00    +0.000 A 
ATOM      6  C   UNL     1      13.671  14.109  32.325  0.00  0.00    +0.000 A 
ATOM      7  C   UNL     1      14.438  13.106  31.755  0.00  0.00    +0.000 A 
ATOM      8  C   UNL     1      15.092  12.260  32.640  0.00  0.00    +0.000 A 
ATOM      9  C   UNL     1      15.894  11.166  31.971  0.00  0.00    +0.000 C 
ATOM     10  C   UNL     1      15.035  12.348  34.000  0.00  0.00    +0.000 A 
ATOM     11  C   UNL     1      14.255  13.366  34.546  0.00  0.00    +0.000 A 
ENDBRANCH   1  10
BRANCH   3  12
ATOM     12  C   UNL     1      17.016  11.170  37.070  0.00  0.00    +0.000 A 
ATOM     13  C   UNL     1      18.357  10.863  36.882  0.00  0.00    +0.000 A 
ATOM     14  C   UNL     1      19.044  10.076  37.770  0.00  0.00    +0.000 A 
ATOM     15  C   UNL     1      18.345   9.601  38.856  0.00  0.00    +0.000 A 
ATOM     16  C   UNL     1      17.013   9.907  39.039  0.00  0.00    +0.000 A 
ATOM     17  C   UNL     1      16.304  10.701  38.156  0.00  0.00    +0.000 A 
ATOM     18  C   UNL     1      14.869  11.010  38.376  0.00  0.00    +0.000 C 
BRANCH  14  19
ATOM     19  N   UNL     1      20.413   9.748  37.585  0.00  0.00    +0.000 N 
ATOM     20  O   UNL     1      20.922   9.676  36.438  0.00  0.00    +0.000 OA
ATOM     21  O   UNL     1      21.269   9.497  38.650  0.00  0.00    +0.000 OA
ENDBRANCH  14  19
ENDBRANCH   3  12
TORSDOF 3
ENDMDL
MODEL 2
REMARK VINA RESULT:      -8.0      2.396      7.184
REMARK  Name = 
REMARK  3 active torsions:
REMARK  status: ('A' for Active; 'I' for Inactive)
REMARK    1  A    between atoms: C_7  and  C_8
REMARK    2  A    between atoms: N_10  and  C_11
REMARK    3  A    between atoms: C_13  and  N_14
REMARK                            x       y       z     vdW  Elec       q    Type
REMARK                         _______ _______ _______ _____ _____    ______ ____
ROOT
ATOM      1  C   UNL     1      17.031  11.227  36.885  0.00  0.00    +0.000 C 
ATOM      2  O   UNL     1      17.435  12.434  36.797  0.00  0.00    +0.000 OA
ATOM      3  N   UNL     1      16.152  10.727  35.886  0.00  0.00    +0.000 NA
ENDROOT
BRANCH   1  10
ATOM      4  C   UNL     1      16.003   9.289  41.260  0.00  0.00    +0.000 C 
ATOM      5  C   UNL     1      16.972   9.388  40.131  0.00  0.00    +0.000 A 
ATOM      6  C   UNL     1      18.145   8.665  40.084  0.00  0.00    +0.000 A 
ATOM      7  C   UNL     1      19.003   8.782  39.002  0.00  0.00    +0.000 A 
ATOM      8  C   UNL     1      18.606   9.655  37.999  0.00  0.00    +0.000 A 
ATOM      9  C   UNL     1      19.587   9.769  36.854  0.00  0.00    +0.000 C 
ATOM     10  C   UNL     1      17.454  10.387  38.004  0.00  0.00    +0.000 A 
ATOM     11  C   UNL     1      16.610  10.249  39.104  0.00  0.00    +0.000 A 
ENDBRANCH   1  10
BRANCH   3  12
ATOM     12  C   UNL     1      15.698  11.510  34.780  0.00  0.00    +0.000 A 
ATOM     13  C   UNL     1      14.787  12.550  34.914  0.00  0.00    +0.000 A 
ATOM     14  C   UNL     1      14.357  13.270  33.829  0.00  0.00    +0.000 A 
ATOM     15  C   UNL     1      14.866  12.916  32.601  0.00  0.00    +0.000 A 
ATOM     16  C   UNL     1      15.770  11.883  32.472  0.00  0.00    +0.000 A 
ATOM     17  C   UNL     1      16.218  11.147  33.553  0.00  0.00    +0.000 A 
ATOM     18  C   UNL     1      17.189  10.036  33.384  0.00  0.00    +0.000 C 
BRANCH  14  19
ATOM     19  N   UNL     1      13.419  14.329  33.952  0.00  0.00    +0.000 N 
ATOM     20  O   UNL     1      12.742  14.490  34.998  0.00  0.00    +0.000 OA
ATOM     21  O   UNL     1      13.200  15.250  32.935  0.00  0.00    +0.000 OA
ENDBRANCH  14  19
ENDBRANCH   3  12
TORSDOF 3
ENDMDL
MODEL 3
REMARK VINA RESULT:      -7.6      2.444      6.974
REMARK  Name = 
REMARK  3 active torsions:
REMARK  status: ('A' for Active; 'I' for Inactive)
REMARK    1  A    between atoms: C_7  and  C_8
REMARK    2  A    between atoms: N_10  and  C_11
REMARK    3  A    between atoms: C_13  and  N_14
REMARK                            x       y       z     vdW  Elec       q    Type
REMARK                         _______ _______ _______ _____ _____    ______ ____
ROOT
ATOM      1  C   UNL     1      16.103  11.800  36.438  0.00  0.00    +0.000 C 
ATOM      2  O   UNL     1      16.904  12.733  36.096  0.00  0.00    +0.000 OA
ATOM      3  N   UNL     1      14.929  11.591  35.664  0.00  0.00    +0.000 NA
ENDROOT
BRANCH   1  10
ATOM      4  C   UNL     1      19.385   9.348  39.115  0.00  0.00    +0.000 C 
ATOM      5  C   UNL     1      17.970   9.798  38.973  0.00  0.00    +0.000 A 
ATOM      6  C   UNL     1      17.005   9.550  39.925  0.00  0.00    +0.000 A 
ATOM      7  C   UNL     1      15.707  10.005  39.751  0.00  0.00    +0.000 A 
ATOM      8  C   UNL     1      15.460  10.709  38.580  0.00  0.00    +0.000 A 
ATOM      9  C   UNL     1      14.026  11.162  38.422  0.00  0.00    +0.000 C 
ATOM     10  C   UNL     1      16.385  10.979  37.614  0.00  0.00    +0.000 A 
ATOM     11  C   UNL     1      17.681  10.509  37.816  0.00  0.00    +0.000 A 
ENDBRANCH   1  10
BRANCH   3  12
ATOM     12  C   UNL     1      14.600  12.372  34.514  0.00  0.00    +0.000 A 
ATOM     13  C   UNL     1      15.112  12.109  33.250  0.00  0.00    +0.000 A 
ATOM     14  C   UNL     1      14.793  12.892  32.170  0.00  0.00    +0.000 A 
ATOM     15  C   UNL     1      13.943  13.950  32.394  0.00  0.00    +0.000 A 
ATOM     16  C   UNL     1      13.438  14.209  33.650  0.00  0.00    +0.000 A 
ATOM     17  C   UNL     1      13.745  13.431  34.751  0.00  0.00    +0.000 A 
ATOM     18  C   UNL     1      13.190  13.736  36.093  0.00  0.00    +0.000 C 
BRANCH  14  19
ATOM     19  N   UNL     1      15.316  12.638  30.875  0.00  0.00    +0.000 N 
ATOM     20  O   UNL     1      15.357  13.534  29.995  0.00  0.00    +0.000 OA
ATOM     21  O   UNL     1      15.818  11.396  30.505  0.00  0.00    +0.000 OA
ENDBRANCH  14  19
ENDBRANCH   3  12
TORSDOF 3
ENDMDL
MODEL 4
REMARK VINA RESULT:      -7.5      1.828      2.017
REMARK  Name = 
REMARK  3 active torsions:
REMARK  status: ('A' for Active; 'I' for Inactive)
REMARK    1  A    between atoms: C_7  and  C_8
REMARK    2  A    between atoms: N_10  and  C_11
REMARK    3  A    between atoms: C_13  and  N_14
REMARK                            x       y       z     vdW  Elec       q    Type
REMARK                         _______ _______ _______ _____ _____    ______ ____
ROOT
ATOM      1  C   UNL     1      15.762  11.764  35.587  0.00  0.00    +0.000 C 
ATOM      2  O   UNL     1      15.161  11.256  36.592  0.00  0.00    +0.000 OA
ATOM      3  N   UNL     1      17.179  11.662  35.515  0.00  0.00    +0.000 NA
ENDROOT
BRANCH   1  10
ATOM      4  C   UNL     1      12.719  15.394  34.355  0.00  0.00    +0.000 C 
ATOM      5  C   UNL     1      13.543  14.239  33.893  0.00  0.00    +0.000 A 
ATOM      6  C   UNL     1      13.671  13.892  32.565  0.00  0.00    +0.000 A 
ATOM      7  C   UNL     1      14.463  12.819  32.188  0.00  0.00    +0.000 A 
ATOM      8  C   UNL     1      15.100  12.140  33.218  0.00  0.00    +0.000 A 
ATOM      9  C   UNL     1      15.930  10.962  32.761  0.00  0.00    +0.000 C 
ATOM     10  C   UNL     1      15.004  12.451  34.543  0.00  0.00    +0.000 A 
ATOM     11  C   UNL     1      14.200  13.534  34.893  0.00  0.00    +0.000 A 
ENDBRANCH   1  10
BRANCH   3  12
ATOM     12  C   UNL     1      17.967  11.013  36.514  0.00  0.00    +0.000 A 
ATOM     13  C   UNL     1      18.610  11.702  37.534  0.00  0.00    +0.000 A 
ATOM     14  C   UNL     1      19.377  11.050  38.467  0.00  0.00    +0.000 A 
ATOM     15  C   UNL     1      19.482   9.684  38.346  0.00  0.00    +0.000 A 
ATOM     16  C   UNL     1      18.843   9.004  37.332  0.00  0.00    +0.000 A 
ATOM     17  C   UNL     1      18.064   9.642  36.384  0.00  0.00    +0.000 A 
ATOM     18  C   UNL     1      17.391   8.884  35.299  0.00  0.00    +0.000 C 
BRANCH  14  19
ATOM     19  N   UNL     1      20.046  11.744  39.510  0.00  0.00    +0.000 N 
ATOM     20  O   UNL     1      20.316  12.968  39.417  0.00  0.00    +0.000 OA
ATOM     21  O   UNL     1      20.434  11.120  40.688  0.00  0.00    +0.000 OA
ENDBRANCH  14  19
ENDBRANCH   3  12
TORSDOF 3
ENDMDL
MODEL 5
REMARK VINA RESULT:      -7.4      2.366      7.148
REMARK  Name = 
REMARK  3 active torsions:
REMARK  status: ('A' for Active; 'I' for Inactive)
REMARK    1  A    between atoms: C_7  and  C_8
REMARK    2  A    between atoms: N_10  and  C_11
REMARK    3  A    between atoms: C_13  and  N_14
REMARK                            x       y       z     vdW  Elec       q    Type
REMARK                         _______ _______ _______ _____ _____    ______ ____
ROOT
ATOM      1  C   UNL     1      18.157  10.067  36.254  0.00  0.00    +0.000 C 
ATOM      2  O   UNL     1      17.484   9.102  35.759  0.00  0.00    +0.000 OA
ATOM      3  N   UNL     1      17.778  11.399  35.933  0.00  0.00    +0.000 NA
ENDROOT
BRANCH   1  10
ATOM      4  C   UNL     1      23.001   9.527  36.700  0.00  0.00    +0.000 C 
ATOM      5  C   UNL     1      21.676   9.566  37.386  0.00  0.00    +0.000 A 
ATOM      6  C   UNL     1      21.536   9.458  38.753  0.00  0.00    +0.000 A 
ATOM      7  C   UNL     1      20.283   9.516  39.341  0.00  0.00    +0.000 A 
ATOM      8  C   UNL     1      19.210   9.686  38.476  0.00  0.00    +0.000 A 
ATOM      9  C   UNL     1      17.862   9.717  39.161  0.00  0.00    +0.000 C 
ATOM     10  C   UNL     1      19.304   9.800  37.120  0.00  0.00    +0.000 A 
ATOM     11  C   UNL     1      20.577   9.738  36.556  0.00  0.00    +0.000 A 
ENDBRANCH   1  10
BRANCH   3  12
ATOM     12  C   UNL     1      16.674  11.714  35.082  0.00  0.00    +0.000 A 
ATOM     13  C   UNL     1      16.730  11.603  33.699  0.00  0.00    +0.000 A 
ATOM     14  C   UNL     1      15.658  11.933  32.909  0.00  0.00    +0.000 A 
ATOM     15  C   UNL     1      14.524  12.379  33.548  0.00  0.00    +0.000 A 
ATOM     16  C   UNL     1      14.472  12.488  34.921  0.00  0.00    +0.000 A 
ATOM     17  C   UNL     1      15.541  12.159  35.735  0.00  0.00    +0.000 A 
ATOM     18  C   UNL     1      15.458  12.292  37.211  0.00  0.00    +0.000 C 
BRANCH  14  19
ATOM     19  N   UNL     1      15.706  11.832  31.494  0.00  0.00    +0.000 N 
ATOM     20  O   UNL     1      15.059  10.949  30.876  0.00  0.00    +0.000 OA
ATOM     21  O   UNL     1      16.457  12.699  30.711  0.00  0.00    +0.000 OA
ENDBRANCH  14  19
ENDBRANCH   3  12
TORSDOF 3
ENDMDL
MODEL 6
REMARK VINA RESULT:      -7.4      2.758      7.445
REMARK  Name = 
REMARK  3 active torsions:
REMARK  status: ('A' for Active; 'I' for Inactive)
REMARK    1  A    between atoms: C_7  and  C_8
REMARK    2  A    between atoms: N_10  and  C_11
REMARK    3  A    between atoms: C_13  and  N_14
REMARK                            x       y       z     vdW  Elec       q    Type
REMARK                         _______ _______ _______ _____ _____    ______ ____
ROOT
ATOM      1  C   UNL     1      19.524  10.745  37.775  0.00  0.00    +0.000 C 
ATOM      2  O   UNL     1      19.394  11.992  38.013  0.00  0.00    +0.000 OA
ATOM      3  N   UNL     1      18.373  10.000  37.395  0.00  0.00    +0.000 NA
ENDROOT
BRANCH   1  10
ATOM      4  C   UNL     1      23.861   9.666  35.783  0.00  0.00    +0.000 C 
ATOM      5  C   UNL     1      22.978   9.582  36.982  0.00  0.00    +0.000 A 
ATOM      6  C   UNL     1      23.386   9.025  38.176  0.00  0.00    +0.000 A 
ATOM      7  C   UNL     1      22.530   8.987  39.265  0.00  0.00    +0.000 A 
ATOM      8  C   UNL     1      21.270   9.536  39.071  0.00  0.00    +0.000 A 
ATOM      9  C   UNL     1      20.364   9.447  40.278  0.00  0.00    +0.000 C 
ATOM     10  C   UNL     1      20.828  10.099  37.910  0.00  0.00    +0.000 A 
ATOM     11  C   UNL     1      21.709  10.123  36.831  0.00  0.00    +0.000 A 
ENDBRANCH   1  10
BRANCH   3  12
ATOM     12  C   UNL     1      17.075  10.580  37.261  0.00  0.00    +0.000 A 
ATOM     13  C   UNL     1      16.644  11.209  36.100  0.00  0.00    +0.000 A 
ATOM     14  C   UNL     1      15.397  11.773  36.011  0.00  0.00    +0.000 A 
ATOM     15  C   UNL     1      14.592  11.691  37.123  0.00  0.00    +0.000 A 
ATOM     16  C   UNL     1      15.023  11.067  38.274  0.00  0.00    +0.000 A 
ATOM     17  C   UNL     1      16.275  10.490  38.384  0.00  0.00    +0.000 A 
ATOM     18  C   UNL     1      16.714   9.828  39.638  0.00  0.00    +0.000 C 
BRANCH  14  19
ATOM     19  N   UNL     1      14.948  12.426  34.832  0.00  0.00    +0.000 N 
ATOM     20  O   UNL     1      14.206  13.438  34.884  0.00  0.00    +0.000 OA
ATOM     21  O   UNL     1      15.305  11.995  33.561  0.00  0.00    +0.000 OA
ENDBRANCH  14  19
ENDBRANCH   3  12
TORSDOF 3
ENDMDL
MODEL 7
REMARK VINA RESULT:      -7.1     18.918     20.615
REMARK  Name = 
REMARK  3 active torsions:
REMARK  status: ('A' for Active; 'I' for Inactive)
REMARK    1  A    between atoms: C_7  and  C_8
REMARK    2  A    between atoms: N_10  and  C_11
REMARK    3  A    between atoms: C_13  and  N_14
REMARK                            x       y       z     vdW  Elec       q    Type
REMARK                         _______ _______ _______ _____ _____    ______ ____
ROOT
ATOM      1  C   UNL     1      29.695  23.237  27.608  0.00  0.00    +0.000 C 
ATOM      2  O   UNL     1      29.436  24.479  27.468  0.00  0.00    +0.000 OA
ATOM      3  N   UNL     1      29.478  22.366  26.505  0.00  0.00    +0.000 NA
ENDROOT
BRANCH   1  10
ATOM      4  C   UNL     1      33.442  21.494  30.230  0.00  0.00    +0.000 C 
ATOM      5  C   UNL     1      32.008  21.902  30.214  0.00  0.00    +0.000 A 
ATOM      6  C   UNL     1      31.214  21.897  31.341  0.00  0.00    +0.000 A 
ATOM      7  C   UNL     1      29.890  22.302  31.274  0.00  0.00    +0.000 A 
ATOM      8  C   UNL     1      29.436  22.701  30.025  0.00  0.00    +0.000 A 
ATOM      9  C   UNL     1      27.980  23.108  29.996  0.00  0.00    +0.000 C 
ATOM     10  C   UNL     1      30.187  22.725  28.886  0.00  0.00    +0.000 A 
ATOM     11  C   UNL     1      31.515  22.313  28.982  0.00  0.00    +0.000 A 
ENDBRANCH   1  10
BRANCH   3  12
ATOM     12  C   UNL     1      28.987  22.813  25.241  0.00  0.00    +0.000 A 
ATOM     13  C   UNL     1      27.633  22.889  24.940  0.00  0.00    +0.000 A 
ATOM     14  C   UNL     1      27.195  23.304  23.708  0.00  0.00    +0.000 A 
ATOM     15  C   UNL     1      28.155  23.641  22.783  0.00  0.00    +0.000 A 
ATOM     16  C   UNL     1      29.498  23.564  23.085  0.00  0.00    +0.000 A 
ATOM     17  C   UNL     1      29.960  23.151  24.320  0.00  0.00    +0.000 A 
ATOM     18  C   UNL     1      31.413  23.073  24.616  0.00  0.00    +0.000 C 
BRANCH  14  19
ATOM     19  N   UNL     1      25.813  23.377  23.386  0.00  0.00    +0.000 N 
ATOM     20  O   UNL     1      25.342  22.791  22.380  0.00  0.00    +0.000 OA
ATOM     21  O   UNL     1      24.906  24.089  24.160  0.00  0.00    +0.000 OA
ENDBRANCH  14  19
ENDBRANCH   3  12
TORSDOF 3
ENDMDL
MODEL 8
REMARK VINA RESULT:      -7.0      2.408      7.462
REMARK  Name = 
REMARK  3 active torsions:
REMARK  status: ('A' for Active; 'I' for Inactive)
REMARK    1  A    between atoms: C_7  and  C_8
REMARK    2  A    between atoms: N_10  and  C_11
REMARK    3  A    between atoms: C_13  and  N_14
REMARK                            x       y       z     vdW  Elec       q    Type
REMARK                         _______ _______ _______ _____ _____    ______ ____
ROOT
ATOM      1  C   UNL     1      17.854  11.244  37.126  0.00  0.00    +0.000 C 
ATOM      2  O   UNL     1      17.925  12.518  37.141  0.00  0.00    +0.000 OA
ATOM      3  N   UNL     1      16.961  10.620  36.211  0.00  0.00    +0.000 NA
ENDROOT
BRANCH   1  10
ATOM      4  C   UNL     1      22.271   9.566  38.402  0.00  0.00    +0.000 C 
ATOM      5  C   UNL     1      20.816   9.637  38.725  0.00  0.00    +0.000 A 
ATOM      6  C   UNL     1      20.274   9.080  39.864  0.00  0.00    +0.000 A 
ATOM      7  C   UNL     1      18.917   9.189  40.126  0.00  0.00    +0.000 A 
ATOM      8  C   UNL     1      18.167   9.880  39.184  0.00  0.00    +0.000 A 
ATOM      9  C   UNL     1      16.690   9.949  39.498  0.00  0.00    +0.000 C 
ATOM     10  C   UNL     1      18.664  10.448  38.047  0.00  0.00    +0.000 A 
ATOM     11  C   UNL     1      20.031  10.323  37.809  0.00  0.00    +0.000 A 
ENDBRANCH   1  10
BRANCH   3  12
ATOM     12  C   UNL     1      16.139  11.351  35.300  0.00  0.00    +0.000 A 
ATOM     13  C   UNL     1      15.114  12.193  35.715  0.00  0.00    +0.000 A 
ATOM     14  C   UNL     1      14.330  12.866  34.813  0.00  0.00    +0.000 A 
ATOM     15  C   UNL     1      14.601  12.669  33.479  0.00  0.00    +0.000 A 
ATOM     16  C   UNL     1      15.618  11.833  33.071  0.00  0.00    +0.000 A 
ATOM     17  C   UNL     1      16.422  11.148  33.964  0.00  0.00    +0.000 A 
ATOM     18  C   UNL     1      17.507  10.250  33.496  0.00  0.00    +0.000 C 
BRANCH  14  19
ATOM     19  N   UNL     1      13.274  13.722  35.225  0.00  0.00    +0.000 N 
ATOM     20  O   UNL     1      12.561  13.452  36.224  0.00  0.00    +0.000 OA
ATOM     21  O   UNL     1      12.973  14.903  34.559  0.00  0.00    +0.000 OA
ENDBRANCH  14  19
ENDBRANCH   3  12
TORSDOF 3
ENDMDL
MODEL 9
REMARK VINA RESULT:      -7.0     18.963     20.543
REMARK  Name = 
REMARK  3 active torsions:
REMARK  status: ('A' for Active; 'I' for Inactive)
REMARK    1  A    between atoms: C_7  and  C_8
REMARK    2  A    between atoms: N_10  and  C_11
REMARK    3  A    between atoms: C_13  and  N_14
REMARK                            x       y       z     vdW  Elec       q    Type
REMARK                         _______ _______ _______ _____ _____    ______ ____
ROOT
ATOM      1  C   UNL     1      25.256  25.937  25.320  0.00  0.00    +0.000 C 
ATOM      2  O   UNL     1      26.205  26.781  25.442  0.00  0.00    +0.000 OA
ATOM      3  N   UNL     1      25.503  24.731  24.608  0.00  0.00    +0.000 NA
ENDROOT
BRANCH   1  10
ATOM      4  C   UNL     1      20.637  27.388  24.603  0.00  0.00    +0.000 C 
ATOM      5  C   UNL     1      21.657  26.889  25.570  0.00  0.00    +0.000 A 
ATOM      6  C   UNL     1      21.368  26.613  26.890  0.00  0.00    +0.000 A 
ATOM      7  C   UNL     1      22.351  26.136  27.743  0.00  0.00    +0.000 A 
ATOM      8  C   UNL     1      23.611  25.961  27.186  0.00  0.00    +0.000 A 
ATOM      9  C   UNL     1      24.654  25.466  28.161  0.00  0.00    +0.000 C 
ATOM     10  C   UNL     1      23.939  26.219  25.887  0.00  0.00    +0.000 A 
ATOM     11  C   UNL     1      22.931  26.698  25.052  0.00  0.00    +0.000 A 
ENDBRANCH   1  10
BRANCH   3  12
ATOM     12  C   UNL     1      26.767  24.413  24.023  0.00  0.00    +0.000 A 
ATOM     13  C   UNL     1      27.239  25.020  22.867  0.00  0.00    +0.000 A 
ATOM     14  C   UNL     1      28.449  24.677  22.320  0.00  0.00    +0.000 A 
ATOM     15  C   UNL     1      29.175  23.704  22.967  0.00  0.00    +0.000 A 
ATOM     16  C   UNL     1      28.703  23.103  24.114  0.00  0.00    +0.000 A 
ATOM     17  C   UNL     1      27.487  23.436  24.683  0.00  0.00    +0.000 A 
ATOM     18  C   UNL     1      27.001  22.768  25.916  0.00  0.00    +0.000 C 
BRANCH  14  19
ATOM     19  N   UNL     1      28.940  25.285  21.134  0.00  0.00    +0.000 N 
ATOM     20  O   UNL     1      29.749  24.692  20.378  0.00  0.00    +0.000 OA
ATOM     21  O   UNL     1      28.552  26.558  20.736  0.00  0.00    +0.000 OA
ENDBRANCH  14  19
ENDBRANCH   3  12
TORSDOF 3
ENDMDL
MODEL 10
REMARK VINA RESULT:      -6.9     18.247     19.907
REMARK  Name = 
REMARK  3 active torsions:
REMARK  status: ('A' for Active; 'I' for Inactive)
REMARK    1  A    between atoms: C_7  and  C_8
REMARK    2  A    between atoms: N_10  and  C_11
REMARK    3  A    between atoms: C_13  and  N_14
REMARK                            x       y       z     vdW  Elec       q    Type
REMARK                         _______ _______ _______ _____ _____    ______ ____
ROOT
ATOM      1  C   UNL     1      29.027  23.397  27.982  0.00  0.00    +0.000 C 
ATOM      2  O   UNL     1      29.335  24.528  27.477  0.00  0.00    +0.000 OA
ATOM      3  N   UNL     1      27.879  22.719  27.489  0.00  0.00    +0.000 NA
ENDROOT
BRANCH   1  10
ATOM      4  C   UNL     1      33.299  21.493  29.423  0.00  0.00    +0.000 C 
ATOM      5  C   UNL     1      31.924  21.922  29.812  0.00  0.00    +0.000 A 
ATOM      6  C   UNL     1      31.465  21.880  31.111  0.00  0.00    +0.000 A 
ATOM      7  C   UNL     1      30.183  22.306  31.421  0.00  0.00    +0.000 A 
ATOM      8  C   UNL     1      29.418  22.764  30.357  0.00  0.00    +0.000 A 
ATOM      9  C   UNL     1      28.019  23.192  30.739  0.00  0.00    +0.000 C 
ATOM     10  C   UNL     1      29.834  22.825  29.058  0.00  0.00    +0.000 A 
ATOM     11  C   UNL     1      31.127  22.390  28.776  0.00  0.00    +0.000 A 
ENDBRANCH   1  10
BRANCH   3  12
ATOM     12  C   UNL     1      27.050  23.240  26.448  0.00  0.00    +0.000 A 
ATOM     13  C   UNL     1      27.287  22.998  25.101  0.00  0.00    +0.000 A 
ATOM     14  C   UNL     1      26.483  23.530  24.125  0.00  0.00    +0.000 A 
ATOM     15  C   UNL     1      25.432  24.315  24.539  0.00  0.00    +0.000 A 
ATOM     16  C   UNL     1      25.200  24.553  25.877  0.00  0.00    +0.000 A 
ATOM     17  C   UNL     1      25.997  24.024  26.876  0.00  0.00    +0.000 A 
ATOM     18  C   UNL     1      25.726  24.302  28.309  0.00  0.00    +0.000 C 
BRANCH  14  19
ATOM     19  N   UNL     1      26.720  23.297  22.744  0.00  0.00    +0.000 N 
ATOM     20  O   UNL     1      25.773  23.154  21.930  0.00  0.00    +0.000 OA
ATOM     21  O   UNL     1      28.001  23.220  22.212  0.00  0.00    +0.000 OA
ENDBRANCH  14  19
ENDBRANCH   3  12
TORSDOF 3
ENDMDL
