MODEL 1
REMARK VINA RESULT:      -8.0      0.000      0.000
REMARK  Name = 
REMARK  5 active torsions:
REMARK  status: ('A' for Active; 'I' for Inactive)
REMARK    1  A    between atoms: C_2  and  N_3
REMARK    2  A    between atoms: C_2  and  C_8
REMARK    3  A    between atoms: N_3  and  N_4
REMARK    4  A    between atoms: C_17  and  O_18
REMARK    5  A    between atoms: O_18  and  C_19
REMARK                            x       y       z     vdW  Elec       q    Type
REMARK                         _______ _______ _______ _____ _____    ______ ____
ROOT
ATOM      1  C   UNL     1      14.859  12.536  35.204  0.00  0.00    +0.000 A 
ATOM      2  C   UNL     1      14.137  13.719  34.978  0.00  0.00    +0.000 A 
ATOM      3  C   UNL     1      13.734  14.079  33.776  0.00  0.00    +0.000 A 
ATOM      4  C   UNL     1      14.009  13.346  32.602  0.00  0.00    +0.000 A 
ATOM      5  C   UNL     1      13.627  13.789  31.374  0.00  0.00    +0.000 A 
ATOM      6  C   UNL     1      13.958  13.037  30.228  0.00  0.00    +0.000 A 
ATOM      7  C   UNL     1      14.676  11.896  30.446  0.00  0.00    +0.000 A 
ATOM      8  C   UNL     1      15.088  11.437  31.664  0.00  0.00    +0.000 A 
ATOM      9  C   UNL     1      14.733  12.169  32.812  0.00  0.00    +0.000 A 
ATOM     10  C   UNL     1      15.095  11.846  34.077  0.00  0.00    +0.000 A 
ENDROOT
BRANCH   1  12
ATOM     11  C   UNL     1      16.320  12.674  37.149  0.00  0.00    +0.000 C 
ATOM     12  C   UNL     1      15.273  12.178  36.530  0.00  0.00    +0.000 C 
BRANCH  12  13
ATOM     13  N   UNL     1      14.497  11.182  37.280  0.00  0.00    +0.000 NA
BRANCH  13  14
ATOM     14  N   UNL     1      13.095  11.435  37.044  0.00  0.00    +0.000 NA
ATOM     15  C   UNL     1      12.121  10.855  37.837  0.00  0.00    +0.000 C 
ATOM     16  C   UNL     1      10.687  11.188  37.551  0.00  0.00    +0.000 C 
ATOM     17  O   UNL     1      12.307  10.064  38.758  0.00  0.00    +0.000 OA
ENDBRANCH  13  14
ENDBRANCH  12  13
ENDBRANCH   1  12
BRANCH  10  18
ATOM     18  O   UNL     1      15.818  10.570  34.146  0.00  0.00    +0.000 OA
BRANCH  18  19
ATOM     19  C   UNL     1      17.220  10.844  33.871  0.00  0.00    +0.000 C 
ATOM     20  F   UNL     1      17.756  11.968  34.220  0.00  0.00    +0.000 F 
ATOM     21  F   UNL     1      17.817   9.931  33.091  0.00  0.00    +0.000 F 
ENDBRANCH  18  19
ENDBRANCH  10  18
TORSDOF 5
ENDMDL
MODEL 2
REMARK VINA RESULT:      -7.7      1.732      2.897
REMARK  Name = 
REMARK  5 active torsions:
REMARK  status: ('A' for Active; 'I' for Inactive)
REMARK    1  A    between atoms: C_2  and  N_3
REMARK    2  A    between atoms: C_2  and  C_8
REMARK    3  A    between atoms: N_3  and  N_4
REMARK    4  A    between atoms: C_17  and  O_18
REMARK    5  A    between atoms: O_18  and  C_19
REMARK                            x       y       z     vdW  Elec       q    Type
REMARK                         _______ _______ _______ _____ _____    ______ ____
ROOT
ATOM      1  C   UNL     1      14.493  12.544  35.335  0.00  0.00    +0.000 A 
ATOM      2  C   UNL     1      13.776  13.721  35.064  0.00  0.00    +0.000 A 
ATOM      3  C   UNL     1      13.589  14.163  33.837  0.00  0.00    +0.000 A 
ATOM      4  C   UNL     1      14.109  13.534  32.685  0.00  0.00    +0.000 A 
ATOM      5  C   UNL     1      13.943  14.062  31.443  0.00  0.00    +0.000 A 
ATOM      6  C   UNL     1      14.514  13.413  30.328  0.00  0.00    +0.000 A 
ATOM      7  C   UNL     1      15.225  12.279  30.595  0.00  0.00    +0.000 A 
ATOM      8  C   UNL     1      15.423  11.736  31.832  0.00  0.00    +0.000 A 
ATOM      9  C   UNL     1      14.829  12.364  32.942  0.00  0.00    +0.000 A 
ATOM     10  C   UNL     1      14.963  11.953  34.226  0.00  0.00    +0.000 A 
ENDROOT
BRANCH   1  12
ATOM     11  C   UNL     1      13.734  11.521  37.413  0.00  0.00    +0.000 C 
ATOM     12  C   UNL     1      14.667  12.093  36.686  0.00  0.00    +0.000 C 
BRANCH  12  13
ATOM     13  N   UNL     1      15.969  12.274  37.341  0.00  0.00    +0.000 NA
BRANCH  13  14
ATOM     14  N   UNL     1      16.478  10.970  37.696  0.00  0.00    +0.000 NA
ATOM     15  C   UNL     1      17.834  10.752  37.859  0.00  0.00    +0.000 C 
ATOM     16  C   UNL     1      18.286   9.378  38.257  0.00  0.00    +0.000 C 
ATOM     17  O   UNL     1      18.729  11.575  37.690  0.00  0.00    +0.000 OA
ENDBRANCH  13  14
ENDBRANCH  12  13
ENDBRANCH   1  12
BRANCH  10  18
ATOM     18  O   UNL     1      15.714  10.695  34.338  0.00  0.00    +0.000 OA
BRANCH  18  19
ATOM     19  C   UNL     1      17.123  11.008  34.162  0.00  0.00    +0.000 C 
ATOM     20  F   UNL     1      17.934  10.146  33.639  0.00  0.00    +0.000 F 
ATOM     21  F   UNL     1      17.510  12.153  34.743  0.00  0.00    +0.000 F 
ENDBRANCH  18  19
ENDBRANCH  10  18
TORSDOF 5
ENDMDL
MODEL 3
REMARK VINA RESULT:      -7.2      2.985      4.631
REMARK  Name = 
REMARK  5 active torsions:
REMARK  status: ('A' for Active; 'I' for Inactive)
REMARK    1  A    between atoms: C_2  and  N_3
REMARK    2  A    between atoms: C_2  and  C_8
REMARK    3  A    between atoms: N_3  and  N_4
REMARK    4  A    between atoms: C_17  and  O_18
REMARK    5  A    between atoms: O_18  and  C_19
REMARK                            x       y       z     vdW  Elec       q    Type
REMARK                         _______ _______ _______ _____ _____    ______ ____
ROOT
ATOM      1  C   UNL     1      16.518  11.252  35.445  0.00  0.00    +0.000 A 
ATOM      2  C   UNL     1      17.096  10.294  34.596  0.00  0.00    +0.000 A 
ATOM      3  C   UNL     1      16.831  10.243  33.307  0.00  0.00    +0.000 A 
ATOM      4  C   UNL     1      15.924  11.108  32.656  0.00  0.00    +0.000 A 
ATOM      5  C   UNL     1      15.633  10.977  31.334  0.00  0.00    +0.000 A 
ATOM      6  C   UNL     1      14.693  11.843  30.739  0.00  0.00    +0.000 A 
ATOM      7  C   UNL     1      14.117  12.763  31.567  0.00  0.00    +0.000 A 
ATOM      8  C   UNL     1      14.376  12.905  32.900  0.00  0.00    +0.000 A 
ATOM      9  C   UNL     1      15.336  12.062  33.490  0.00  0.00    +0.000 A 
ATOM     10  C   UNL     1      15.673  12.074  34.802  0.00  0.00    +0.000 A 
ENDROOT
BRANCH   1  12
ATOM     11  C   UNL     1      16.089  10.774  37.795  0.00  0.00    +0.000 C 
ATOM     12  C   UNL     1      16.840  11.277  36.843  0.00  0.00    +0.000 C 
BRANCH  12  13
ATOM     13  N   UNL     1      18.092  11.908  37.279  0.00  0.00    +0.000 NA
BRANCH  13  14
ATOM     14  N   UNL     1      18.684  11.073  38.298  0.00  0.00    +0.000 NA
ATOM     15  C   UNL     1      19.632  10.117  37.976  0.00  0.00    +0.000 C 
ATOM     16  C   UNL     1      20.224   9.307  39.090  0.00  0.00    +0.000 C 
ATOM     17  O   UNL     1      20.033   9.841  36.849  0.00  0.00    +0.000 OA
ENDBRANCH  13  14
ENDBRANCH  12  13
ENDBRANCH   1  12
BRANCH  10  18
ATOM     18  O   UNL     1      15.003  13.150  35.545  0.00  0.00    +0.000 OA
BRANCH  18  19
ATOM     19  C   UNL     1      13.676  12.677  35.903  0.00  0.00    +0.000 C 
ATOM     20  F   UNL     1      13.461  11.424  36.140  0.00  0.00    +0.000 F 
ATOM     21  F   UNL     1      12.710  13.600  35.782  0.00  0.00    +0.000 F 
ENDBRANCH  18  19
ENDBRANCH  10  18
TORSDOF 5
ENDMDL
MODEL 4
REMARK VINA RESULT:      -7.0      2.814      6.155
REMARK  Name = 
REMARK  5 active torsions:
REMARK  status: ('A' for Active; 'I' for Inactive)
REMARK    1  A    between atoms: C_2  and  N_3
REMARK    2  A    between atoms: C_2  and  C_8
REMARK    3  A    between atoms: N_3  and  N_4
REMARK    4  A    between atoms: C_17  and  O_18
REMARK    5  A    between atoms: O_18  and  C_19
REMARK                            x       y       z     vdW  Elec       q    Type
REMARK                         _______ _______ _______ _____ _____    ______ ____
ROOT
ATOM      1  C   UNL     1      15.065  11.588  36.318  0.00  0.00    +0.000 A 
ATOM      2  C   UNL     1      14.011  11.438  37.234  0.00  0.00    +0.000 A 
ATOM      3  C   UNL     1      14.194  10.945  38.442  0.00  0.00    +0.000 A 
ATOM      4  C   UNL     1      15.439  10.489  38.926  0.00  0.00    +0.000 A 
ATOM      5  C   UNL     1      15.567   9.929  40.159  0.00  0.00    +0.000 A 
ATOM      6  C   UNL     1      16.827   9.456  40.581  0.00  0.00    +0.000 A 
ATOM      7  C   UNL     1      17.847   9.585  39.684  0.00  0.00    +0.000 A 
ATOM      8  C   UNL     1      17.744  10.127  38.434  0.00  0.00    +0.000 A 
ATOM      9  C   UNL     1      16.495  10.627  38.022  0.00  0.00    +0.000 A 
ATOM     10  C   UNL     1      16.242  11.164  36.805  0.00  0.00    +0.000 A 
ENDROOT
BRANCH   1  12
ATOM     11  C   UNL     1      14.384  13.352  34.781  0.00  0.00    +0.000 C 
ATOM     12  C   UNL     1      14.824  12.136  35.014  0.00  0.00    +0.000 C 
BRANCH  12  13
ATOM     13  N   UNL     1      15.070  11.305  33.829  0.00  0.00    +0.000 NA
BRANCH  13  14
ATOM     14  N   UNL     1      15.811  12.094  32.874  0.00  0.00    +0.000 NA
ATOM     15  C   UNL     1      15.471  12.096  31.532  0.00  0.00    +0.000 C 
ATOM     16  C   UNL     1      16.268  12.963  30.603  0.00  0.00    +0.000 C 
ATOM     17  O   UNL     1      14.581  11.435  31.005  0.00  0.00    +0.000 OA
ENDBRANCH  13  14
ENDBRANCH  12  13
ENDBRANCH   1  12
BRANCH  10  18
ATOM     18  O   UNL     1      17.451  11.277  35.977  0.00  0.00    +0.000 OA
BRANCH  18  19
ATOM     19  C   UNL     1      17.767   9.948  35.478  0.00  0.00    +0.000 C 
ATOM     20  F   UNL     1      16.830   9.085  35.254  0.00  0.00    +0.000 F 
ATOM     21  F   UNL     1      19.078   9.665  35.456  0.00  0.00    +0.000 F 
ENDBRANCH  18  19
ENDBRANCH  10  18
TORSDOF 5
ENDMDL
MODEL 5
REMARK VINA RESULT:      -6.8      2.913      4.459
REMARK  Name = 
REMARK  5 active torsions:
REMARK  status: ('A' for Active; 'I' for Inactive)
REMARK    1  A    between atoms: C_2  and  N_3
REMARK    2  A    between atoms: C_2  and  C_8
REMARK    3  A    between atoms: N_3  and  N_4
REMARK    4  A    between atoms: C_17  and  O_18
REMARK    5  A    between atoms: O_18  and  C_19
REMARK                            x       y       z     vdW  Elec       q    Type
REMARK                         _______ _______ _______ _____ _____    ______ ____
ROOT
ATOM      1  C   UNL     1      16.403  10.804  36.153  0.00  0.00    +0.000 A 
ATOM      2  C   UNL     1      15.551  10.825  37.269  0.00  0.00    +0.000 A 
ATOM      3  C   UNL     1      14.469  11.575  37.315  0.00  0.00    +0.000 A 
ATOM      4  C   UNL     1      14.074  12.450  36.280  0.00  0.00    +0.000 A 
ATOM      5  C   UNL     1      12.983  13.253  36.399  0.00  0.00    +0.000 A 
ATOM      6  C   UNL     1      12.651  14.137  35.351  0.00  0.00    +0.000 A 
ATOM      7  C   UNL     1      13.489  14.130  34.273  0.00  0.00    +0.000 A 
ATOM      8  C   UNL     1      14.601  13.348  34.135  0.00  0.00    +0.000 A 
ATOM      9  C   UNL     1      14.917  12.444  35.165  0.00  0.00    +0.000 A 
ATOM     10  C   UNL     1      16.000  11.631  35.174  0.00  0.00    +0.000 A 
ENDROOT
BRANCH   1  12
ATOM     11  C   UNL     1      17.694   8.866  35.434  0.00  0.00    +0.000 C 
ATOM     12  C   UNL     1      17.568   9.966  36.141  0.00  0.00    +0.000 C 
BRANCH  12  13
ATOM     13  N   UNL     1      18.722  10.331  36.972  0.00  0.00    +0.000 NA
BRANCH  13  14
ATOM     14  N   UNL     1      19.047   9.200  37.810  0.00  0.00    +0.000 NA
ATOM     15  C   UNL     1      18.568   9.109  39.105  0.00  0.00    +0.000 C 
ATOM     16  C   UNL     1      18.922   7.892  39.905  0.00  0.00    +0.000 C 
ATOM     17  O   UNL     1      17.886   9.947  39.689  0.00  0.00    +0.000 OA
ENDBRANCH  13  14
ENDBRANCH  12  13
ENDBRANCH   1  12
BRANCH  10  18
ATOM     18  O   UNL     1      16.770  11.706  33.926  0.00  0.00    +0.000 OA
BRANCH  18  19
ATOM     19  C   UNL     1      16.275  10.663  33.042  0.00  0.00    +0.000 C 
ATOM     20  F   UNL     1      15.053  10.248  33.125  0.00  0.00    +0.000 F 
ATOM     21  F   UNL     1      17.224  10.074  32.298  0.00  0.00    +0.000 F 
ENDBRANCH  18  19
ENDBRANCH  10  18
TORSDOF 5
ENDMDL
MODEL 6
REMARK VINA RESULT:      -6.8      3.234      6.314
REMARK  Name = 
REMARK  5 active torsions:
REMARK  status: ('A' for Active; 'I' for Inactive)
REMARK    1  A    between atoms: C_2  and  N_3
REMARK    2  A    between atoms: C_2  and  C_8
REMARK    3  A    between atoms: N_3  and  N_4
REMARK    4  A    between atoms: C_17  and  O_18
REMARK    5  A    between atoms: O_18  and  C_19
REMARK                            x       y       z     vdW  Elec       q    Type
REMARK                         _______ _______ _______ _____ _____    ______ ____
ROOT
ATOM      1  C   UNL     1      15.571  11.688  34.939  0.00  0.00    +0.000 A 
ATOM      2  C   UNL     1      16.514  10.921  34.235  0.00  0.00    +0.000 A 
ATOM      3  C   UNL     1      17.369  10.125  34.844  0.00  0.00    +0.000 A 
ATOM      4  C   UNL     1      17.454   9.987  36.246  0.00  0.00    +0.000 A 
ATOM      5  C   UNL     1      18.397   9.200  36.832  0.00  0.00    +0.000 A 
ATOM      6  C   UNL     1      18.463   9.124  38.239  0.00  0.00    +0.000 A 
ATOM      7  C   UNL     1      17.558   9.883  38.924  0.00  0.00    +0.000 A 
ATOM      8  C   UNL     1      16.614  10.695  38.362  0.00  0.00    +0.000 A 
ATOM      9  C   UNL     1      16.525  10.749  36.959  0.00  0.00    +0.000 A 
ATOM     10  C   UNL     1      15.658  11.528  36.269  0.00  0.00    +0.000 A 
ENDROOT
BRANCH   1  12
ATOM     11  C   UNL     1      14.112  13.628  34.730  0.00  0.00    +0.000 C 
ATOM     12  C   UNL     1      14.652  12.537  34.237  0.00  0.00    +0.000 C 
BRANCH  12  13
ATOM     13  N   UNL     1      14.257  12.188  32.866  0.00  0.00    +0.000 NA
BRANCH  13  14
ATOM     14  N   UNL     1      14.858  13.148  31.969  0.00  0.00    +0.000 NA
ATOM     15  C   UNL     1      15.789  12.756  31.023  0.00  0.00    +0.000 C 
ATOM     16  C   UNL     1      16.348  13.803  30.107  0.00  0.00    +0.000 C 
ATOM     17  O   UNL     1      16.232  11.623  30.864  0.00  0.00    +0.000 OA
ENDBRANCH  13  14
ENDBRANCH  12  13
ENDBRANCH   1  12
BRANCH  10  18
ATOM     18  O   UNL     1      14.723  12.243  37.148  0.00  0.00    +0.000 OA
BRANCH  18  19
ATOM     19  C   UNL     1      13.638  11.330  37.469  0.00  0.00    +0.000 C 
ATOM     20  F   UNL     1      13.605  10.714  38.606  0.00  0.00    +0.000 F 
ATOM     21  F   UNL     1      12.818  11.065  36.441  0.00  0.00    +0.000 F 
ENDBRANCH  18  19
ENDBRANCH  10  18
TORSDOF 5
ENDMDL
MODEL 7
REMARK VINA RESULT:      -6.5      3.060      4.489
REMARK  Name = 
REMARK  5 active torsions:
REMARK  status: ('A' for Active; 'I' for Inactive)
REMARK    1  A    between atoms: C_2  and  N_3
REMARK    2  A    between atoms: C_2  and  C_8
REMARK    3  A    between atoms: N_3  and  N_4
REMARK    4  A    between atoms: C_17  and  O_18
REMARK    5  A    between atoms: O_18  and  C_19
REMARK                            x       y       z     vdW  Elec       q    Type
REMARK                         _______ _______ _______ _____ _____    ______ ____
ROOT
ATOM      1  C   UNL     1      16.484  11.710  36.162  0.00  0.00    +0.000 A 
ATOM      2  C   UNL     1      15.295  12.447  36.291  0.00  0.00    +0.000 A 
ATOM      3  C   UNL     1      14.567  12.796  35.249  0.00  0.00    +0.000 A 
ATOM      4  C   UNL     1      14.916  12.505  33.913  0.00  0.00    +0.000 A 
ATOM      5  C   UNL     1      14.166  12.942  32.866  0.00  0.00    +0.000 A 
ATOM      6  C   UNL     1      14.576  12.655  31.547  0.00  0.00    +0.000 A 
ATOM      7  C   UNL     1      15.741  11.954  31.421  0.00  0.00    +0.000 A 
ATOM      8  C   UNL     1      16.523  11.519  32.453  0.00  0.00    +0.000 A 
ATOM      9  C   UNL     1      16.100  11.777  33.770  0.00  0.00    +0.000 A 
ATOM     10  C   UNL     1      16.787  11.430  34.884  0.00  0.00    +0.000 A 
ENDROOT
BRANCH   1  12
ATOM     11  C   UNL     1      16.865  10.460  38.218  0.00  0.00    +0.000 C 
ATOM     12  C   UNL     1      17.243  11.344  37.323  0.00  0.00    +0.000 C 
BRANCH  12  13
ATOM     13  N   UNL     1      18.540  11.987  37.565  0.00  0.00    +0.000 NA
BRANCH  13  14
ATOM     14  N   UNL     1      19.527  10.950  37.753  0.00  0.00    +0.000 NA
ATOM     15  C   UNL     1      20.851  11.262  38.011  0.00  0.00    +0.000 C 
ATOM     16  C   UNL     1      21.814  10.132  38.224  0.00  0.00    +0.000 C 
ATOM     17  O   UNL     1      21.336  12.388  38.066  0.00  0.00    +0.000 OA
ENDBRANCH  13  14
ENDBRANCH  12  13
ENDBRANCH   1  12
BRANCH  10  18
ATOM     18  O   UNL     1      17.989  10.642  34.581  0.00  0.00    +0.000 OA
BRANCH  18  19
ATOM     19  C   UNL     1      17.732   9.272  34.995  0.00  0.00    +0.000 C 
ATOM     20  F   UNL     1      16.528   8.798  35.005  0.00  0.00    +0.000 F 
ATOM     21  F   UNL     1      18.795   8.645  35.519  0.00  0.00    +0.000 F 
ENDBRANCH  18  19
ENDBRANCH  10  18
TORSDOF 5
ENDMDL
MODEL 8
REMARK VINA RESULT:      -6.4      3.958      6.291
REMARK  Name = 
REMARK  5 active torsions:
REMARK  status: ('A' for Active; 'I' for Inactive)
REMARK    1  A    between atoms: C_2  and  N_3
REMARK    2  A    between atoms: C_2  and  C_8
REMARK    3  A    between atoms: N_3  and  N_4
REMARK    4  A    between atoms: C_17  and  O_18
REMARK    5  A    between atoms: O_18  and  C_19
REMARK                            x       y       z     vdW  Elec       q    Type
REMARK                         _______ _______ _______ _____ _____    ______ ____
ROOT
ATOM      1  C   UNL     1      17.327  10.102  38.622  0.00  0.00    +0.000 A 
ATOM      2  C   UNL     1      16.257  10.028  39.529  0.00  0.00    +0.000 A 
ATOM      3  C   UNL     1      15.057  10.490  39.241  0.00  0.00    +0.000 A 
ATOM      4  C   UNL     1      14.731  11.129  38.026  0.00  0.00    +0.000 A 
ATOM      5  C   UNL     1      13.494  11.647  37.799  0.00  0.00    +0.000 A 
ATOM      6  C   UNL     1      13.229  12.308  36.582  0.00  0.00    +0.000 A 
ATOM      7  C   UNL     1      14.273  12.396  35.707  0.00  0.00    +0.000 A 
ATOM      8  C   UNL     1      15.530  11.902  35.916  0.00  0.00    +0.000 A 
ATOM      9  C   UNL     1      15.788  11.215  37.117  0.00  0.00    +0.000 A 
ATOM     10  C   UNL     1      16.990  10.698  37.467  0.00  0.00    +0.000 A 
ENDROOT
BRANCH   1  12
ATOM     11  C   UNL     1      18.883   8.309  39.172  0.00  0.00    +0.000 C 
ATOM     12  C   UNL     1      18.617   9.580  38.973  0.00  0.00    +0.000 C 
BRANCH  12  13
ATOM     13  N   UNL     1      19.745  10.505  39.136  0.00  0.00    +0.000 NA
BRANCH  13  14
ATOM     14  N   UNL     1      20.786  10.109  38.216  0.00  0.00    +0.000 NA
ATOM     15  C   UNL     1      21.726  11.020  37.767  0.00  0.00    +0.000 C 
ATOM     16  C   UNL     1      22.795  10.529  36.836  0.00  0.00    +0.000 C 
ATOM     17  O   UNL     1      21.769  12.216  38.037  0.00  0.00    +0.000 OA
ENDBRANCH  13  14
ENDBRANCH  12  13
ENDBRANCH   1  12
BRANCH  10  18
ATOM     18  O   UNL     1      17.992  10.831  36.401  0.00  0.00    +0.000 OA
BRANCH  18  19
ATOM     19  C   UNL     1      18.081   9.549  35.721  0.00  0.00    +0.000 C 
ATOM     20  F   UNL     1      17.019   8.849  35.483  0.00  0.00    +0.000 F 
ATOM     21  F   UNL     1      19.334   9.104  35.545  0.00  0.00    +0.000 F 
ENDBRANCH  18  19
ENDBRANCH  10  18
TORSDOF 5
ENDMDL
MODEL 9
REMARK VINA RESULT:      -6.3      4.404      5.874
REMARK  Name = 
REMARK  5 active torsions:
REMARK  status: ('A' for Active; 'I' for Inactive)
REMARK    1  A    between atoms: C_2  and  N_3
REMARK    2  A    between atoms: C_2  and  C_8
REMARK    3  A    between atoms: N_3  and  N_4
REMARK    4  A    between atoms: C_17  and  O_18
REMARK    5  A    between atoms: O_18  and  C_19
REMARK                            x       y       z     vdW  Elec       q    Type
REMARK                         _______ _______ _______ _____ _____    ______ ____
ROOT
ATOM      1  C   UNL     1      17.159  10.098  38.880  0.00  0.00    +0.000 A 
ATOM      2  C   UNL     1      15.951  10.002  39.590  0.00  0.00    +0.000 A 
ATOM      3  C   UNL     1      14.825  10.512  39.135  0.00  0.00    +0.000 A 
ATOM      4  C   UNL     1      14.718  11.228  37.924  0.00  0.00    +0.000 A 
ATOM      5  C   UNL     1      13.546  11.791  37.526  0.00  0.00    +0.000 A 
ATOM      6  C   UNL     1      13.500  12.528  36.324  0.00  0.00    +0.000 A 
ATOM      7  C   UNL     1      14.678  12.637  35.642  0.00  0.00    +0.000 A 
ATOM      8  C   UNL     1      15.872  12.097  36.027  0.00  0.00    +0.000 A 
ATOM      9  C   UNL     1      15.914  11.336  37.209  0.00  0.00    +0.000 A 
ATOM     10  C   UNL     1      17.031  10.768  37.723  0.00  0.00    +0.000 A 
ENDROOT
BRANCH   1  12
ATOM     11  C   UNL     1      19.283  10.184  40.071  0.00  0.00    +0.000 C 
ATOM     12  C   UNL     1      18.362   9.522  39.408  0.00  0.00    +0.000 C 
BRANCH  12  13
ATOM     13  N   UNL     1      18.621   8.090  39.206  0.00  0.00    +0.000 NA
BRANCH  13  14
ATOM     14  N   UNL     1      18.058   7.371  40.324  0.00  0.00    +0.000 NA
ATOM     15  C   UNL     1      18.433   6.067  40.598  0.00  0.00    +0.000 C 
ATOM     16  C   UNL     1      17.827   5.394  41.793  0.00  0.00    +0.000 C 
ATOM     17  O   UNL     1      19.210   5.381  39.941  0.00  0.00    +0.000 OA
ENDBRANCH  13  14
ENDBRANCH  12  13
ENDBRANCH   1  12
BRANCH  10  18
ATOM     18  O   UNL     1      18.199  10.933  36.848  0.00  0.00    +0.000 OA
BRANCH  18  19
ATOM     19  C   UNL     1      18.369   9.696  36.105  0.00  0.00    +0.000 C 
ATOM     20  F   UNL     1      17.345   8.985  35.757  0.00  0.00    +0.000 F 
ATOM     21  F   UNL     1      19.643   9.293  35.987  0.00  0.00    +0.000 F 
ENDBRANCH  18  19
ENDBRANCH  10  18
TORSDOF 5
ENDMDL
MODEL 10
REMARK VINA RESULT:      -6.2     19.461     21.314
REMARK  Name = 
REMARK  5 active torsions:
REMARK  status: ('A' for Active; 'I' for Inactive)
REMARK    1  A    between atoms: C_2  and  N_3
REMARK    2  A    between atoms: C_2  and  C_8
REMARK    3  A    between atoms: N_3  and  N_4
REMARK    4  A    between atoms: C_17  and  O_18
REMARK    5  A    between atoms: O_18  and  C_19
REMARK                            x       y       z     vdW  Elec       q    Type
REMARK                         _______ _______ _______ _____ _____    ______ ____
ROOT
ATOM      1  C   UNL     1      27.951  23.073  24.368  0.00  0.00    +0.000 A 
ATOM      2  C   UNL     1      29.281  22.848  23.978  0.00  0.00    +0.000 A 
ATOM      3  C   UNL     1      30.241  22.619  24.851  0.00  0.00    +0.000 A 
ATOM      4  C   UNL     1      30.048  22.612  26.249  0.00  0.00    +0.000 A 
ATOM      5  C   UNL     1      31.082  22.434  27.114  0.00  0.00    +0.000 A 
ATOM      6  C   UNL     1      30.842  22.471  28.504  0.00  0.00    +0.000 A 
ATOM      7  C   UNL     1      29.552  22.708  28.883  0.00  0.00    +0.000 A 
ATOM      8  C   UNL     1      28.498  22.907  28.037  0.00  0.00    +0.000 A 
ATOM      9  C   UNL     1      28.729  22.841  26.651  0.00  0.00    +0.000 A 
ATOM     10  C   UNL     1      27.787  23.045  25.700  0.00  0.00    +0.000 A 
ENDROOT
BRANCH   1  12
ATOM     11  C   UNL     1      25.646  23.371  23.636  0.00  0.00    +0.000 C 
ATOM     12  C   UNL     1      26.934  23.312  23.384  0.00  0.00    +0.000 C 
BRANCH  12  13
ATOM     13  N   UNL     1      27.323  23.501  21.981  0.00  0.00    +0.000 NA
BRANCH  13  14
ATOM     14  N   UNL     1      27.667  24.891  21.794  0.00  0.00    +0.000 NA
ATOM     15  C   UNL     1      28.854  25.258  21.186  0.00  0.00    +0.000 C 
ATOM     16  C   UNL     1      29.130  26.720  21.000  0.00  0.00    +0.000 C 
ATOM     17  O   UNL     1      29.735  24.499  20.792  0.00  0.00    +0.000 OA
ENDBRANCH  13  14
ENDBRANCH  12  13
ENDBRANCH   1  12
BRANCH  10  18
ATOM     18  O   UNL     1      26.446  23.238  26.269  0.00  0.00    +0.000 OA
BRANCH  18  19
ATOM     19  C   UNL     1      26.350  24.621  26.707  0.00  0.00    +0.000 C 
ATOM     20  F   UNL     1      27.069  25.543  26.152  0.00  0.00    +0.000 F 
ATOM     21  F   UNL     1      25.616  24.800  27.815  0.00  0.00    +0.000 F 
ENDBRANCH  18  19
ENDBRANCH  10  18
TORSDOF 5
ENDMDL
