MODEL 1
REMARK VINA RESULT:      -6.1      0.000      0.000
REMARK  Name = 
REMARK  2 active torsions:
REMARK  status: ('A' for Active; 'I' for Inactive)
REMARK    1  A    between atoms: C_4  and  C_6
REMARK    2  A    between atoms: C_11  and  C_13
REMARK                            x       y       z     vdW  Elec       q    Type
REMARK                         _______ _______ _______ _____ _____    ______ ____
ROOT
ATOM      1  C   UNL     1      25.877   5.524  13.158  0.00  0.00    +0.000 C 
ATOM      2  C   UNL     1      26.004   5.617  14.647  0.00  0.00    +0.000 C 
ATOM      3  C   UNL     1      26.437   6.614  15.382  0.00  0.00    +0.000 C 
ATOM      4  C   UNL     1      26.395   6.269  16.823  0.00  0.00    +0.000 C 
ATOM      5  O   UNL     1      25.587   7.201  17.447  0.00  0.00    +0.000 OA
ATOM      6  N   UNL     1      25.841   4.953  16.865  0.00  0.00    +0.000 N 
ATOM      7  C   UNL     1      25.523   4.125  17.985  0.00  0.00    +0.000 C 
ATOM      8  O   UNL     1      25.719   4.520  19.174  0.00  0.00    +0.000 OA
ATOM      9  N   UNL     1      25.629   4.570  15.516  0.00  0.00    +0.000 NA
ENDROOT
BRANCH   7  10
ATOM     10  C   UNL     1      24.966   2.802  17.749  0.00  0.00    +0.000 A 
ATOM     11  C   UNL     1      25.788   1.760  17.385  0.00  0.00    +0.000 A 
ATOM     12  C   UNL     1      25.275   0.489  17.156  0.00  0.00    +0.000 A 
ATOM     13  C   UNL     1      23.931   0.282  17.297  0.00  0.00    +0.000 A 
ATOM     14  C   UNL     1      23.071   1.299  17.660  0.00  0.00    +0.000 A 
ATOM     15  C   UNL     1      23.617   2.544  17.879  0.00  0.00    +0.000 A 
ATOM     16  O   UNL     1      22.765   3.580  18.245  0.00  0.00    +0.000 OA
ENDBRANCH   7  10
BRANCH   4  17
ATOM     17  C   UNL     1      27.821   6.357  17.331  0.00  0.00    +0.000 C 
ATOM     18  C   UNL     1      28.511   5.026  17.393  0.00  0.00    +0.000 C 
ATOM     19  C   UNL     1      27.869   6.986  18.691  0.00  0.00    +0.000 C 
ATOM     20  C   UNL     1      28.647   7.241  16.403  0.00  0.00    +0.000 C 
ENDBRANCH   4  17
TORSDOF 2
ENDMDL
MODEL 2
REMARK VINA RESULT:      -5.9     20.387     21.879
REMARK  Name = 
REMARK  2 active torsions:
REMARK  status: ('A' for Active; 'I' for Inactive)
REMARK    1  A    between atoms: C_4  and  C_6
REMARK    2  A    between atoms: C_11  and  C_13
REMARK                            x       y       z     vdW  Elec       q    Type
REMARK                         _______ _______ _______ _____ _____    ______ ____
ROOT
ATOM      1  C   UNL     1      31.274  25.829  25.373  0.00  0.00    +0.000 C 
ATOM      2  C   UNL     1      30.072  25.091  24.870  0.00  0.00    +0.000 C 
ATOM      3  C   UNL     1      29.809  24.666  23.657  0.00  0.00    +0.000 C 
ATOM      4  C   UNL     1      28.494  23.983  23.609  0.00  0.00    +0.000 C 
ATOM      5  O   UNL     1      28.713  22.695  23.156  0.00  0.00    +0.000 OA
ATOM      6  N   UNL     1      28.019  24.013  24.955  0.00  0.00    +0.000 N 
ATOM      7  C   UNL     1      26.827  23.468  25.522  0.00  0.00    +0.000 C 
ATOM      8  O   UNL     1      25.989  22.834  24.812  0.00  0.00    +0.000 OA
ATOM      9  N   UNL     1      28.998  24.715  25.703  0.00  0.00    +0.000 NA
ENDROOT
BRANCH   7  10
ATOM     10  C   UNL     1      26.574  23.647  26.943  0.00  0.00    +0.000 A 
ATOM     11  C   UNL     1      25.707  24.626  27.373  0.00  0.00    +0.000 A 
ATOM     12  C   UNL     1      25.452  24.813  28.727  0.00  0.00    +0.000 A 
ATOM     13  C   UNL     1      26.079  24.007  29.636  0.00  0.00    +0.000 A 
ATOM     14  C   UNL     1      26.955  23.013  29.248  0.00  0.00    +0.000 A 
ATOM     15  C   UNL     1      27.181  22.858  27.899  0.00  0.00    +0.000 A 
ATOM     16  O   UNL     1      28.062  21.863  27.490  0.00  0.00    +0.000 OA
ENDBRANCH   7  10
BRANCH   4  17
ATOM     17  C   UNL     1      27.636  24.764  22.632  0.00  0.00    +0.000 C 
ATOM     18  C   UNL     1      26.853  25.866  23.283  0.00  0.00    +0.000 C 
ATOM     19  C   UNL     1      26.682  23.859  21.911  0.00  0.00    +0.000 C 
ATOM     20  C   UNL     1      28.519  25.414  21.572  0.00  0.00    +0.000 C 
ENDBRANCH   4  17
TORSDOF 2
ENDMDL
MODEL 3
REMARK VINA RESULT:      -5.7     14.216     15.703
REMARK  Name = 
REMARK  2 active torsions:
REMARK  status: ('A' for Active; 'I' for Inactive)
REMARK    1  A    between atoms: C_4  and  C_6
REMARK    2  A    between atoms: C_11  and  C_13
REMARK                            x       y       z     vdW  Elec       q    Type
REMARK                         _______ _______ _______ _____ _____    ______ ____
ROOT
ATOM      1  C   UNL     1      19.876 -10.673  21.649  0.00  0.00    +0.000 C 
ATOM      2  C   UNL     1      20.773  -9.698  22.345  0.00  0.00    +0.000 C 
ATOM      3  C   UNL     1      21.946  -9.241  21.975  0.00  0.00    +0.000 C 
ATOM      4  C   UNL     1      22.484  -8.288  22.976  0.00  0.00    +0.000 C 
ATOM      5  O   UNL     1      22.697  -7.085  22.329  0.00  0.00    +0.000 OA
ATOM      6  N   UNL     1      21.466  -8.197  23.974  0.00  0.00    +0.000 N 
ATOM      7  C   UNL     1      21.407  -7.397  25.156  0.00  0.00    +0.000 C 
ATOM      8  O   UNL     1      22.348  -6.605  25.464  0.00  0.00    +0.000 OA
ATOM      9  N   UNL     1      20.437  -9.086  23.571  0.00  0.00    +0.000 NA
ENDROOT
BRANCH   7  10
ATOM     10  C   UNL     1      20.241  -7.499  26.020  0.00  0.00    +0.000 A 
ATOM     11  C   UNL     1      19.976  -8.673  26.688  0.00  0.00    +0.000 A 
ATOM     12  C   UNL     1      18.867  -8.790  27.519  0.00  0.00    +0.000 A 
ATOM     13  C   UNL     1      18.033  -7.716  27.665  0.00  0.00    +0.000 A 
ATOM     14  C   UNL     1      18.262  -6.521  27.014  0.00  0.00    +0.000 A 
ATOM     15  C   UNL     1      19.371  -6.444  26.201  0.00  0.00    +0.000 A 
ATOM     16  O   UNL     1      19.616  -5.247  25.537  0.00  0.00    +0.000 OA
ENDBRANCH   7  10
BRANCH   4  17
ATOM     17  C   UNL     1      23.789  -8.876  23.475  0.00  0.00    +0.000 C 
ATOM     18  C   UNL     1      23.644  -9.630  24.765  0.00  0.00    +0.000 C 
ATOM     19  C   UNL     1      24.825  -7.807  23.659  0.00  0.00    +0.000 C 
ATOM     20  C   UNL     1      24.342  -9.858  22.448  0.00  0.00    +0.000 C 
ENDBRANCH   4  17
TORSDOF 2
ENDMDL
MODEL 4
REMARK VINA RESULT:      -5.6      0.865      1.761
REMARK  Name = 
REMARK  2 active torsions:
REMARK  status: ('A' for Active; 'I' for Inactive)
REMARK    1  A    between atoms: C_4  and  C_6
REMARK    2  A    between atoms: C_11  and  C_13
REMARK                            x       y       z     vdW  Elec       q    Type
REMARK                         _______ _______ _______ _____ _____    ______ ____
ROOT
ATOM      1  C   UNL     1      25.606   5.399  13.127  0.00  0.00    +0.000 C 
ATOM      2  C   UNL     1      25.783   5.483  14.612  0.00  0.00    +0.000 C 
ATOM      3  C   UNL     1      26.293   6.454  15.331  0.00  0.00    +0.000 C 
ATOM      4  C   UNL     1      26.276   6.110  16.773  0.00  0.00    +0.000 C 
ATOM      5  O   UNL     1      25.540   7.085  17.422  0.00  0.00    +0.000 OA
ATOM      6  N   UNL     1      25.651   4.827  16.834  0.00  0.00    +0.000 N 
ATOM      7  C   UNL     1      25.323   4.017  17.963  0.00  0.00    +0.000 C 
ATOM      8  O   UNL     1      25.576   4.400  19.145  0.00  0.00    +0.000 OA
ATOM      9  N   UNL     1      25.377   4.458  15.492  0.00  0.00    +0.000 NA
ENDROOT
BRANCH   7  10
ATOM     10  C   UNL     1      24.686   2.727  17.746  0.00  0.00    +0.000 A 
ATOM     11  C   UNL     1      23.331   2.584  17.941  0.00  0.00    +0.000 A 
ATOM     12  C   UNL     1      22.703   1.360  17.738  0.00  0.00    +0.000 A 
ATOM     13  C   UNL     1      23.454   0.289  17.340  0.00  0.00    +0.000 A 
ATOM     14  C   UNL     1      24.815   0.390  17.132  0.00  0.00    +0.000 A 
ATOM     15  C   UNL     1      25.400   1.618  17.343  0.00  0.00    +0.000 A 
ATOM     16  O   UNL     1      26.770   1.737  17.139  0.00  0.00    +0.000 OA
ENDBRANCH   7  10
BRANCH   4  17
ATOM     17  C   UNL     1      27.719   6.119  17.238  0.00  0.00    +0.000 C 
ATOM     18  C   UNL     1      27.880   6.556  18.664  0.00  0.00    +0.000 C 
ATOM     19  C   UNL     1      28.559   7.005  16.367  0.00  0.00    +0.000 C 
ATOM     20  C   UNL     1      28.304   4.714  17.136  0.00  0.00    +0.000 C 
ENDBRANCH   4  17
TORSDOF 2
ENDMDL
MODEL 5
REMARK VINA RESULT:      -5.5     20.681     22.743
REMARK  Name = 
REMARK  2 active torsions:
REMARK  status: ('A' for Active; 'I' for Inactive)
REMARK    1  A    between atoms: C_4  and  C_6
REMARK    2  A    between atoms: C_11  and  C_13
REMARK                            x       y       z     vdW  Elec       q    Type
REMARK                         _______ _______ _______ _____ _____    ______ ____
ROOT
ATOM      1  C   UNL     1      34.262  24.695  25.045  0.00  0.00    +0.000 C 
ATOM      2  C   UNL     1      32.814  24.649  25.423  0.00  0.00    +0.000 C 
ATOM      3  C   UNL     1      32.263  24.261  26.549  0.00  0.00    +0.000 C 
ATOM      4  C   UNL     1      30.787  24.380  26.486  0.00  0.00    +0.000 C 
ATOM      5  O   UNL     1      30.397  25.224  27.510  0.00  0.00    +0.000 OA
ATOM      6  N   UNL     1      30.522  24.931  25.195  0.00  0.00    +0.000 N 
ATOM      7  C   UNL     1      29.282  25.306  24.593  0.00  0.00    +0.000 C 
ATOM      8  O   UNL     1      28.182  25.177  25.212  0.00  0.00    +0.000 OA
ATOM      9  N   UNL     1      31.781  25.068  24.558  0.00  0.00    +0.000 NA
ENDROOT
BRANCH   7  10
ATOM     10  C   UNL     1      29.288  25.845  23.242  0.00  0.00    +0.000 A 
ATOM     11  C   UNL     1      29.267  27.207  23.042  0.00  0.00    +0.000 A 
ATOM     12  C   UNL     1      29.272  27.743  21.759  0.00  0.00    +0.000 A 
ATOM     13  C   UNL     1      29.298  26.893  20.687  0.00  0.00    +0.000 A 
ATOM     14  C   UNL     1      29.320  25.522  20.844  0.00  0.00    +0.000 A 
ATOM     15  C   UNL     1      29.315  25.030  22.129  0.00  0.00    +0.000 A 
ATOM     16  O   UNL     1      29.336  23.651  22.305  0.00  0.00    +0.000 OA
ENDBRANCH   7  10
BRANCH   4  17
ATOM     17  C   UNL     1      30.230  22.984  26.690  0.00  0.00    +0.000 C 
ATOM     18  C   UNL     1      30.091  22.210  25.412  0.00  0.00    +0.000 C 
ATOM     19  C   UNL     1      28.895  23.031  27.370  0.00  0.00    +0.000 C 
ATOM     20  C   UNL     1      31.161  22.183  27.594  0.00  0.00    +0.000 C 
ENDBRANCH   4  17
TORSDOF 2
ENDMDL
MODEL 6
REMARK VINA RESULT:      -5.4     15.521     18.927
REMARK  Name = 
REMARK  2 active torsions:
REMARK  status: ('A' for Active; 'I' for Inactive)
REMARK    1  A    between atoms: C_4  and  C_6
REMARK    2  A    between atoms: C_11  and  C_13
REMARK                            x       y       z     vdW  Elec       q    Type
REMARK                         _______ _______ _______ _____ _____    ______ ____
ROOT
ATOM      1  C   UNL     1      16.734 -10.258  22.062  0.00  0.00    +0.000 C 
ATOM      2  C   UNL     1      16.754 -10.330  23.557  0.00  0.00    +0.000 C 
ATOM      3  C   UNL     1      16.252 -11.248  24.349  0.00  0.00    +0.000 C 
ATOM      4  C   UNL     1      16.502 -10.914  25.772  0.00  0.00    +0.000 C 
ATOM      5  O   UNL     1      17.215 -11.963  26.323  0.00  0.00    +0.000 OA
ATOM      6  N   UNL     1      17.256  -9.702  25.734  0.00  0.00    +0.000 N 
ATOM      7  C   UNL     1      17.818  -8.935  26.800  0.00  0.00    +0.000 C 
ATOM      8  O   UNL     1      17.692  -9.296  28.009  0.00  0.00    +0.000 OA
ATOM      9  N   UNL     1      17.380  -9.357  24.364  0.00  0.00    +0.000 NA
ENDROOT
BRANCH   7  10
ATOM     10  C   UNL     1      18.548  -7.717  26.485  0.00  0.00    +0.000 A 
ATOM     11  C   UNL     1      19.813  -7.789  25.947  0.00  0.00    +0.000 A 
ATOM     12  C   UNL     1      20.527  -6.636  25.638  0.00  0.00    +0.000 A 
ATOM     13  C   UNL     1      19.954  -5.418  25.879  0.00  0.00    +0.000 A 
ATOM     14  C   UNL     1      18.688  -5.302  26.417  0.00  0.00    +0.000 A 
ATOM     15  C   UNL     1      18.013  -6.466  26.709  0.00  0.00    +0.000 A 
ATOM     16  O   UNL     1      16.737  -6.366  27.252  0.00  0.00    +0.000 OA
ENDBRANCH   7  10
BRANCH   4  17
ATOM     17  C   UNL     1      15.142 -10.776  26.430  0.00  0.00    +0.000 C 
ATOM     18  C   UNL     1      14.582  -9.387  26.346  0.00  0.00    +0.000 C 
ATOM     19  C   UNL     1      15.198 -11.185  27.871  0.00  0.00    +0.000 C 
ATOM     20  C   UNL     1      14.140 -11.700  25.746  0.00  0.00    +0.000 C 
ENDBRANCH   4  17
TORSDOF 2
ENDMDL
MODEL 7
REMARK VINA RESULT:      -5.4     20.819     22.002
REMARK  Name = 
REMARK  2 active torsions:
REMARK  status: ('A' for Active; 'I' for Inactive)
REMARK    1  A    between atoms: C_4  and  C_6
REMARK    2  A    between atoms: C_11  and  C_13
REMARK                            x       y       z     vdW  Elec       q    Type
REMARK                         _______ _______ _______ _____ _____    ______ ____
ROOT
ATOM      1  C   UNL     1      24.933  24.966  27.406  0.00  0.00    +0.000 C 
ATOM      2  C   UNL     1      26.204  24.264  27.041  0.00  0.00    +0.000 C 
ATOM      3  C   UNL     1      26.869  23.352  27.711  0.00  0.00    +0.000 C 
ATOM      4  C   UNL     1      28.084  22.932  26.972  0.00  0.00    +0.000 C 
ATOM      5  O   UNL     1      27.989  21.569  26.761  0.00  0.00    +0.000 OA
ATOM      6  N   UNL     1      28.043  23.676  25.753  0.00  0.00    +0.000 N 
ATOM      7  C   UNL     1      28.927  23.653  24.632  0.00  0.00    +0.000 C 
ATOM      8  O   UNL     1      29.938  22.887  24.605  0.00  0.00    +0.000 OA
ATOM      9  N   UNL     1      26.890  24.498  25.831  0.00  0.00    +0.000 NA
ENDROOT
BRANCH   7  10
ATOM     10  C   UNL     1      28.658  24.529  23.502  0.00  0.00    +0.000 A 
ATOM     11  C   UNL     1      29.374  25.694  23.345  0.00  0.00    +0.000 A 
ATOM     12  C   UNL     1      29.133  26.544  22.272  0.00  0.00    +0.000 A 
ATOM     13  C   UNL     1      28.166  26.207  21.365  0.00  0.00    +0.000 A 
ATOM     14  C   UNL     1      27.426  25.048  21.485  0.00  0.00    +0.000 A 
ATOM     15  C   UNL     1      27.694  24.232  22.561  0.00  0.00    +0.000 A 
ATOM     16  O   UNL     1      26.958  23.061  22.697  0.00  0.00    +0.000 OA
ENDBRANCH   7  10
BRANCH   4  17
ATOM     17  C   UNL     1      29.267  23.265  27.860  0.00  0.00    +0.000 C 
ATOM     18  C   UNL     1      29.774  24.664  27.672  0.00  0.00    +0.000 C 
ATOM     19  C   UNL     1      30.399  22.310  27.628  0.00  0.00    +0.000 C 
ATOM     20  C   UNL     1      28.867  23.131  29.326  0.00  0.00    +0.000 C 
ENDBRANCH   4  17
TORSDOF 2
ENDMDL
MODEL 8
REMARK VINA RESULT:      -5.3      1.505      5.574
REMARK  Name = 
REMARK  2 active torsions:
REMARK  status: ('A' for Active; 'I' for Inactive)
REMARK    1  A    between atoms: C_4  and  C_6
REMARK    2  A    between atoms: C_11  and  C_13
REMARK                            x       y       z     vdW  Elec       q    Type
REMARK                         _______ _______ _______ _____ _____    ______ ____
ROOT
ATOM      1  C   UNL     1      27.463   0.471  16.472  0.00  0.00    +0.000 C 
ATOM      2  C   UNL     1      26.382   1.395  16.943  0.00  0.00    +0.000 C 
ATOM      3  C   UNL     1      25.202   1.105  17.439  0.00  0.00    +0.000 C 
ATOM      4  C   UNL     1      24.449   2.338  17.771  0.00  0.00    +0.000 C 
ATOM      5  O   UNL     1      24.148   2.288  19.120  0.00  0.00    +0.000 OA
ATOM      6  N   UNL     1      25.343   3.406  17.452  0.00  0.00    +0.000 N 
ATOM      7  C   UNL     1      25.180   4.817  17.604  0.00  0.00    +0.000 C 
ATOM      8  O   UNL     1      24.118   5.309  18.093  0.00  0.00    +0.000 OA
ATOM      9  N   UNL     1      26.512   2.799  16.929  0.00  0.00    +0.000 NA
ENDROOT
BRANCH   7  10
ATOM     10  C   UNL     1      26.258   5.701  17.188  0.00  0.00    +0.000 A 
ATOM     11  C   UNL     1      26.269   6.226  15.916  0.00  0.00    +0.000 A 
ATOM     12  C   UNL     1      27.289   7.073  15.499  0.00  0.00    +0.000 A 
ATOM     13  C   UNL     1      28.293   7.381  16.375  0.00  0.00    +0.000 A 
ATOM     14  C   UNL     1      28.320   6.877  17.660  0.00  0.00    +0.000 A 
ATOM     15  C   UNL     1      27.291   6.042  18.036  0.00  0.00    +0.000 A 
ATOM     16  O   UNL     1      27.303   5.525  19.326  0.00  0.00    +0.000 OA
ENDBRANCH   7  10
BRANCH   4  17
ATOM     17  C   UNL     1      23.188   2.314  16.930  0.00  0.00    +0.000 C 
ATOM     18  C   UNL     1      21.996   2.895  17.635  0.00  0.00    +0.000 C 
ATOM     19  C   UNL     1      22.856   0.917  16.498  0.00  0.00    +0.000 C 
ATOM     20  C   UNL     1      23.395   3.134  15.662  0.00  0.00    +0.000 C 
ENDBRANCH   4  17
TORSDOF 2
ENDMDL
MODEL 9
REMARK VINA RESULT:      -5.2     20.548     22.408
REMARK  Name = 
REMARK  2 active torsions:
REMARK  status: ('A' for Active; 'I' for Inactive)
REMARK    1  A    between atoms: C_4  and  C_6
REMARK    2  A    between atoms: C_11  and  C_13
REMARK                            x       y       z     vdW  Elec       q    Type
REMARK                         _______ _______ _______ _____ _____    ______ ____
ROOT
ATOM      1  C   UNL     1      28.584  27.628  22.445  0.00  0.00    +0.000 C 
ATOM      2  C   UNL     1      28.434  26.292  23.104  0.00  0.00    +0.000 C 
ATOM      3  C   UNL     1      27.402  25.482  23.110  0.00  0.00    +0.000 C 
ATOM      4  C   UNL     1      27.692  24.259  23.897  0.00  0.00    +0.000 C 
ATOM      5  O   UNL     1      27.530  23.177  23.052  0.00  0.00    +0.000 OA
ATOM      6  N   UNL     1      29.044  24.417  24.328  0.00  0.00    +0.000 N 
ATOM      7  C   UNL     1      29.877  23.535  25.082  0.00  0.00    +0.000 C 
ATOM      8  O   UNL     1      29.455  22.408  25.480  0.00  0.00    +0.000 OA
ATOM      9  N   UNL     1      29.468  25.681  23.844  0.00  0.00    +0.000 NA
ENDROOT
BRANCH   7  10
ATOM     10  C   UNL     1      31.237  23.946  25.397  0.00  0.00    +0.000 A 
ATOM     11  C   UNL     1      32.251  23.732  24.492  0.00  0.00    +0.000 A 
ATOM     12  C   UNL     1      33.557  24.117  24.774  0.00  0.00    +0.000 A 
ATOM     13  C   UNL     1      33.826  24.715  25.973  0.00  0.00    +0.000 A 
ATOM     14  C   UNL     1      32.838  24.948  26.909  0.00  0.00    +0.000 A 
ATOM     15  C   UNL     1      31.558  24.553  26.593  0.00  0.00    +0.000 A 
ATOM     16  O   UNL     1      30.552  24.780  27.525  0.00  0.00    +0.000 OA
ENDBRANCH   7  10
BRANCH   4  17
ATOM     17  C   UNL     1      26.682  24.223  25.028  0.00  0.00    +0.000 C 
ATOM     18  C   UNL     1      27.191  24.842  26.296  0.00  0.00    +0.000 C 
ATOM     19  C   UNL     1      26.252  22.817  25.319  0.00  0.00    +0.000 C 
ATOM     20  C   UNL     1      25.430  24.996  24.628  0.00  0.00    +0.000 C 
ENDBRANCH   4  17
TORSDOF 2
ENDMDL
MODEL 10
REMARK VINA RESULT:      -5.2     20.692     22.872
REMARK  Name = 
REMARK  2 active torsions:
REMARK  status: ('A' for Active; 'I' for Inactive)
REMARK    1  A    between atoms: C_4  and  C_6
REMARK    2  A    between atoms: C_11  and  C_13
REMARK                            x       y       z     vdW  Elec       q    Type
REMARK                         _______ _______ _______ _____ _____    ______ ____
ROOT
ATOM      1  C   UNL     1      30.874  27.085  26.725  0.00  0.00    +0.000 C 
ATOM      2  C   UNL     1      29.780  26.275  26.102  0.00  0.00    +0.000 C 
ATOM      3  C   UNL     1      28.958  25.421  26.666  0.00  0.00    +0.000 C 
ATOM      4  C   UNL     1      28.030  24.840  25.666  0.00  0.00    +0.000 C 
ATOM      5  O   UNL     1      26.743  25.134  26.079  0.00  0.00    +0.000 OA
ATOM      6  N   UNL     1      28.368  25.485  24.438  0.00  0.00    +0.000 N 
ATOM      7  C   UNL     1      27.782  25.360  23.142  0.00  0.00    +0.000 C 
ATOM      8  O   UNL     1      26.798  24.587  22.935  0.00  0.00    +0.000 OA
ATOM      9  N   UNL     1      29.457  26.346  24.731  0.00  0.00    +0.000 NA
ENDROOT
BRANCH   7  10
ATOM     10  C   UNL     1      28.329  26.138  22.041  0.00  0.00    +0.000 A 
ATOM     11  C   UNL     1      28.005  27.469  21.907  0.00  0.00    +0.000 A 
ATOM     12  C   UNL     1      28.517  28.229  20.862  0.00  0.00    +0.000 A 
ATOM     13  C   UNL     1      29.355  27.634  19.959  0.00  0.00    +0.000 A 
ATOM     14  C   UNL     1      29.705  26.303  20.057  0.00  0.00    +0.000 A 
ATOM     15  C   UNL     1      29.178  25.583  21.105  0.00  0.00    +0.000 A 
ATOM     16  O   UNL     1      29.520  24.241  21.219  0.00  0.00    +0.000 OA
ENDBRANCH   7  10
BRANCH   4  17
ATOM     17  C   UNL     1      28.273  23.343  25.667  0.00  0.00    +0.000 C 
ATOM     18  C   UNL     1      29.240  22.901  24.609  0.00  0.00    +0.000 C 
ATOM     19  C   UNL     1      26.990  22.589  25.490  0.00  0.00    +0.000 C 
ATOM     20  C   UNL     1      28.858  22.915  27.009  0.00  0.00    +0.000 C 
ENDBRANCH   4  17
TORSDOF 2
ENDMDL
