MODEL 1
REMARK VINA RESULT:      -6.1      0.000      0.000
REMARK  Name = 
REMARK  3 active torsions:
REMARK  status: ('A' for Active; 'I' for Inactive)
REMARK    1  A    between atoms: S_2  and  N_4
REMARK    2  A    between atoms: S_2  and  C_14
REMARK    3  A    between atoms: N_7  and  C_8
REMARK                            x       y       z     vdW  Elec       q    Type
REMARK                         _______ _______ _______ _____ _____    ______ ____
ROOT
ATOM      1  N   UNL     1      17.147  10.269  38.441  0.00  0.00    +0.000 NA
ATOM      2  C   UNL     1      18.311   9.792  38.701  0.00  0.00    +0.000 C 
ATOM      3  S   UNL     1      19.597  10.001  37.484  0.00  0.00    +0.000 S 
ATOM      4  N   UNL     1      18.632   9.110  39.900  0.00  0.00    +0.000 NA
ENDROOT
BRANCH   4   5
ATOM      5  C   UNL     1      17.666   8.894  40.905  0.00  0.00    +0.000 C 
ATOM      6  C   UNL     1      17.941   9.543  42.221  0.00  0.00    +0.000 C 
ATOM      7  C   UNL     1      16.845   9.447  43.209  0.00  0.00    +0.000 C 
ATOM      8  C   UNL     1      16.048   8.178  43.153  0.00  0.00    +0.000 C 
ATOM      9  C   UNL     1      15.768   7.684  41.777  0.00  0.00    +0.000 C 
ATOM     10  C   UNL     1      17.080   7.539  40.994  0.00  0.00    +0.000 C 
ENDBRANCH   4   5
BRANCH   1  12
ATOM     11  O   UNL     1      17.644  12.333  36.827  0.00  0.00    +0.000 OA
ATOM     12  S   UNL     1      16.777  11.097  36.972  0.00  0.00    +0.000 S 
ATOM     13  O   UNL     1      17.019  10.222  35.768  0.00  0.00    +0.000 OA
BRANCH  12  14
ATOM     14  C   UNL     1      15.098  11.596  36.938  0.00  0.00    +0.000 A 
ATOM     15  C   UNL     1      14.615  12.533  36.051  0.00  0.00    +0.000 A 
ATOM     16  C   UNL     1      13.289  12.914  36.038  0.00  0.00    +0.000 A 
ATOM     17  C   UNL     1      12.403  12.355  36.929  0.00  0.00    +0.000 A 
ATOM     18  C   UNL     1      12.869  11.415  37.824  0.00  0.00    +0.000 A 
ATOM     19  C   UNL     1      14.196  11.046  37.824  0.00  0.00    +0.000 A 
ENDBRANCH  12  14
ENDBRANCH   1  12
TORSDOF 3
ENDMDL
MODEL 2
REMARK VINA RESULT:      -6.0     20.816     23.007
REMARK  Name = 
REMARK  3 active torsions:
REMARK  status: ('A' for Active; 'I' for Inactive)
REMARK    1  A    between atoms: S_2  and  N_4
REMARK    2  A    between atoms: S_2  and  C_14
REMARK    3  A    between atoms: N_7  and  C_8
REMARK                            x       y       z     vdW  Elec       q    Type
REMARK                         _______ _______ _______ _____ _____    ______ ____
ROOT
ATOM      1  N   UNL     1      33.257  -3.368  34.105  0.00  0.00    +0.000 NA
ATOM      2  C   UNL     1      32.936  -4.539  34.524  0.00  0.00    +0.000 C 
ATOM      3  S   UNL     1      32.324  -4.698  36.191  0.00  0.00    +0.000 S 
ATOM      4  N   UNL     1      33.039  -5.712  33.737  0.00  0.00    +0.000 NA
ENDROOT
BRANCH   4   5
ATOM      5  C   UNL     1      33.526  -5.670  32.414  0.00  0.00    +0.000 C 
ATOM      6  C   UNL     1      32.489  -5.695  31.339  0.00  0.00    +0.000 C 
ATOM      7  C   UNL     1      33.002  -5.483  29.968  0.00  0.00    +0.000 C 
ATOM      8  C   UNL     1      34.366  -6.048  29.706  0.00  0.00    +0.000 C 
ATOM      9  C   UNL     1      35.331  -5.880  30.825  0.00  0.00    +0.000 C 
ATOM     10  C   UNL     1      34.741  -6.459  32.119  0.00  0.00    +0.000 C 
ENDBRANCH   4   5
BRANCH   1  12
ATOM     11  O   UNL     1      31.721  -1.824  35.644  0.00  0.00    +0.000 OA
ATOM     12  S   UNL     1      33.124  -1.951  35.082  0.00  0.00    +0.000 S 
ATOM     13  O   UNL     1      34.083  -1.989  36.245  0.00  0.00    +0.000 OA
BRANCH  12  14
ATOM     14  C   UNL     1      33.476  -0.510  34.150  0.00  0.00    +0.000 A 
ATOM     15  C   UNL     1      33.106   0.753  34.558  0.00  0.00    +0.000 A 
ATOM     16  C   UNL     1      33.391   1.877  33.811  0.00  0.00    +0.000 A 
ATOM     17  C   UNL     1      34.066   1.759  32.619  0.00  0.00    +0.000 A 
ATOM     18  C   UNL     1      34.446   0.502  32.195  0.00  0.00    +0.000 A 
ATOM     19  C   UNL     1      34.152  -0.610  32.953  0.00  0.00    +0.000 A 
ENDBRANCH  12  14
ENDBRANCH   1  12
TORSDOF 3
ENDMDL
MODEL 3
REMARK VINA RESULT:      -5.7     21.271     23.066
REMARK  Name = 
REMARK  3 active torsions:
REMARK  status: ('A' for Active; 'I' for Inactive)
REMARK    1  A    between atoms: S_2  and  N_4
REMARK    2  A    between atoms: S_2  and  C_14
REMARK    3  A    between atoms: N_7  and  C_8
REMARK                            x       y       z     vdW  Elec       q    Type
REMARK                         _______ _______ _______ _____ _____    ______ ____
ROOT
ATOM      1  N   UNL     1      25.703  25.034  24.290  0.00  0.00    +0.000 NA
ATOM      2  C   UNL     1      26.118  26.183  24.688  0.00  0.00    +0.000 C 
ATOM      3  S   UNL     1      27.783  26.666  24.273  0.00  0.00    +0.000 S 
ATOM      4  N   UNL     1      25.327  27.089  25.438  0.00  0.00    +0.000 NA
ENDROOT
BRANCH   4   5
ATOM      5  C   UNL     1      24.006  26.774  25.815  0.00  0.00    +0.000 C 
ATOM      6  C   UNL     1      22.932  27.282  24.910  0.00  0.00    +0.000 C 
ATOM      7  C   UNL     1      21.568  26.805  25.225  0.00  0.00    +0.000 C 
ATOM      8  C   UNL     1      21.285  26.609  26.685  0.00  0.00    +0.000 C 
ATOM      9  C   UNL     1      22.408  26.014  27.458  0.00  0.00    +0.000 C 
ATOM     10  C   UNL     1      23.683  26.845  27.256  0.00  0.00    +0.000 C 
ENDBRANCH   4   5
BRANCH   1  12
ATOM     11  O   UNL     1      25.849  22.794  22.851  0.00  0.00    +0.000 OA
ATOM     12  S   UNL     1      26.683  23.946  23.378  0.00  0.00    +0.000 S 
ATOM     13  O   UNL     1      27.319  24.632  22.195  0.00  0.00    +0.000 OA
BRANCH  12  14
ATOM     14  C   UNL     1      27.971  23.285  24.365  0.00  0.00    +0.000 A 
ATOM     15  C   UNL     1      27.789  22.910  25.678  0.00  0.00    +0.000 A 
ATOM     16  C   UNL     1      28.816  22.391  26.441  0.00  0.00    +0.000 A 
ATOM     17  C   UNL     1      30.067  22.233  25.895  0.00  0.00    +0.000 A 
ATOM     18  C   UNL     1      30.268  22.602  24.581  0.00  0.00    +0.000 A 
ATOM     19  C   UNL     1      29.232  23.119  23.834  0.00  0.00    +0.000 A 
ENDBRANCH  12  14
ENDBRANCH   1  12
TORSDOF 3
ENDMDL
MODEL 4
REMARK VINA RESULT:      -5.7     32.336     34.502
REMARK  Name = 
REMARK  3 active torsions:
REMARK  status: ('A' for Active; 'I' for Inactive)
REMARK    1  A    between atoms: S_2  and  N_4
REMARK    2  A    between atoms: S_2  and  C_14
REMARK    3  A    between atoms: N_7  and  C_8
REMARK                            x       y       z     vdW  Elec       q    Type
REMARK                         _______ _______ _______ _____ _____    ______ ____
ROOT
ATOM      1  N   UNL     1      32.317  21.726  10.764  0.00  0.00    +0.000 NA
ATOM      2  C   UNL     1      32.445  22.444   9.707  0.00  0.00    +0.000 C 
ATOM      3  S   UNL     1      31.022  22.652   8.653  0.00  0.00    +0.000 S 
ATOM      4  N   UNL     1      33.653  23.081   9.330  0.00  0.00    +0.000 NA
ENDROOT
BRANCH   4   5
ATOM      5  C   UNL     1      34.824  22.953  10.104  0.00  0.00    +0.000 C 
ATOM      6  C   UNL     1      35.638  24.196  10.262  0.00  0.00    +0.000 C 
ATOM      7  C   UNL     1      36.769  24.089  11.209  0.00  0.00    +0.000 C 
ATOM      8  C   UNL     1      37.437  22.747  11.252  0.00  0.00    +0.000 C 
ATOM      9  C   UNL     1      36.505  21.590  11.174  0.00  0.00    +0.000 C 
ATOM     10  C   UNL     1      35.614  21.716   9.930  0.00  0.00    +0.000 C 
ENDBRANCH   4   5
BRANCH   1  12
ATOM     11  O   UNL     1      30.153  20.378   9.979  0.00  0.00    +0.000 OA
ATOM     12  S   UNL     1      30.835  20.958  11.204  0.00  0.00    +0.000 S 
ATOM     13  O   UNL     1      31.064  19.830  12.179  0.00  0.00    +0.000 OA
BRANCH  12  14
ATOM     14  C   UNL     1      29.737  22.097  11.956  0.00  0.00    +0.000 A 
ATOM     15  C   UNL     1      30.066  22.818  13.084  0.00  0.00    +0.000 A 
ATOM     16  C   UNL     1      29.188  23.711  13.663  0.00  0.00    +0.000 A 
ATOM     17  C   UNL     1      27.941  23.904  13.117  0.00  0.00    +0.000 A 
ATOM     18  C   UNL     1      27.595  23.191  11.988  0.00  0.00    +0.000 A 
ATOM     19  C   UNL     1      28.483  22.303  11.423  0.00  0.00    +0.000 A 
ENDBRANCH  12  14
ENDBRANCH   1  12
TORSDOF 3
ENDMDL
MODEL 5
REMARK VINA RESULT:      -5.6     23.540     24.891
REMARK  Name = 
REMARK  3 active torsions:
REMARK  status: ('A' for Active; 'I' for Inactive)
REMARK    1  A    between atoms: S_2  and  N_4
REMARK    2  A    between atoms: S_2  and  C_14
REMARK    3  A    between atoms: N_7  and  C_8
REMARK                            x       y       z     vdW  Elec       q    Type
REMARK                         _______ _______ _______ _____ _____    ______ ____
ROOT
ATOM      1  N   UNL     1      22.137  -7.673  23.180  0.00  0.00    +0.000 NA
ATOM      2  C   UNL     1      23.124  -8.091  22.474  0.00  0.00    +0.000 C 
ATOM      3  S   UNL     1      24.649  -8.488  23.309  0.00  0.00    +0.000 S 
ATOM      4  N   UNL     1      23.072  -8.256  21.067  0.00  0.00    +0.000 NA
ENDROOT
BRANCH   4   5
ATOM      5  C   UNL     1      21.906  -7.951  20.334  0.00  0.00    +0.000 C 
ATOM      6  C   UNL     1      20.967  -9.090  20.104  0.00  0.00    +0.000 C 
ATOM      7  C   UNL     1      19.677  -8.722  19.482  0.00  0.00    +0.000 C 
ATOM      8  C   UNL     1      19.746  -7.597  18.492  0.00  0.00    +0.000 C 
ATOM      9  C   UNL     1      20.653  -6.484  18.883  0.00  0.00    +0.000 C 
ATOM     10  C   UNL     1      22.055  -7.031  19.187  0.00  0.00    +0.000 C 
ENDBRANCH   4   5
BRANCH   1  12
ATOM     11  O   UNL     1      22.649  -8.777  25.554  0.00  0.00    +0.000 OA
ATOM     12  S   UNL     1      22.223  -7.480  24.893  0.00  0.00    +0.000 S 
ATOM     13  O   UNL     1      23.221  -6.418  25.280  0.00  0.00    +0.000 OA
BRANCH  12  14
ATOM     14  C   UNL     1      20.668  -7.013  25.552  0.00  0.00    +0.000 A 
ATOM     15  C   UNL     1      19.717  -7.930  25.943  0.00  0.00    +0.000 A 
ATOM     16  C   UNL     1      18.497  -7.545  26.460  0.00  0.00    +0.000 A 
ATOM     17  C   UNL     1      18.198  -6.210  26.598  0.00  0.00    +0.000 A 
ATOM     18  C   UNL     1      19.139  -5.277  26.211  0.00  0.00    +0.000 A 
ATOM     19  C   UNL     1      20.352  -5.679  25.697  0.00  0.00    +0.000 A 
ENDBRANCH  12  14
ENDBRANCH   1  12
TORSDOF 3
ENDMDL
MODEL 6
REMARK VINA RESULT:      -5.5      3.430      7.038
REMARK  Name = 
REMARK  3 active torsions:
REMARK  status: ('A' for Active; 'I' for Inactive)
REMARK    1  A    between atoms: S_2  and  N_4
REMARK    2  A    between atoms: S_2  and  C_14
REMARK    3  A    between atoms: N_7  and  C_8
REMARK                            x       y       z     vdW  Elec       q    Type
REMARK                         _______ _______ _______ _____ _____    ______ ____
ROOT
ATOM      1  N   UNL     1      17.509   9.012  39.651  0.00  0.00    +0.000 NA
ATOM      2  C   UNL     1      18.558   9.748  39.555  0.00  0.00    +0.000 C 
ATOM      3  S   UNL     1      19.625   9.881  40.977  0.00  0.00    +0.000 S 
ATOM      4  N   UNL     1      18.916  10.459  38.383  0.00  0.00    +0.000 NA
ENDROOT
BRANCH   4   5
ATOM      5  C   UNL     1      18.116  10.414  37.223  0.00  0.00    +0.000 C 
ATOM      6  C   UNL     1      18.646   9.583  36.100  0.00  0.00    +0.000 C 
ATOM      7  C   UNL     1      17.723   9.411  34.958  0.00  0.00    +0.000 C 
ATOM      8  C   UNL     1      16.846  10.592  34.665  0.00  0.00    +0.000 C 
ATOM      9  C   UNL     1      16.313  11.280  35.872  0.00  0.00    +0.000 C 
ATOM     10  C   UNL     1      17.467  11.675  36.805  0.00  0.00    +0.000 C 
ENDBRANCH   4   5
BRANCH   1  12
ATOM     11  O   UNL     1      17.499   8.946  42.317  0.00  0.00    +0.000 OA
ATOM     12  S   UNL     1      17.092   8.154  41.089  0.00  0.00    +0.000 S 
ATOM     13  O   UNL     1      15.608   7.905  41.174  0.00  0.00    +0.000 OA
BRANCH  12  14
ATOM     14  C   UNL     1      17.896   6.599  41.148  0.00  0.00    +0.000 A 
ATOM     15  C   UNL     1      18.791   6.183  40.186  0.00  0.00    +0.000 A 
ATOM     16  C   UNL     1      19.416   4.955  40.247  0.00  0.00    +0.000 A 
ATOM     17  C   UNL     1      19.153   4.101  41.293  0.00  0.00    +0.000 A 
ATOM     18  C   UNL     1      18.260   4.500  42.265  0.00  0.00    +0.000 A 
ATOM     19  C   UNL     1      17.645   5.730  42.188  0.00  0.00    +0.000 A 
ENDBRANCH  12  14
ENDBRANCH   1  12
TORSDOF 3
ENDMDL
MODEL 7
REMARK VINA RESULT:      -5.4     21.685     23.804
REMARK  Name = 
REMARK  3 active torsions:
REMARK  status: ('A' for Active; 'I' for Inactive)
REMARK    1  A    between atoms: S_2  and  N_4
REMARK    2  A    between atoms: S_2  and  C_14
REMARK    3  A    between atoms: N_7  and  C_8
REMARK                            x       y       z     vdW  Elec       q    Type
REMARK                         _______ _______ _______ _____ _____    ______ ____
ROOT
ATOM      1  N   UNL     1      32.187  -5.373  33.435  0.00  0.00    +0.000 NA
ATOM      2  C   UNL     1      31.728  -5.282  34.632  0.00  0.00    +0.000 C 
ATOM      3  S   UNL     1      30.558  -6.510  35.181  0.00  0.00    +0.000 S 
ATOM      4  N   UNL     1      32.100  -4.261  35.541  0.00  0.00    +0.000 NA
ENDROOT
BRANCH   4   5
ATOM      5  C   UNL     1      33.010  -3.247  35.177  0.00  0.00    +0.000 C 
ATOM      6  C   UNL     1      34.183  -3.070  36.085  0.00  0.00    +0.000 C 
ATOM      7  C   UNL     1      35.210  -2.121  35.604  0.00  0.00    +0.000 C 
ATOM      8  C   UNL     1      34.682  -0.953  34.827  0.00  0.00    +0.000 C 
ATOM      9  C   UNL     1      33.571  -1.282  33.893  0.00  0.00    +0.000 C 
ATOM     10  C   UNL     1      32.439  -1.989  34.652  0.00  0.00    +0.000 C 
ENDBRANCH   4   5
BRANCH   1  12
ATOM     11  O   UNL     1      31.995  -7.988  32.949  0.00  0.00    +0.000 OA
ATOM     12  S   UNL     1      31.719  -6.625  32.343  0.00  0.00    +0.000 S 
ATOM     13  O   UNL     1      30.249  -6.556  32.018  0.00  0.00    +0.000 OA
BRANCH  12  14
ATOM     14  C   UNL     1      32.603  -6.506  30.836  0.00  0.00    +0.000 A 
ATOM     15  C   UNL     1      32.511  -7.452  29.838  0.00  0.00    +0.000 A 
ATOM     16  C   UNL     1      33.215  -7.342  28.656  0.00  0.00    +0.000 A 
ATOM     17  C   UNL     1      34.040  -6.263  28.445  0.00  0.00    +0.000 A 
ATOM     18  C   UNL     1      34.145  -5.305  29.432  0.00  0.00    +0.000 A 
ATOM     19  C   UNL     1      33.436  -5.431  30.606  0.00  0.00    +0.000 A 
ENDBRANCH  12  14
ENDBRANCH   1  12
TORSDOF 3
ENDMDL
MODEL 8
REMARK VINA RESULT:      -5.4     22.281     23.449
REMARK  Name = 
REMARK  3 active torsions:
REMARK  status: ('A' for Active; 'I' for Inactive)
REMARK    1  A    between atoms: S_2  and  N_4
REMARK    2  A    between atoms: S_2  and  C_14
REMARK    3  A    between atoms: N_7  and  C_8
REMARK                            x       y       z     vdW  Elec       q    Type
REMARK                         _______ _______ _______ _____ _____    ______ ____
ROOT
ATOM      1  N   UNL     1      16.566  -9.555  26.856  0.00  0.00    +0.000 NA
ATOM      2  C   UNL     1      15.980 -10.685  27.027  0.00  0.00    +0.000 C 
ATOM      3  S   UNL     1      16.826 -11.939  27.970  0.00  0.00    +0.000 S 
ATOM      4  N   UNL     1      14.698 -10.993  26.507  0.00  0.00    +0.000 NA
ENDROOT
BRANCH   4   5
ATOM      5  C   UNL     1      13.971 -10.058  25.741  0.00  0.00    +0.000 C 
ATOM      6  C   UNL     1      12.825  -9.399  26.435  0.00  0.00    +0.000 C 
ATOM      7  C   UNL     1      12.178  -8.305  25.678  0.00  0.00    +0.000 C 
ATOM      8  C   UNL     1      12.142  -8.497  24.191  0.00  0.00    +0.000 C 
ATOM      9  C   UNL     1      13.382  -9.083  23.613  0.00  0.00    +0.000 C 
ATOM     10  C   UNL     1      13.721 -10.400  24.324  0.00  0.00    +0.000 C 
ENDBRANCH   4   5
BRANCH   1  12
ATOM     11  O   UNL     1      18.086  -9.166  29.013  0.00  0.00    +0.000 OA
ATOM     12  S   UNL     1      18.129  -9.202  27.498  0.00  0.00    +0.000 S 
ATOM     13  O   UNL     1      19.142 -10.242  27.091  0.00  0.00    +0.000 OA
BRANCH  12  14
ATOM     14  C   UNL     1      18.705  -7.648  26.928  0.00  0.00    +0.000 A 
ATOM     15  C   UNL     1      18.097  -6.458  27.261  0.00  0.00    +0.000 A 
ATOM     16  C   UNL     1      18.564  -5.243  26.803  0.00  0.00    +0.000 A 
ATOM     17  C   UNL     1      19.670  -5.194  25.987  0.00  0.00    +0.000 A 
ATOM     18  C   UNL     1      20.292  -6.376  25.643  0.00  0.00    +0.000 A 
ATOM     19  C   UNL     1      19.812  -7.580  26.109  0.00  0.00    +0.000 A 
ENDBRANCH  12  14
ENDBRANCH   1  12
TORSDOF 3
ENDMDL
MODEL 9
REMARK VINA RESULT:      -5.4      4.553      6.545
REMARK  Name = 
REMARK  3 active torsions:
REMARK  status: ('A' for Active; 'I' for Inactive)
REMARK    1  A    between atoms: S_2  and  N_4
REMARK    2  A    between atoms: S_2  and  C_14
REMARK    3  A    between atoms: N_7  and  C_8
REMARK                            x       y       z     vdW  Elec       q    Type
REMARK                         _______ _______ _______ _____ _____    ______ ____
ROOT
ATOM      1  N   UNL     1      19.899   8.848  39.024  0.00  0.00    +0.000 NA
ATOM      2  C   UNL     1      18.852   8.466  39.663  0.00  0.00    +0.000 C 
ATOM      3  S   UNL     1      17.437   9.549  39.685  0.00  0.00    +0.000 S 
ATOM      4  N   UNL     1      18.758   7.231  40.353  0.00  0.00    +0.000 NA
ENDROOT
BRANCH   4   5
ATOM      5  C   UNL     1      19.840   6.327  40.393  0.00  0.00    +0.000 C 
ATOM      6  C   UNL     1      19.503   4.898  40.114  0.00  0.00    +0.000 C 
ATOM      7  C   UNL     1      20.665   3.992  39.996  0.00  0.00    +0.000 C 
ATOM      8  C   UNL     1      21.826   4.328  40.883  0.00  0.00    +0.000 C 
ATOM      9  C   UNL     1      22.110   5.783  41.006  0.00  0.00    +0.000 C 
ATOM     10  C   UNL     1      20.846   6.529  41.456  0.00  0.00    +0.000 C 
ENDBRANCH   4   5
BRANCH   1  12
ATOM     11  O   UNL     1      19.000  10.393  37.045  0.00  0.00    +0.000 OA
ATOM     12  S   UNL     1      19.992  10.357  38.191  0.00  0.00    +0.000 S 
ATOM     13  O   UNL     1      19.679  11.514  39.106  0.00  0.00    +0.000 OA
BRANCH  12  14
ATOM     14  C   UNL     1      21.597  10.615  37.538  0.00  0.00    +0.000 A 
ATOM     15  C   UNL     1      22.475  11.542  38.057  0.00  0.00    +0.000 A 
ATOM     16  C   UNL     1      23.736  11.732  37.529  0.00  0.00    +0.000 A 
ATOM     17  C   UNL     1      24.151  10.985  36.452  0.00  0.00    +0.000 A 
ATOM     18  C   UNL     1      23.286  10.052  35.920  0.00  0.00    +0.000 A 
ATOM     19  C   UNL     1      22.030   9.875  36.458  0.00  0.00    +0.000 A 
ENDBRANCH  12  14
ENDBRANCH   1  12
TORSDOF 3
ENDMDL
MODEL 10
REMARK VINA RESULT:      -5.4     23.851     25.380
REMARK  Name = 
REMARK  3 active torsions:
REMARK  status: ('A' for Active; 'I' for Inactive)
REMARK    1  A    between atoms: S_2  and  N_4
REMARK    2  A    between atoms: S_2  and  C_14
REMARK    3  A    between atoms: N_7  and  C_8
REMARK                            x       y       z     vdW  Elec       q    Type
REMARK                         _______ _______ _______ _____ _____    ______ ____
ROOT
ATOM      1  N   UNL     1      25.487   2.087  17.322  0.00  0.00    +0.000 NA
ATOM      2  C   UNL     1      24.879   0.956  17.295  0.00  0.00    +0.000 C 
ATOM      3  S   UNL     1      23.097   0.955  17.344  0.00  0.00    +0.000 S 
ATOM      4  N   UNL     1      25.545  -0.293  17.229  0.00  0.00    +0.000 NA
ENDROOT
BRANCH   4   5
ATOM      5  C   UNL     1      26.953  -0.376  17.200  0.00  0.00    +0.000 C 
ATOM      6  C   UNL     1      27.581  -0.295  15.847  0.00  0.00    +0.000 C 
ATOM      7  C   UNL     1      29.057  -0.215  15.845  0.00  0.00    +0.000 C 
ATOM      8  C   UNL     1      29.736  -0.982  16.941  0.00  0.00    +0.000 C 
ATOM      9  C   UNL     1      29.054  -0.909  18.261  0.00  0.00    +0.000 C 
ATOM     10  C   UNL     1      27.588  -1.343  18.119  0.00  0.00    +0.000 C 
ENDBRANCH   4   5
BRANCH   1  12
ATOM     11  O   UNL     1      23.900   3.859  16.114  0.00  0.00    +0.000 OA
ATOM     12  S   UNL     1      24.655   3.598  17.403  0.00  0.00    +0.000 S 
ATOM     13  O   UNL     1      23.656   3.619  18.533  0.00  0.00    +0.000 OA
BRANCH  12  14
ATOM     14  C   UNL     1      25.777   4.919  17.660  0.00  0.00    +0.000 A 
ATOM     15  C   UNL     1      25.854   6.008  16.819  0.00  0.00    +0.000 A 
ATOM     16  C   UNL     1      26.744   7.039  17.037  0.00  0.00    +0.000 A 
ATOM     17  C   UNL     1      27.590   7.002  18.120  0.00  0.00    +0.000 A 
ATOM     18  C   UNL     1      27.526   5.920  18.973  0.00  0.00    +0.000 A 
ATOM     19  C   UNL     1      26.632   4.898  18.741  0.00  0.00    +0.000 A 
ENDBRANCH  12  14
ENDBRANCH   1  12
TORSDOF 3
ENDMDL
