MODEL 1
REMARK VINA RESULT:      -8.0      0.000      0.000
REMARK  Name = 
REMARK  6 active torsions:
REMARK  status: ('A' for Active; 'I' for Inactive)
REMARK    1  A    between atoms: C_10  and  N_11
REMARK    2  A    between atoms: N_11  and  C_12
REMARK    3  A    between atoms: C_15  and  N_16
REMARK    4  A    between atoms: N_16  and  C_17
REMARK    5  A    between atoms: C_25  and  C_26
REMARK    6  A    between atoms: C_26  and  N_27
REMARK                            x       y       z     vdW  Elec       q    Type
REMARK                         _______ _______ _______ _____ _____    ______ ____
ROOT
ATOM      1  C   UNL     1      40.907  -2.535  14.480  0.00  0.00    +0.000 C 
ATOM      2  C   UNL     1      40.120  -1.582  13.641  0.00  0.00    +0.000 A 
ATOM      3  N   UNL     1      40.387  -1.346  12.369  0.00  0.00    +0.000 NA
ATOM      4  C   UNL     1      39.638  -0.500  11.607  0.00  0.00    +0.000 A 
ATOM      5  C   UNL     1      39.919  -0.274  10.290  0.00  0.00    +0.000 A 
ATOM      6  C   UNL     1      39.130   0.596   9.510  0.00  0.00    +0.000 A 
ATOM      7  C   UNL     1      38.065   1.218  10.117  0.00  0.00    +0.000 A 
ATOM      8  C   UNL     1      37.772   1.004  11.448  0.00  0.00    +0.000 A 
ATOM      9  C   UNL     1      38.577   0.128  12.179  0.00  0.00    +0.000 A 
ATOM     10  C   UNL     1      38.223  -0.056  13.528  0.00  0.00    +0.000 A 
ATOM     11  C   UNL     1      39.005  -0.922  14.234  0.00  0.00    +0.000 A 
ENDROOT
BRANCH  10  12
ATOM     12  N   UNL     1      37.151   0.758  14.027  0.00  0.00    +0.000 NA
BRANCH  12  13
ATOM     13  C   UNL     1      37.555   1.852  14.916  0.00  0.00    +0.000 A 
ATOM     14  C   UNL     1      38.683   2.568  14.710  0.00  0.00    +0.000 A 
ATOM     15  C   UNL     1      39.011   3.648  15.430  0.00  0.00    +0.000 A 
ATOM     16  C   UNL     1      38.182   4.129  16.482  0.00  0.00    +0.000 A 
ATOM     17  C   UNL     1      37.017   3.400  16.719  0.00  0.00    +0.000 A 
ATOM     18  C   UNL     1      36.721   2.298  15.956  0.00  0.00    +0.000 A 
BRANCH  16  19
ATOM     19  N   UNL     1      38.582   5.314  17.024  0.00  0.00    +0.000 NA
BRANCH  19  20
ATOM     20  C   UNL     1      39.544   5.825  17.866  0.00  0.00    +0.000 A 
ATOM     21  C   UNL     1      40.785   6.115  17.282  0.00  0.00    +0.000 A 
ATOM     22  C   UNL     1      41.840   6.569  18.038  0.00  0.00    +0.000 A 
ATOM     23  C   UNL     1      41.706   6.759  19.405  0.00  0.00    +0.000 A 
ATOM     24  C   UNL     1      40.491   6.490  19.997  0.00  0.00    +0.000 A 
ATOM     25  C   UNL     1      39.415   6.018  19.218  0.00  0.00    +0.000 A 
ENDBRANCH  19  20
ENDBRANCH  16  19
ENDBRANCH  12  13
ENDBRANCH  10  12
BRANCH  11  26
ATOM     26  C   UNL     1      38.786  -1.174  15.658  0.00  0.00    +0.000 C 
BRANCH  26  27
ATOM     27  N   UNL     1      37.535  -1.902  15.774  0.00  0.00    +0.000 NA
ATOM     28  C   UNL     1      36.678  -1.464  16.863  0.00  0.00    +0.000 C 
ATOM     29  C   UNL     1      35.245  -1.525  16.260  0.00  0.00    +0.000 C 
ATOM     30  C   UNL     1      35.192  -2.878  15.529  0.00  0.00    +0.000 C 
ATOM     31  C   UNL     1      36.228  -3.825  16.149  0.00  0.00    +0.000 C 
ATOM     32  C   UNL     1      37.630  -3.306  15.771  0.00  0.00    +0.000 C 
ENDBRANCH  26  27
ENDBRANCH  11  26
TORSDOF 6
ENDMDL
MODEL 2
REMARK VINA RESULT:      -7.9      1.415      4.566
REMARK  Name = 
REMARK  6 active torsions:
REMARK  status: ('A' for Active; 'I' for Inactive)
REMARK    1  A    between atoms: C_10  and  N_11
REMARK    2  A    between atoms: N_11  and  C_12
REMARK    3  A    between atoms: C_15  and  N_16
REMARK    4  A    between atoms: N_16  and  C_17
REMARK    5  A    between atoms: C_25  and  C_26
REMARK    6  A    between atoms: C_26  and  N_27
REMARK                            x       y       z     vdW  Elec       q    Type
REMARK                         _______ _______ _______ _____ _____    ______ ____
ROOT
ATOM      1  C   UNL     1      40.417  -1.576  14.884  0.00  0.00    +0.000 C 
ATOM      2  C   UNL     1      39.103  -0.967  15.255  0.00  0.00    +0.000 A 
ATOM      3  N   UNL     1      38.198  -1.589  15.987  0.00  0.00    +0.000 NA
ATOM      4  C   UNL     1      37.018  -1.007  16.347  0.00  0.00    +0.000 A 
ATOM      5  C   UNL     1      36.096  -1.659  17.113  0.00  0.00    +0.000 A 
ATOM      6  C   UNL     1      34.884  -1.042  17.486  0.00  0.00    +0.000 A 
ATOM      7  C   UNL     1      34.654   0.242  17.051  0.00  0.00    +0.000 A 
ATOM      8  C   UNL     1      35.576   0.911  16.272  0.00  0.00    +0.000 A 
ATOM      9  C   UNL     1      36.765   0.262  15.933  0.00  0.00    +0.000 A 
ATOM     10  C   UNL     1      37.667   0.999  15.144  0.00  0.00    +0.000 A 
ATOM     11  C   UNL     1      38.832   0.365  14.826  0.00  0.00    +0.000 A 
ENDROOT
BRANCH  10  12
ATOM     12  N   UNL     1      37.218   2.283  14.685  0.00  0.00    +0.000 NA
BRANCH  12  13
ATOM     13  C   UNL     1      37.818   3.436  15.363  0.00  0.00    +0.000 A 
ATOM     14  C   UNL     1      37.590   3.704  16.669  0.00  0.00    +0.000 A 
ATOM     15  C   UNL     1      38.220   4.674  17.342  0.00  0.00    +0.000 A 
ATOM     16  C   UNL     1      39.194   5.508  16.723  0.00  0.00    +0.000 A 
ATOM     17  C   UNL     1      39.439   5.257  15.374  0.00  0.00    +0.000 A 
ATOM     18  C   UNL     1      38.768   4.251  14.722  0.00  0.00    +0.000 A 
BRANCH  16  19
ATOM     19  N   UNL     1      39.843   6.352  17.574  0.00  0.00    +0.000 NA
BRANCH  19  20
ATOM     20  C   UNL     1      40.976   6.406  18.354  0.00  0.00    +0.000 A 
ATOM     21  C   UNL     1      40.782   6.261  19.736  0.00  0.00    +0.000 A 
ATOM     22  C   UNL     1      41.832   6.362  20.617  0.00  0.00    +0.000 A 
ATOM     23  C   UNL     1      43.120   6.606  20.165  0.00  0.00    +0.000 A 
ATOM     24  C   UNL     1      43.334   6.741  18.811  0.00  0.00    +0.000 A 
ATOM     25  C   UNL     1      42.252   6.643  17.912  0.00  0.00    +0.000 A 
ENDBRANCH  19  20
ENDBRANCH  16  19
ENDBRANCH  12  13
ENDBRANCH  10  12
BRANCH  11  26
ATOM     26  C   UNL     1      39.842   0.988  13.972  0.00  0.00    +0.000 C 
BRANCH  26  27
ATOM     27  N   UNL     1      39.203   1.282  12.702  0.00  0.00    +0.000 NA
ATOM     28  C   UNL     1      38.785   0.111  11.948  0.00  0.00    +0.000 C 
ATOM     29  C   UNL     1      37.412   0.523  11.344  0.00  0.00    +0.000 C 
ATOM     30  C   UNL     1      37.644   1.942  10.795  0.00  0.00    +0.000 C 
ATOM     31  C   UNL     1      39.140   2.133  10.506  0.00  0.00    +0.000 C 
ATOM     32  C   UNL     1      39.879   2.182  11.858  0.00  0.00    +0.000 C 
ENDBRANCH  26  27
ENDBRANCH  11  26
TORSDOF 6
ENDMDL
MODEL 3
REMARK VINA RESULT:      -7.8      1.241      4.405
REMARK  Name = 
REMARK  6 active torsions:
REMARK  status: ('A' for Active; 'I' for Inactive)
REMARK    1  A    between atoms: C_10  and  N_11
REMARK    2  A    between atoms: N_11  and  C_12
REMARK    3  A    between atoms: C_15  and  N_16
REMARK    4  A    between atoms: N_16  and  C_17
REMARK    5  A    between atoms: C_25  and  C_26
REMARK    6  A    between atoms: C_26  and  N_27
REMARK                            x       y       z     vdW  Elec       q    Type
REMARK                         _______ _______ _______ _____ _____    ______ ____
ROOT
ATOM      1  C   UNL     1      40.515  -2.281  15.399  0.00  0.00    +0.000 C 
ATOM      2  C   UNL     1      39.165  -1.668  15.586  0.00  0.00    +0.000 A 
ATOM      3  N   UNL     1      38.200  -2.243  16.281  0.00  0.00    +0.000 NA
ATOM      4  C   UNL     1      36.985  -1.656  16.473  0.00  0.00    +0.000 A 
ATOM      5  C   UNL     1      36.000  -2.257  17.203  0.00  0.00    +0.000 A 
ATOM      6  C   UNL     1      34.751  -1.634  17.402  0.00  0.00    +0.000 A 
ATOM      7  C   UNL     1      34.548  -0.399  16.834  0.00  0.00    +0.000 A 
ATOM      8  C   UNL     1      35.533   0.218  16.089  0.00  0.00    +0.000 A 
ATOM      9  C   UNL     1      36.757  -0.434  15.924  0.00  0.00    +0.000 A 
ATOM     10  C   UNL     1      37.722   0.249  15.163  0.00  0.00    +0.000 A 
ATOM     11  C   UNL     1      38.920  -0.386  15.016  0.00  0.00    +0.000 A 
ENDROOT
BRANCH  10  12
ATOM     12  N   UNL     1      37.305   1.479  14.550  0.00  0.00    +0.000 NA
BRANCH  12  13
ATOM     13  C   UNL     1      37.796   2.700  15.195  0.00  0.00    +0.000 A 
ATOM     14  C   UNL     1      37.295   3.147  16.369  0.00  0.00    +0.000 A 
ATOM     15  C   UNL     1      37.808   4.186  17.039  0.00  0.00    +0.000 A 
ATOM     16  C   UNL     1      38.937   4.907  16.559  0.00  0.00    +0.000 A 
ATOM     17  C   UNL     1      39.465   4.470  15.345  0.00  0.00    +0.000 A 
ATOM     18  C   UNL     1      38.906   3.399  14.690  0.00  0.00    +0.000 A 
BRANCH  16  19
ATOM     19  N   UNL     1      39.422   5.844  17.421  0.00  0.00    +0.000 NA
BRANCH  19  20
ATOM     20  C   UNL     1      40.555   6.129  18.151  0.00  0.00    +0.000 A 
ATOM     21  C   UNL     1      40.403   6.146  19.545  0.00  0.00    +0.000 A 
ATOM     22  C   UNL     1      41.449   6.481  20.371  0.00  0.00    +0.000 A 
ATOM     23  C   UNL     1      42.692   6.809  19.849  0.00  0.00    +0.000 A 
ATOM     24  C   UNL     1      42.865   6.788  18.483  0.00  0.00    +0.000 A 
ATOM     25  C   UNL     1      41.786   6.449  17.639  0.00  0.00    +0.000 A 
ENDBRANCH  19  20
ENDBRANCH  16  19
ENDBRANCH  12  13
ENDBRANCH  10  12
BRANCH  11  26
ATOM     26  C   UNL     1      40.001   0.181  14.210  0.00  0.00    +0.000 C 
BRANCH  26  27
ATOM     27  N   UNL     1      40.027  -0.553  12.956  0.00  0.00    +0.000 NA
ATOM     28  C   UNL     1      41.352  -0.731  12.386  0.00  0.00    +0.000 C 
ATOM     29  C   UNL     1      41.328  -2.182  11.825  0.00  0.00    +0.000 C 
ATOM     30  C   UNL     1      39.982  -2.286  11.087  0.00  0.00    +0.000 C 
ATOM     31  C   UNL     1      39.520  -0.880  10.680  0.00  0.00    +0.000 C 
ATOM     32  C   UNL     1      39.129  -0.120  11.963  0.00  0.00    +0.000 C 
ENDBRANCH  26  27
ENDBRANCH  11  26
TORSDOF 6
ENDMDL
MODEL 4
REMARK VINA RESULT:      -7.7      3.809      9.502
REMARK  Name = 
REMARK  6 active torsions:
REMARK  status: ('A' for Active; 'I' for Inactive)
REMARK    1  A    between atoms: C_10  and  N_11
REMARK    2  A    between atoms: N_11  and  C_12
REMARK    3  A    between atoms: C_15  and  N_16
REMARK    4  A    between atoms: N_16  and  C_17
REMARK    5  A    between atoms: C_25  and  C_26
REMARK    6  A    between atoms: C_26  and  N_27
REMARK                            x       y       z     vdW  Elec       q    Type
REMARK                         _______ _______ _______ _____ _____    ______ ____
ROOT
ATOM      1  C   UNL     1      37.894   0.197  11.409  0.00  0.00    +0.000 C 
ATOM      2  C   UNL     1      37.277   0.309  12.765  0.00  0.00    +0.000 A 
ATOM      3  N   UNL     1      36.594   1.366  13.164  0.00  0.00    +0.000 NA
ATOM      4  C   UNL     1      36.007   1.440  14.392  0.00  0.00    +0.000 A 
ATOM      5  C   UNL     1      35.294   2.535  14.787  0.00  0.00    +0.000 A 
ATOM      6  C   UNL     1      34.684   2.594  16.057  0.00  0.00    +0.000 A 
ATOM      7  C   UNL     1      34.831   1.514  16.894  0.00  0.00    +0.000 A 
ATOM      8  C   UNL     1      35.554   0.403  16.510  0.00  0.00    +0.000 A 
ATOM      9  C   UNL     1      36.134   0.386  15.241  0.00  0.00    +0.000 A 
ATOM     10  C   UNL     1      36.850  -0.777  14.904  0.00  0.00    +0.000 A 
ATOM     11  C   UNL     1      37.405  -0.794  13.658  0.00  0.00    +0.000 A 
ENDROOT
BRANCH  10  12
ATOM     12  N   UNL     1      36.998  -1.762  15.939  0.00  0.00    +0.000 NA
BRANCH  12  13
ATOM     13  C   UNL     1      36.202  -2.981  15.763  0.00  0.00    +0.000 A 
ATOM     14  C   UNL     1      34.891  -2.945  15.434  0.00  0.00    +0.000 A 
ATOM     15  C   UNL     1      34.174  -4.039  15.147  0.00  0.00    +0.000 A 
ATOM     16  C   UNL     1      34.750  -5.340  15.167  0.00  0.00    +0.000 A 
ATOM     17  C   UNL     1      36.099  -5.403  15.513  0.00  0.00    +0.000 A 
ATOM     18  C   UNL     1      36.796  -4.255  15.800  0.00  0.00    +0.000 A 
BRANCH  16  19
ATOM     19  N   UNL     1      33.929  -6.331  14.717  0.00  0.00    +0.000 NA
BRANCH  19  20
ATOM     20  C   UNL     1      33.977  -7.644  14.306  0.00  0.00    +0.000 A 
ATOM     21  C   UNL     1      33.732  -7.875  12.945  0.00  0.00    +0.000 A 
ATOM     22  C   UNL     1      33.692  -9.151  12.435  0.00  0.00    +0.000 A 
ATOM     23  C   UNL     1      33.898 -10.252  13.253  0.00  0.00    +0.000 A 
ATOM     24  C   UNL     1      34.151 -10.046  14.592  0.00  0.00    +0.000 A 
ATOM     25  C   UNL     1      34.185  -8.735  15.111  0.00  0.00    +0.000 A 
ENDBRANCH  19  20
ENDBRANCH  16  19
ENDBRANCH  12  13
ENDBRANCH  10  12
BRANCH  11  26
ATOM     26  C   UNL     1      38.218  -1.915  13.190  0.00  0.00    +0.000 C 
BRANCH  26  27
ATOM     27  N   UNL     1      39.596  -1.616  13.537  0.00  0.00    +0.000 NA
ATOM     28  C   UNL     1      40.519  -1.624  12.414  0.00  0.00    +0.000 C 
ATOM     29  C   UNL     1      41.469  -0.426  12.700  0.00  0.00    +0.000 C 
ATOM     30  C   UNL     1      41.825  -0.564  14.191  0.00  0.00    +0.000 C 
ATOM     31  C   UNL     1      41.648  -2.029  14.616  0.00  0.00    +0.000 C 
ATOM     32  C   UNL     1      40.139  -2.344  14.612  0.00  0.00    +0.000 C 
ENDBRANCH  26  27
ENDBRANCH  11  26
TORSDOF 6
ENDMDL
MODEL 5
REMARK VINA RESULT:      -7.6      2.863      8.835
REMARK  Name = 
REMARK  6 active torsions:
REMARK  status: ('A' for Active; 'I' for Inactive)
REMARK    1  A    between atoms: C_10  and  N_11
REMARK    2  A    between atoms: N_11  and  C_12
REMARK    3  A    between atoms: C_15  and  N_16
REMARK    4  A    between atoms: N_16  and  C_17
REMARK    5  A    between atoms: C_25  and  C_26
REMARK    6  A    between atoms: C_26  and  N_27
REMARK                            x       y       z     vdW  Elec       q    Type
REMARK                         _______ _______ _______ _____ _____    ______ ____
ROOT
ATOM      1  C   UNL     1      41.871   6.382  20.599  0.00  0.00    +0.000 C 
ATOM      2  C   UNL     1      41.926   6.449  19.107  0.00  0.00    +0.000 A 
ATOM      3  N   UNL     1      43.049   6.607  18.430  0.00  0.00    +0.000 NA
ATOM      4  C   UNL     1      43.088   6.630  17.068  0.00  0.00    +0.000 A 
ATOM      5  C   UNL     1      44.258   6.783  16.381  0.00  0.00    +0.000 A 
ATOM      6  C   UNL     1      44.285   6.796  14.972  0.00  0.00    +0.000 A 
ATOM      7  C   UNL     1      43.093   6.654  14.303  0.00  0.00    +0.000 A 
ATOM      8  C   UNL     1      41.902   6.504  14.984  0.00  0.00    +0.000 A 
ATOM      9  C   UNL     1      41.924   6.490  16.379  0.00  0.00    +0.000 A 
ATOM     10  C   UNL     1      40.681   6.325  17.016  0.00  0.00    +0.000 A 
ATOM     11  C   UNL     1      40.710   6.300  18.379  0.00  0.00    +0.000 A 
ENDROOT
BRANCH  10  12
ATOM     12  N   UNL     1      39.523   6.305  16.167  0.00  0.00    +0.000 NA
BRANCH  12  13
ATOM     13  C   UNL     1      38.931   4.982  15.946  0.00  0.00    +0.000 A 
ATOM     14  C   UNL     1      37.802   4.582  16.573  0.00  0.00    +0.000 A 
ATOM     15  C   UNL     1      37.174   3.432  16.297  0.00  0.00    +0.000 A 
ATOM     16  C   UNL     1      37.657   2.532  15.307  0.00  0.00    +0.000 A 
ATOM     17  C   UNL     1      38.827   2.918  14.653  0.00  0.00    +0.000 A 
ATOM     18  C   UNL     1      39.438   4.107  14.969  0.00  0.00    +0.000 A 
BRANCH  16  19
ATOM     19  N   UNL     1      36.833   1.478  15.047  0.00  0.00    +0.000 NA
BRANCH  19  20
ATOM     20  C   UNL     1      36.173   0.461  15.699  0.00  0.00    +0.000 A 
ATOM     21  C   UNL     1      36.475  -0.842  15.278  0.00  0.00    +0.000 A 
ATOM     22  C   UNL     1      35.830  -1.931  15.813  0.00  0.00    +0.000 A 
ATOM     23  C   UNL     1      34.862  -1.774  16.794  0.00  0.00    +0.000 A 
ATOM     24  C   UNL     1      34.558  -0.503  17.229  0.00  0.00    +0.000 A 
ATOM     25  C   UNL     1      35.218   0.611  16.672  0.00  0.00    +0.000 A 
ENDBRANCH  19  20
ENDBRANCH  16  19
ENDBRANCH  12  13
ENDBRANCH  10  12
BRANCH  11  26
ATOM     26  C   UNL     1      39.489   6.185  19.175  0.00  0.00    +0.000 C 
BRANCH  26  27
ATOM     27  N   UNL     1      38.941   7.523  19.310  0.00  0.00    +0.000 NA
ATOM     28  C   UNL     1      38.866   8.012  20.678  0.00  0.00    +0.000 C 
ATOM     29  C   UNL     1      39.271   9.510  20.563  0.00  0.00    +0.000 C 
ATOM     30  C   UNL     1      38.481  10.031  19.350  0.00  0.00    +0.000 C 
ATOM     31  C   UNL     1      37.244   9.147  19.137  0.00  0.00    +0.000 C 
ATOM     32  C   UNL     1      37.727   7.769  18.643  0.00  0.00    +0.000 C 
ENDBRANCH  26  27
ENDBRANCH  11  26
TORSDOF 6
ENDMDL
MODEL 6
REMARK VINA RESULT:      -7.4      3.020      7.071
REMARK  Name = 
REMARK  6 active torsions:
REMARK  status: ('A' for Active; 'I' for Inactive)
REMARK    1  A    between atoms: C_10  and  N_11
REMARK    2  A    between atoms: N_11  and  C_12
REMARK    3  A    between atoms: C_15  and  N_16
REMARK    4  A    between atoms: N_16  and  C_17
REMARK    5  A    between atoms: C_25  and  C_26
REMARK    6  A    between atoms: C_26  and  N_27
REMARK                            x       y       z     vdW  Elec       q    Type
REMARK                         _______ _______ _______ _____ _____    ______ ____
ROOT
ATOM      1  C   UNL     1      35.525   1.730  16.725  0.00  0.00    +0.000 C 
ATOM      2  C   UNL     1      36.350   0.484  16.726  0.00  0.00    +0.000 A 
ATOM      3  N   UNL     1      36.698  -0.152  17.830  0.00  0.00    +0.000 NA
ATOM      4  C   UNL     1      37.422  -1.308  17.813  0.00  0.00    +0.000 A 
ATOM      5  C   UNL     1      37.766  -1.961  18.962  0.00  0.00    +0.000 A 
ATOM      6  C   UNL     1      38.506  -3.160  18.930  0.00  0.00    +0.000 A 
ATOM      7  C   UNL     1      38.878  -3.656  17.703  0.00  0.00    +0.000 A 
ATOM      8  C   UNL     1      38.541  -3.004  16.534  0.00  0.00    +0.000 A 
ATOM      9  C   UNL     1      37.802  -1.823  16.614  0.00  0.00    +0.000 A 
ATOM     10  C   UNL     1      37.482  -1.210  15.389  0.00  0.00    +0.000 A 
ATOM     11  C   UNL     1      36.749  -0.063  15.472  0.00  0.00    +0.000 A 
ENDROOT
BRANCH  10  12
ATOM     12  N   UNL     1      38.046  -1.802  14.208  0.00  0.00    +0.000 NA
BRANCH  12  13
ATOM     13  C   UNL     1      39.500  -1.663  14.071  0.00  0.00    +0.000 A 
ATOM     14  C   UNL     1      40.170  -0.590  14.546  0.00  0.00    +0.000 A 
ATOM     15  C   UNL     1      41.506  -0.497  14.544  0.00  0.00    +0.000 A 
ATOM     16  C   UNL     1      42.331  -1.539  14.034  0.00  0.00    +0.000 A 
ATOM     17  C   UNL     1      41.661  -2.652  13.530  0.00  0.00    +0.000 A 
ATOM     18  C   UNL     1      40.288  -2.705  13.551  0.00  0.00    +0.000 A 
BRANCH  16  19
ATOM     19  N   UNL     1      43.667  -1.353  14.232  0.00  0.00    +0.000 NA
BRANCH  19  20
ATOM     20  C   UNL     1      44.588  -1.280  15.251  0.00  0.00    +0.000 A 
ATOM     21  C   UNL     1      45.136  -2.499  15.678  0.00  0.00    +0.000 A 
ATOM     22  C   UNL     1      46.018  -2.554  16.731  0.00  0.00    +0.000 A 
ATOM     23  C   UNL     1      46.398  -1.401  17.402  0.00  0.00    +0.000 A 
ATOM     24  C   UNL     1      45.880  -0.193  16.992  0.00  0.00    +0.000 A 
ATOM     25  C   UNL     1      44.971  -0.143  15.915  0.00  0.00    +0.000 A 
ENDBRANCH  19  20
ENDBRANCH  16  19
ENDBRANCH  12  13
ENDBRANCH  10  12
BRANCH  11  26
ATOM     26  C   UNL     1      36.386   0.709  14.284  0.00  0.00    +0.000 C 
BRANCH  26  27
ATOM     27  N   UNL     1      37.524   1.552  13.960  0.00  0.00    +0.000 NA
ATOM     28  C   UNL     1      37.369   2.949  14.333  0.00  0.00    +0.000 C 
ATOM     29  C   UNL     1      38.774   3.353  14.865  0.00  0.00    +0.000 C 
ATOM     30  C   UNL     1      39.757   2.776  13.832  0.00  0.00    +0.000 C 
ATOM     31  C   UNL     1      39.033   2.603  12.489  0.00  0.00    +0.000 C 
ATOM     32  C   UNL     1      38.014   1.456  12.645  0.00  0.00    +0.000 C 
ENDBRANCH  26  27
ENDBRANCH  11  26
TORSDOF 6
ENDMDL
MODEL 7
REMARK VINA RESULT:      -7.3      1.835      4.706
REMARK  Name = 
REMARK  6 active torsions:
REMARK  status: ('A' for Active; 'I' for Inactive)
REMARK    1  A    between atoms: C_10  and  N_11
REMARK    2  A    between atoms: N_11  and  C_12
REMARK    3  A    between atoms: C_15  and  N_16
REMARK    4  A    between atoms: N_16  and  C_17
REMARK    5  A    between atoms: C_25  and  C_26
REMARK    6  A    between atoms: C_26  and  N_27
REMARK                            x       y       z     vdW  Elec       q    Type
REMARK                         _______ _______ _______ _____ _____    ______ ____
ROOT
ATOM      1  C   UNL     1      38.045  -0.996  12.465  0.00  0.00    +0.000 C 
ATOM      2  C   UNL     1      37.161  -0.632  13.614  0.00  0.00    +0.000 A 
ATOM      3  N   UNL     1      36.750  -1.506  14.515  0.00  0.00    +0.000 NA
ATOM      4  C   UNL     1      35.973  -1.153  15.578  0.00  0.00    +0.000 A 
ATOM      5  C   UNL     1      35.565  -2.064  16.508  0.00  0.00    +0.000 A 
ATOM      6  C   UNL     1      34.769  -1.684  17.608  0.00  0.00    +0.000 A 
ATOM      7  C   UNL     1      34.409  -0.362  17.717  0.00  0.00    +0.000 A 
ATOM      8  C   UNL     1      34.810   0.570  16.781  0.00  0.00    +0.000 A 
ATOM      9  C   UNL     1      35.603   0.148  15.712  0.00  0.00    +0.000 A 
ATOM     10  C   UNL     1      35.987   1.145  14.797  0.00  0.00    +0.000 A 
ATOM     11  C   UNL     1      36.772   0.730  13.761  0.00  0.00    +0.000 A 
ENDROOT
BRANCH  10  12
ATOM     12  N   UNL     1      35.429   2.453  15.000  0.00  0.00    +0.000 NA
BRANCH  12  13
ATOM     13  C   UNL     1      36.368   3.464  15.495  0.00  0.00    +0.000 A 
ATOM     14  C   UNL     1      37.136   3.262  16.589  0.00  0.00    +0.000 A 
ATOM     15  C   UNL     1      38.087   4.116  16.989  0.00  0.00    +0.000 A 
ATOM     16  C   UNL     1      38.364   5.318  16.279  0.00  0.00    +0.000 A 
ATOM     17  C   UNL     1      37.578   5.552  15.152  0.00  0.00    +0.000 A 
ATOM     18  C   UNL     1      36.612   4.649  14.779  0.00  0.00    +0.000 A 
BRANCH  16  19
ATOM     19  N   UNL     1      39.450   6.006  16.730  0.00  0.00    +0.000 NA
BRANCH  19  20
ATOM     20  C   UNL     1      40.086   6.331  17.907  0.00  0.00    +0.000 A 
ATOM     21  C   UNL     1      41.485   6.417  17.850  0.00  0.00    +0.000 A 
ATOM     22  C   UNL     1      42.230   6.673  18.976  0.00  0.00    +0.000 A 
ATOM     23  C   UNL     1      41.618   6.859  20.207  0.00  0.00    +0.000 A 
ATOM     24  C   UNL     1      40.244   6.789  20.283  0.00  0.00    +0.000 A 
ATOM     25  C   UNL     1      39.485   6.521  19.125  0.00  0.00    +0.000 A 
ENDBRANCH  19  20
ENDBRANCH  16  19
ENDBRANCH  12  13
ENDBRANCH  10  12
BRANCH  11  26
ATOM     26  C   UNL     1      37.206   1.646  12.707  0.00  0.00    +0.000 C 
BRANCH  26  27
ATOM     27  N   UNL     1      38.658   1.668  12.733  0.00  0.00    +0.000 NA
ATOM     28  C   UNL     1      39.233   2.182  13.966  0.00  0.00    +0.000 C 
ATOM     29  C   UNL     1      40.460   1.259  14.220  0.00  0.00    +0.000 C 
ATOM     30  C   UNL     1      41.153   1.152  12.850  0.00  0.00    +0.000 C 
ATOM     31  C   UNL     1      40.781   2.377  12.002  0.00  0.00    +0.000 C 
ATOM     32  C   UNL     1      39.292   2.256  11.624  0.00  0.00    +0.000 C 
ENDBRANCH  26  27
ENDBRANCH  11  26
TORSDOF 6
ENDMDL
MODEL 8
REMARK VINA RESULT:      -7.2      2.524      7.637
REMARK  Name = 
REMARK  6 active torsions:
REMARK  status: ('A' for Active; 'I' for Inactive)
REMARK    1  A    between atoms: C_10  and  N_11
REMARK    2  A    between atoms: N_11  and  C_12
REMARK    3  A    between atoms: C_15  and  N_16
REMARK    4  A    between atoms: N_16  and  C_17
REMARK    5  A    between atoms: C_25  and  C_26
REMARK    6  A    between atoms: C_26  and  N_27
REMARK                            x       y       z     vdW  Elec       q    Type
REMARK                         _______ _______ _______ _____ _____    ______ ____
ROOT
ATOM      1  C   UNL     1      34.801  -0.175  16.881  0.00  0.00    +0.000 C 
ATOM      2  C   UNL     1      35.904   0.622  16.263  0.00  0.00    +0.000 A 
ATOM      3  N   UNL     1      36.154   1.879  16.581  0.00  0.00    +0.000 NA
ATOM      4  C   UNL     1      37.186   2.583  16.035  0.00  0.00    +0.000 A 
ATOM      5  C   UNL     1      37.439   3.879  16.381  0.00  0.00    +0.000 A 
ATOM      6  C   UNL     1      38.516   4.592  15.815  0.00  0.00    +0.000 A 
ATOM      7  C   UNL     1      39.307   3.944  14.897  0.00  0.00    +0.000 A 
ATOM      8  C   UNL     1      39.060   2.636  14.534  0.00  0.00    +0.000 A 
ATOM      9  C   UNL     1      37.986   1.967  15.125  0.00  0.00    +0.000 A 
ATOM     10  C   UNL     1      37.791   0.634  14.721  0.00  0.00    +0.000 A 
ATOM     11  C   UNL     1      36.748  -0.019  15.311  0.00  0.00    +0.000 A 
ENDROOT
BRANCH  10  12
ATOM     12  N   UNL     1      38.641   0.150  13.670  0.00  0.00    +0.000 NA
BRANCH  12  13
ATOM     13  C   UNL     1      38.307   0.628  12.324  0.00  0.00    +0.000 A 
ATOM     14  C   UNL     1      37.039   0.636  11.855  0.00  0.00    +0.000 A 
ATOM     15  C   UNL     1      36.692   1.180  10.682  0.00  0.00    +0.000 A 
ATOM     16  C   UNL     1      37.648   1.802   9.830  0.00  0.00    +0.000 A 
ATOM     17  C   UNL     1      38.964   1.797  10.289  0.00  0.00    +0.000 A 
ATOM     18  C   UNL     1      39.276   1.227  11.499  0.00  0.00    +0.000 A 
BRANCH  16  19
ATOM     19  N   UNL     1      37.117   2.429   8.743  0.00  0.00    +0.000 NA
BRANCH  19  20
ATOM     20  C   UNL     1      36.617   2.144   7.492  0.00  0.00    +0.000 A 
ATOM     21  C   UNL     1      36.854   0.847   7.013  0.00  0.00    +0.000 A 
ATOM     22  C   UNL     1      36.456   0.469   5.753  0.00  0.00    +0.000 A 
ATOM     23  C   UNL     1      35.803   1.361   4.916  0.00  0.00    +0.000 A 
ATOM     24  C   UNL     1      35.551   2.637   5.371  0.00  0.00    +0.000 A 
ATOM     25  C   UNL     1      35.966   3.020   6.663  0.00  0.00    +0.000 A 
ENDBRANCH  19  20
ENDBRANCH  16  19
ENDBRANCH  12  13
ENDBRANCH  10  12
BRANCH  11  26
ATOM     26  C   UNL     1      36.395  -1.392  14.953  0.00  0.00    +0.000 C 
BRANCH  26  27
ATOM     27  N   UNL     1      37.254  -2.269  15.729  0.00  0.00    +0.000 NA
ATOM     28  C   UNL     1      38.290  -2.939  14.959  0.00  0.00    +0.000 C 
ATOM     29  C   UNL     1      39.532  -2.908  15.895  0.00  0.00    +0.000 C 
ATOM     30  C   UNL     1      38.987  -3.326  17.273  0.00  0.00    +0.000 C 
ATOM     31  C   UNL     1      37.703  -4.146  17.079  0.00  0.00    +0.000 C 
ATOM     32  C   UNL     1      36.605  -3.191  16.570  0.00  0.00    +0.000 C 
ENDBRANCH  26  27
ENDBRANCH  11  26
TORSDOF 6
ENDMDL
MODEL 9
REMARK VINA RESULT:      -7.2      3.165      5.160
REMARK  Name = 
REMARK  6 active torsions:
REMARK  status: ('A' for Active; 'I' for Inactive)
REMARK    1  A    between atoms: C_10  and  N_11
REMARK    2  A    between atoms: N_11  and  C_12
REMARK    3  A    between atoms: C_15  and  N_16
REMARK    4  A    between atoms: N_16  and  C_17
REMARK    5  A    between atoms: C_25  and  C_26
REMARK    6  A    between atoms: C_26  and  N_27
REMARK                            x       y       z     vdW  Elec       q    Type
REMARK                         _______ _______ _______ _____ _____    ______ ____
ROOT
ATOM      1  C   UNL     1      38.681   4.078  10.529  0.00  0.00    +0.000 C 
ATOM      2  C   UNL     1      37.600   4.620  11.407  0.00  0.00    +0.000 A 
ATOM      3  N   UNL     1      36.692   5.482  10.988  0.00  0.00    +0.000 NA
ATOM      4  C   UNL     1      35.690   5.940  11.791  0.00  0.00    +0.000 A 
ATOM      5  C   UNL     1      34.751   6.823  11.341  0.00  0.00    +0.000 A 
ATOM      6  C   UNL     1      33.715   7.282  12.179  0.00  0.00    +0.000 A 
ATOM      7  C   UNL     1      33.677   6.816  13.472  0.00  0.00    +0.000 A 
ATOM      8  C   UNL     1      34.623   5.928  13.942  0.00  0.00    +0.000 A 
ATOM      9  C   UNL     1      35.627   5.495  13.073  0.00  0.00    +0.000 A 
ATOM     10  C   UNL     1      36.556   4.584  13.608  0.00  0.00    +0.000 A 
ATOM     11  C   UNL     1      37.527   4.155  12.752  0.00  0.00    +0.000 A 
ENDROOT
BRANCH  10  12
ATOM     12  N   UNL     1      36.434   4.290  15.008  0.00  0.00    +0.000 NA
BRANCH  12  13
ATOM     13  C   UNL     1      37.522   4.796  15.851  0.00  0.00    +0.000 A 
ATOM     14  C   UNL     1      38.159   5.959  15.586  0.00  0.00    +0.000 A 
ATOM     15  C   UNL     1      39.068   6.504  16.404  0.00  0.00    +0.000 A 
ATOM     16  C   UNL     1      39.434   5.889  17.635  0.00  0.00    +0.000 A 
ATOM     17  C   UNL     1      38.797   4.684  17.926  0.00  0.00    +0.000 A 
ATOM     18  C   UNL     1      37.871   4.161  17.055  0.00  0.00    +0.000 A 
BRANCH  16  19
ATOM     19  N   UNL     1      40.264   6.636  18.417  0.00  0.00    +0.000 NA
BRANCH  19  20
ATOM     20  C   UNL     1      41.526   6.596  18.965  0.00  0.00    +0.000 A 
ATOM     21  C   UNL     1      41.597   6.293  20.333  0.00  0.00    +0.000 A 
ATOM     22  C   UNL     1      42.799   6.288  20.999  0.00  0.00    +0.000 A 
ATOM     23  C   UNL     1      43.982   6.578  20.337  0.00  0.00    +0.000 A 
ATOM     24  C   UNL     1      43.936   6.868  18.991  0.00  0.00    +0.000 A 
ATOM     25  C   UNL     1      42.699   6.878  18.313  0.00  0.00    +0.000 A 
ENDBRANCH  19  20
ENDBRANCH  16  19
ENDBRANCH  12  13
ENDBRANCH  10  12
BRANCH  11  26
ATOM     26  C   UNL     1      38.588   3.246  13.181  0.00  0.00    +0.000 C 
BRANCH  26  27
ATOM     27  N   UNL     1      37.957   1.981  13.513  0.00  0.00    +0.000 NA
ATOM     28  C   UNL     1      38.535   1.297  14.659  0.00  0.00    +0.000 C 
ATOM     29  C   UNL     1      37.304   0.712  15.408  0.00  0.00    +0.000 C 
ATOM     30  C   UNL     1      36.439   0.088  14.298  0.00  0.00    +0.000 C 
ATOM     31  C   UNL     1      37.331  -0.250  13.095  0.00  0.00    +0.000 C 
ATOM     32  C   UNL     1      37.780   1.076  12.451  0.00  0.00    +0.000 C 
ENDBRANCH  26  27
ENDBRANCH  11  26
TORSDOF 6
ENDMDL
MODEL 10
REMARK VINA RESULT:      -7.0      1.608      4.740
REMARK  Name = 
REMARK  6 active torsions:
REMARK  status: ('A' for Active; 'I' for Inactive)
REMARK    1  A    between atoms: C_10  and  N_11
REMARK    2  A    between atoms: N_11  and  C_12
REMARK    3  A    between atoms: C_15  and  N_16
REMARK    4  A    between atoms: N_16  and  C_17
REMARK    5  A    between atoms: C_25  and  C_26
REMARK    6  A    between atoms: C_26  and  N_27
REMARK                            x       y       z     vdW  Elec       q    Type
REMARK                         _______ _______ _______ _____ _____    ______ ____
ROOT
ATOM      1  C   UNL     1      40.973  -3.216  13.623  0.00  0.00    +0.000 C 
ATOM      2  C   UNL     1      39.953  -2.666  14.567  0.00  0.00    +0.000 A 
ATOM      3  N   UNL     1      39.806  -3.098  15.806  0.00  0.00    +0.000 NA
ATOM      4  C   UNL     1      38.895  -2.562  16.667  0.00  0.00    +0.000 A 
ATOM      5  C   UNL     1      38.761  -3.012  17.949  0.00  0.00    +0.000 A 
ATOM      6  C   UNL     1      37.821  -2.442  18.831  0.00  0.00    +0.000 A 
ATOM      7  C   UNL     1      37.035  -1.417  18.362  0.00  0.00    +0.000 A 
ATOM      8  C   UNL     1      37.155  -0.956  17.067  0.00  0.00    +0.000 A 
ATOM      9  C   UNL     1      38.105  -1.546  16.231  0.00  0.00    +0.000 A 
ATOM     10  C   UNL     1      38.186  -1.027  14.926  0.00  0.00    +0.000 A 
ATOM     11  C   UNL     1      39.123  -1.598  14.117  0.00  0.00    +0.000 A 
ENDROOT
BRANCH  10  12
ATOM     12  N   UNL     1      37.213  -0.033  14.568  0.00  0.00    +0.000 NA
BRANCH  12  13
ATOM     13  C   UNL     1      37.539   1.338  14.974  0.00  0.00    +0.000 A 
ATOM     14  C   UNL     1      36.763   2.041  15.829  0.00  0.00    +0.000 A 
ATOM     15  C   UNL     1      37.101   3.243  16.311  0.00  0.00    +0.000 A 
ATOM     16  C   UNL     1      38.323   3.880  15.953  0.00  0.00    +0.000 A 
ATOM     17  C   UNL     1      39.135   3.178  15.064  0.00  0.00    +0.000 A 
ATOM     18  C   UNL     1      38.748   1.946  14.594  0.00  0.00    +0.000 A 
BRANCH  16  19
ATOM     19  N   UNL     1      38.585   5.031  16.634  0.00  0.00    +0.000 NA
BRANCH  19  20
ATOM     20  C   UNL     1      39.548   5.589  17.443  0.00  0.00    +0.000 A 
ATOM     21  C   UNL     1      39.227   5.691  18.805  0.00  0.00    +0.000 A 
ATOM     22  C   UNL     1      40.086   6.289  19.696  0.00  0.00    +0.000 A 
ATOM     23  C   UNL     1      41.302   6.806  19.275  0.00  0.00    +0.000 A 
ATOM     24  C   UNL     1      41.641   6.706  17.944  0.00  0.00    +0.000 A 
ATOM     25  C   UNL     1      40.753   6.097  17.033  0.00  0.00    +0.000 A 
ENDBRANCH  19  20
ENDBRANCH  16  19
ENDBRANCH  12  13
ENDBRANCH  10  12
BRANCH  11  26
ATOM     26  C   UNL     1      39.288  -1.195  12.721  0.00  0.00    +0.000 C 
BRANCH  26  27
ATOM     27  N   UNL     1      40.670  -0.781  12.557  0.00  0.00    +0.000 NA
ATOM     28  C   UNL     1      40.970   0.545  13.073  0.00  0.00    +0.000 C 
ATOM     29  C   UNL     1      42.374   0.385  13.725  0.00  0.00    +0.000 C 
ATOM     30  C   UNL     1      43.190  -0.412  12.692  0.00  0.00    +0.000 C 
ATOM     31  C   UNL     1      42.576  -0.206  11.299  0.00  0.00    +0.000 C 
ATOM     32  C   UNL     1      41.217  -0.931  11.269  0.00  0.00    +0.000 C 
ENDBRANCH  26  27
ENDBRANCH  11  26
TORSDOF 6
ENDMDL
