MODEL 1
REMARK VINA RESULT:      -7.7      0.000      0.000
REMARK  Name = 
REMARK  6 active torsions:
REMARK  status: ('A' for Active; 'I' for Inactive)
REMARK    1  A    between atoms: N_4  and  C_5
REMARK    2  A    between atoms: C_16  and  C_17
REMARK    3  A    between atoms: C_20  and  O_21
REMARK    4  A    between atoms: O_21  and  C_22
REMARK    5  A    between atoms: C_22  and  C_23
REMARK    6  A    between atoms: C_29  and  O_30
REMARK                            x       y       z     vdW  Elec       q    Type
REMARK                         _______ _______ _______ _____ _____    ______ ____
ROOT
ATOM      1  C   UNL     1      38.926   5.217  18.385  0.00  0.00    +0.000 C 
ATOM      2  C   UNL     1      40.089   5.813  18.652  0.00  0.00    +0.000 A 
ATOM      3  N   UNL     1      40.650   6.037  19.853  0.00  0.00    +0.000 NA
ATOM      4  N   UNL     1      41.812   6.654  19.757  0.00  0.00    +0.000 N 
ATOM      5  C   UNL     1      42.008   6.836  18.427  0.00  0.00    +0.000 A 
ATOM      6  O   UNL     1      43.014   7.397  17.912  0.00  0.00    +0.000 OA
ATOM      7  C   UNL     1      40.943   6.318  17.729  0.00  0.00    +0.000 A 
ATOM      8  C   UNL     1      40.776   6.308  16.423  0.00  0.00    +0.000 C 
ENDROOT
BRANCH   4   9
ATOM      9  C   UNL     1      42.697   7.057  20.802  0.00  0.00    +0.000 A 
ATOM     10  C   UNL     1      42.971   8.389  21.026  0.00  0.00    +0.000 A 
ATOM     11  C   UNL     1      43.833   8.772  22.044  0.00  0.00    +0.000 A 
ATOM     12  C   UNL     1      44.448   7.856  22.871  0.00  0.00    +0.000 A 
ATOM     13  C   UNL     1      45.373   8.283  23.964  0.00  0.00    +0.000 C 
ATOM     14  C   UNL     1      44.173   6.524  22.648  0.00  0.00    +0.000 A 
ATOM     15  C   UNL     1      44.836   5.526  23.540  0.00  0.00    +0.000 C 
ATOM     16  C   UNL     1      43.311   6.138  21.628  0.00  0.00    +0.000 A 
ENDBRANCH   4   9
BRANCH   8  17
ATOM     17  C   UNL     1      39.615   5.737  15.760  0.00  0.00    +0.000 A 
ATOM     18  C   UNL     1      38.399   6.372  15.652  0.00  0.00    +0.000 A 
ATOM     19  C   UNL     1      37.332   5.778  15.011  0.00  0.00    +0.000 A 
ATOM     20  C   UNL     1      37.445   4.527  14.455  0.00  0.00    +0.000 A 
ATOM     21  C   UNL     1      38.655   3.871  14.551  0.00  0.00    +0.000 A 
ATOM     22  C   UNL     1      39.730   4.485  15.205  0.00  0.00    +0.000 A 
BRANCH  21  23
ATOM     23  O   UNL     1      38.770   2.606  13.989  0.00  0.00    +0.000 OA
ATOM     24  C   UNL     1      39.696   1.647  14.400  0.00  0.00    +0.000 C 
ENDBRANCH  21  23
BRANCH  20  25
ATOM     25  O   UNL     1      36.394   3.895  13.800  0.00  0.00    +0.000 OA
BRANCH  25  26
ATOM     26  C   UNL     1      35.212   3.657  14.538  0.00  0.00    +0.000 C 
BRANCH  26  27
ATOM     27  C   UNL     1      35.317   2.341  15.183  0.00  0.00    +0.000 A 
ATOM     28  C   UNL     1      35.886   1.257  14.548  0.00  0.00    +0.000 A 
ATOM     29  C   UNL     1      35.979   0.024  15.167  0.00  0.00    +0.000 A 
ATOM     30  C   UNL     1      35.500  -0.138  16.440  0.00  0.00    +0.000 A 
ATOM     31  C   UNL     1      34.935   0.925  17.082  0.00  0.00    +0.000 A 
ATOM     32  C   UNL     1      34.840   2.146  16.477  0.00  0.00    +0.000 A 
ENDBRANCH  26  27
ENDBRANCH  25  26
ENDBRANCH  20  25
ENDBRANCH   8  17
TORSDOF 6
ENDMDL
MODEL 2
REMARK VINA RESULT:      -7.7      0.773      1.790
REMARK  Name = 
REMARK  6 active torsions:
REMARK  status: ('A' for Active; 'I' for Inactive)
REMARK    1  A    between atoms: N_4  and  C_5
REMARK    2  A    between atoms: C_16  and  C_17
REMARK    3  A    between atoms: C_20  and  O_21
REMARK    4  A    between atoms: O_21  and  C_22
REMARK    5  A    between atoms: C_22  and  C_23
REMARK    6  A    between atoms: C_29  and  O_30
REMARK                            x       y       z     vdW  Elec       q    Type
REMARK                         _______ _______ _______ _____ _____    ______ ____
ROOT
ATOM      1  C   UNL     1      38.790   5.315  18.396  0.00  0.00    +0.000 C 
ATOM      2  C   UNL     1      39.990   5.844  18.644  0.00  0.00    +0.000 A 
ATOM      3  N   UNL     1      40.545   6.118  19.837  0.00  0.00    +0.000 NA
ATOM      4  N   UNL     1      41.751   6.640  19.722  0.00  0.00    +0.000 N 
ATOM      5  C   UNL     1      41.983   6.704  18.386  0.00  0.00    +0.000 A 
ATOM      6  O   UNL     1      43.037   7.148  17.854  0.00  0.00    +0.000 OA
ATOM      7  C   UNL     1      40.895   6.212  17.705  0.00  0.00    +0.000 A 
ATOM      8  C   UNL     1      40.751   6.114  16.401  0.00  0.00    +0.000 C 
ENDROOT
BRANCH   4   9
ATOM      9  C   UNL     1      42.645   7.057  20.754  0.00  0.00    +0.000 A 
ATOM     10  C   UNL     1      42.925   8.392  20.953  0.00  0.00    +0.000 A 
ATOM     11  C   UNL     1      43.795   8.788  21.959  0.00  0.00    +0.000 A 
ATOM     12  C   UNL     1      44.414   7.884  22.796  0.00  0.00    +0.000 A 
ATOM     13  C   UNL     1      45.348   8.325  23.875  0.00  0.00    +0.000 C 
ATOM     14  C   UNL     1      44.133   6.550  22.597  0.00  0.00    +0.000 A 
ATOM     15  C   UNL     1      44.799   5.564  23.501  0.00  0.00    +0.000 C 
ATOM     16  C   UNL     1      43.262   6.150  21.591  0.00  0.00    +0.000 A 
ENDBRANCH   4   9
BRANCH   8  17
ATOM     17  C   UNL     1      39.563   5.579  15.756  0.00  0.00    +0.000 A 
ATOM     18  C   UNL     1      39.387   4.250  15.444  0.00  0.00    +0.000 A 
ATOM     19  C   UNL     1      38.235   3.801  14.832  0.00  0.00    +0.000 A 
ATOM     20  C   UNL     1      37.219   4.667  14.510  0.00  0.00    +0.000 A 
ATOM     21  C   UNL     1      37.373   6.004  14.813  0.00  0.00    +0.000 A 
ATOM     22  C   UNL     1      38.547   6.446  15.435  0.00  0.00    +0.000 A 
BRANCH  21  23
ATOM     23  O   UNL     1      36.347   6.881  14.488  0.00  0.00    +0.000 OA
ATOM     24  C   UNL     1      36.298   8.216  14.890  0.00  0.00    +0.000 C 
ENDBRANCH  21  23
BRANCH  20  25
ATOM     25  O   UNL     1      36.043   4.255  13.893  0.00  0.00    +0.000 OA
BRANCH  25  26
ATOM     26  C   UNL     1      34.969   3.866  14.725  0.00  0.00    +0.000 C 
BRANCH  26  27
ATOM     27  C   UNL     1      35.201   2.487  15.177  0.00  0.00    +0.000 A 
ATOM     28  C   UNL     1      35.754   1.529  14.354  0.00  0.00    +0.000 A 
ATOM     29  C   UNL     1      35.967   0.236  14.792  0.00  0.00    +0.000 A 
ATOM     30  C   UNL     1      35.626  -0.117  16.070  0.00  0.00    +0.000 A 
ATOM     31  C   UNL     1      35.077   0.820  16.897  0.00  0.00    +0.000 A 
ATOM     32  C   UNL     1      34.864   2.099  16.472  0.00  0.00    +0.000 A 
ENDBRANCH  26  27
ENDBRANCH  25  26
ENDBRANCH  20  25
ENDBRANCH   8  17
TORSDOF 6
ENDMDL
MODEL 3
REMARK VINA RESULT:      -7.6      5.927     11.801
REMARK  Name = 
REMARK  6 active torsions:
REMARK  status: ('A' for Active; 'I' for Inactive)
REMARK    1  A    between atoms: N_4  and  C_5
REMARK    2  A    between atoms: C_16  and  C_17
REMARK    3  A    between atoms: C_20  and  O_21
REMARK    4  A    between atoms: O_21  and  C_22
REMARK    5  A    between atoms: C_22  and  C_23
REMARK    6  A    between atoms: C_29  and  O_30
REMARK                            x       y       z     vdW  Elec       q    Type
REMARK                         _______ _______ _______ _____ _____    ______ ____
ROOT
ATOM      1  C   UNL     1      37.050   4.976  11.732  0.00  0.00    +0.000 C 
ATOM      2  C   UNL     1      36.857   4.201  10.663  0.00  0.00    +0.000 A 
ATOM      3  N   UNL     1      36.389   4.556   9.455  0.00  0.00    +0.000 NA
ATOM      4  N   UNL     1      36.325   3.535   8.622  0.00  0.00    +0.000 N 
ATOM      5  C   UNL     1      36.774   2.469   9.332  0.00  0.00    +0.000 A 
ATOM      6  O   UNL     1      36.869   1.292   8.890  0.00  0.00    +0.000 OA
ATOM      7  C   UNL     1      37.109   2.870  10.603  0.00  0.00    +0.000 A 
ATOM      8  C   UNL     1      37.580   2.120  11.576  0.00  0.00    +0.000 C 
ENDROOT
BRANCH   4   9
ATOM      9  C   UNL     1      35.883   3.518   7.264  0.00  0.00    +0.000 A 
ATOM     10  C   UNL     1      35.260   4.613   6.706  0.00  0.00    +0.000 A 
ATOM     11  C   UNL     1      34.835   4.588   5.386  0.00  0.00    +0.000 A 
ATOM     12  C   UNL     1      35.010   3.485   4.577  0.00  0.00    +0.000 A 
ATOM     13  C   UNL     1      34.547   3.471   3.156  0.00  0.00    +0.000 C 
ATOM     14  C   UNL     1      35.634   2.390   5.135  0.00  0.00    +0.000 A 
ATOM     15  C   UNL     1      35.827   1.191   4.265  0.00  0.00    +0.000 C 
ATOM     16  C   UNL     1      36.061   2.413   6.457  0.00  0.00    +0.000 A 
ENDBRANCH   4   9
BRANCH   8  17
ATOM     17  C   UNL     1      37.911   2.624  12.899  0.00  0.00    +0.000 A 
ATOM     18  C   UNL     1      39.148   3.113  13.250  0.00  0.00    +0.000 A 
ATOM     19  C   UNL     1      39.402   3.578  14.524  0.00  0.00    +0.000 A 
ATOM     20  C   UNL     1      38.427   3.571  15.490  0.00  0.00    +0.000 A 
ATOM     21  C   UNL     1      37.178   3.084  15.161  0.00  0.00    +0.000 A 
ATOM     22  C   UNL     1      36.933   2.615  13.865  0.00  0.00    +0.000 A 
BRANCH  21  23
ATOM     23  O   UNL     1      36.191   3.075  16.137  0.00  0.00    +0.000 OA
ATOM     24  C   UNL     1      35.537   1.926  16.581  0.00  0.00    +0.000 C 
ENDBRANCH  21  23
BRANCH  20  25
ATOM     25  O   UNL     1      38.642   4.030  16.784  0.00  0.00    +0.000 OA
BRANCH  25  26
ATOM     26  C   UNL     1      38.569   5.425  17.004  0.00  0.00    +0.000 C 
BRANCH  26  27
ATOM     27  C   UNL     1      39.729   5.836  17.807  0.00  0.00    +0.000 A 
ATOM     28  C   UNL     1      39.662   5.965  19.178  0.00  0.00    +0.000 A 
ATOM     29  C   UNL     1      40.761   6.352  19.922  0.00  0.00    +0.000 A 
ATOM     30  C   UNL     1      41.950   6.616  19.296  0.00  0.00    +0.000 A 
ATOM     31  C   UNL     1      42.033   6.493  17.940  0.00  0.00    +0.000 A 
ATOM     32  C   UNL     1      40.952   6.111  17.198  0.00  0.00    +0.000 A 
ENDBRANCH  26  27
ENDBRANCH  25  26
ENDBRANCH  20  25
ENDBRANCH   8  17
TORSDOF 6
ENDMDL
MODEL 4
REMARK VINA RESULT:      -7.5     24.278     27.400
REMARK  Name = 
REMARK  6 active torsions:
REMARK  status: ('A' for Active; 'I' for Inactive)
REMARK    1  A    between atoms: N_4  and  C_5
REMARK    2  A    between atoms: C_16  and  C_17
REMARK    3  A    between atoms: C_20  and  O_21
REMARK    4  A    between atoms: O_21  and  C_22
REMARK    5  A    between atoms: C_22  and  C_23
REMARK    6  A    between atoms: C_29  and  O_30
REMARK                            x       y       z     vdW  Elec       q    Type
REMARK                         _______ _______ _______ _____ _____    ______ ____
ROOT
ATOM      1  C   UNL     1      17.733  -0.402   1.010  0.00  0.00    +0.000 C 
ATOM      2  C   UNL     1      17.645  -0.598   2.328  0.00  0.00    +0.000 A 
ATOM      3  N   UNL     1      16.666  -1.214   3.011  0.00  0.00    +0.000 NA
ATOM      4  N   UNL     1      16.897  -1.233   4.310  0.00  0.00    +0.000 N 
ATOM      5  C   UNL     1      18.084  -0.596   4.469  0.00  0.00    +0.000 A 
ATOM      6  O   UNL     1      18.660  -0.402   5.574  0.00  0.00    +0.000 OA
ATOM      7  C   UNL     1      18.560  -0.196   3.243  0.00  0.00    +0.000 A 
ATOM      8  C   UNL     1      19.680   0.449   2.997  0.00  0.00    +0.000 C 
ENDROOT
BRANCH   4   9
ATOM      9  C   UNL     1      16.094  -1.792   5.350  0.00  0.00    +0.000 A 
ATOM     10  C   UNL     1      16.255  -3.103   5.744  0.00  0.00    +0.000 A 
ATOM     11  C   UNL     1      15.470  -3.638   6.756  0.00  0.00    +0.000 A 
ATOM     12  C   UNL     1      14.506  -2.899   7.408  0.00  0.00    +0.000 A 
ATOM     13  C   UNL     1      13.668  -3.488   8.497  0.00  0.00    +0.000 C 
ATOM     14  C   UNL     1      14.346  -1.588   7.015  0.00  0.00    +0.000 A 
ATOM     15  C   UNL     1      13.303  -0.781   7.717  0.00  0.00    +0.000 C 
ATOM     16  C   UNL     1      15.130  -1.050   6.002  0.00  0.00    +0.000 A 
ENDBRANCH   4   9
BRANCH   8  17
ATOM     17  C   UNL     1      20.114   0.838   1.665  0.00  0.00    +0.000 A 
ATOM     18  C   UNL     1      20.735  -0.012   0.778  0.00  0.00    +0.000 A 
ATOM     19  C   UNL     1      21.125   0.416  -0.475  0.00  0.00    +0.000 A 
ATOM     20  C   UNL     1      20.906   1.708  -0.884  0.00  0.00    +0.000 A 
ATOM     21  C   UNL     1      20.285   2.578  -0.011  0.00  0.00    +0.000 A 
ATOM     22  C   UNL     1      19.894   2.132   1.257  0.00  0.00    +0.000 A 
BRANCH  21  23
ATOM     23  O   UNL     1      20.063   3.885  -0.423  0.00  0.00    +0.000 OA
ATOM     24  C   UNL     1      18.800   4.462  -0.555  0.00  0.00    +0.000 C 
ENDBRANCH  21  23
BRANCH  20  25
ATOM     25  O   UNL     1      21.282   2.177  -2.137  0.00  0.00    +0.000 OA
BRANCH  25  26
ATOM     26  C   UNL     1      22.457   1.640  -2.710  0.00  0.00    +0.000 C 
BRANCH  26  27
ATOM     27  C   UNL     1      23.622   2.226  -2.032  0.00  0.00    +0.000 A 
ATOM     28  C   UNL     1      23.661   3.552  -1.657  0.00  0.00    +0.000 A 
ATOM     29  C   UNL     1      24.762   4.091  -1.019  0.00  0.00    +0.000 A 
ATOM     30  C   UNL     1      25.847   3.301  -0.746  0.00  0.00    +0.000 A 
ATOM     31  C   UNL     1      25.824   1.986  -1.111  0.00  0.00    +0.000 A 
ATOM     32  C   UNL     1      24.739   1.447  -1.741  0.00  0.00    +0.000 A 
ENDBRANCH  26  27
ENDBRANCH  25  26
ENDBRANCH  20  25
ENDBRANCH   8  17
TORSDOF 6
ENDMDL
MODEL 5
REMARK VINA RESULT:      -7.5      4.487     11.028
REMARK  Name = 
REMARK  6 active torsions:
REMARK  status: ('A' for Active; 'I' for Inactive)
REMARK    1  A    between atoms: N_4  and  C_5
REMARK    2  A    between atoms: C_16  and  C_17
REMARK    3  A    between atoms: C_20  and  O_21
REMARK    4  A    between atoms: O_21  and  C_22
REMARK    5  A    between atoms: C_22  and  C_23
REMARK    6  A    between atoms: C_29  and  O_30
REMARK                            x       y       z     vdW  Elec       q    Type
REMARK                         _______ _______ _______ _____ _____    ______ ____
ROOT
ATOM      1  C   UNL     1      37.481   0.079  15.283  0.00  0.00    +0.000 C 
ATOM      2  C   UNL     1      36.556  -0.840  15.567  0.00  0.00    +0.000 A 
ATOM      3  N   UNL     1      36.542  -2.138  15.218  0.00  0.00    +0.000 NA
ATOM      4  N   UNL     1      35.471  -2.766  15.666  0.00  0.00    +0.000 N 
ATOM      5  C   UNL     1      34.762  -1.824  16.338  0.00  0.00    +0.000 A 
ATOM      6  O   UNL     1      33.662  -2.024  16.921  0.00  0.00    +0.000 OA
ATOM      7  C   UNL     1      35.426  -0.621  16.283  0.00  0.00    +0.000 A 
ATOM      8  C   UNL     1      35.049   0.521  16.817  0.00  0.00    +0.000 C 
ENDROOT
BRANCH   4   9
ATOM      9  C   UNL     1      35.107  -4.136  15.500  0.00  0.00    +0.000 A 
ATOM     10  C   UNL     1      34.207  -4.519  14.529  0.00  0.00    +0.000 A 
ATOM     11  C   UNL     1      33.859  -5.853  14.375  0.00  0.00    +0.000 A 
ATOM     12  C   UNL     1      34.385  -6.848  15.171  0.00  0.00    +0.000 A 
ATOM     13  C   UNL     1      34.001  -8.281  14.994  0.00  0.00    +0.000 C 
ATOM     14  C   UNL     1      35.285  -6.466  16.142  0.00  0.00    +0.000 A 
ATOM     15  C   UNL     1      35.859  -7.538  17.009  0.00  0.00    +0.000 C 
ATOM     16  C   UNL     1      35.636  -5.130  16.299  0.00  0.00    +0.000 A 
ENDBRANCH   4   9
BRANCH   8  17
ATOM     17  C   UNL     1      35.812   1.754  16.713  0.00  0.00    +0.000 A 
ATOM     18  C   UNL     1      36.725   2.176  17.653  0.00  0.00    +0.000 A 
ATOM     19  C   UNL     1      37.420   3.358  17.499  0.00  0.00    +0.000 A 
ATOM     20  C   UNL     1      37.227   4.157  16.400  0.00  0.00    +0.000 A 
ATOM     21  C   UNL     1      36.316   3.754  15.445  0.00  0.00    +0.000 A 
ATOM     22  C   UNL     1      35.617   2.553  15.612  0.00  0.00    +0.000 A 
BRANCH  21  23
ATOM     23  O   UNL     1      36.119   4.562  14.332  0.00  0.00    +0.000 OA
ATOM     24  C   UNL     1      36.623   4.284  13.062  0.00  0.00    +0.000 C 
ENDBRANCH  21  23
BRANCH  20  25
ATOM     25  O   UNL     1      37.907   5.354  16.207  0.00  0.00    +0.000 OA
BRANCH  25  26
ATOM     26  C   UNL     1      39.298   5.285  15.964  0.00  0.00    +0.000 C 
BRANCH  26  27
ATOM     27  C   UNL     1      40.009   5.763  17.158  0.00  0.00    +0.000 A 
ATOM     28  C   UNL     1      39.418   5.782  18.404  0.00  0.00    +0.000 A 
ATOM     29  C   UNL     1      40.098   6.234  19.520  0.00  0.00    +0.000 A 
ATOM     30  C   UNL     1      41.388   6.677  19.400  0.00  0.00    +0.000 A 
ATOM     31  C   UNL     1      41.986   6.665  18.173  0.00  0.00    +0.000 A 
ATOM     32  C   UNL     1      41.322   6.219  17.067  0.00  0.00    +0.000 A 
ENDBRANCH  26  27
ENDBRANCH  25  26
ENDBRANCH  20  25
ENDBRANCH   8  17
TORSDOF 6
ENDMDL
MODEL 6
REMARK VINA RESULT:      -7.5      2.449      3.445
REMARK  Name = 
REMARK  6 active torsions:
REMARK  status: ('A' for Active; 'I' for Inactive)
REMARK    1  A    between atoms: N_4  and  C_5
REMARK    2  A    between atoms: C_16  and  C_17
REMARK    3  A    between atoms: C_20  and  O_21
REMARK    4  A    between atoms: O_21  and  C_22
REMARK    5  A    between atoms: C_22  and  C_23
REMARK    6  A    between atoms: C_29  and  O_30
REMARK                            x       y       z     vdW  Elec       q    Type
REMARK                         _______ _______ _______ _____ _____    ______ ____
ROOT
ATOM      1  C   UNL     1      38.318   4.305  18.271  0.00  0.00    +0.000 C 
ATOM      2  C   UNL     1      38.827   5.537  18.212  0.00  0.00    +0.000 A 
ATOM      3  N   UNL     1      39.207   6.326  19.232  0.00  0.00    +0.000 NA
ATOM      4  N   UNL     1      39.671   7.491  18.818  0.00  0.00    +0.000 N 
ATOM      5  C   UNL     1      39.585   7.447  17.465  0.00  0.00    +0.000 A 
ATOM      6  O   UNL     1      39.932   8.376  16.686  0.00  0.00    +0.000 OA
ATOM      7  C   UNL     1      39.061   6.237  17.075  0.00  0.00    +0.000 A 
ATOM      8  C   UNL     1      38.830   5.829  15.846  0.00  0.00    +0.000 C 
ENDROOT
BRANCH   4   9
ATOM      9  C   UNL     1      40.164   8.581  19.597  0.00  0.00    +0.000 A 
ATOM     10  C   UNL     1      41.504   8.688  19.901  0.00  0.00    +0.000 A 
ATOM     11  C   UNL     1      41.974   9.752  20.658  0.00  0.00    +0.000 A 
ATOM     12  C   UNL     1      41.140  10.740  21.137  0.00  0.00    +0.000 A 
ATOM     13  C   UNL     1      41.661  11.880  21.950  0.00  0.00    +0.000 C 
ATOM     14  C   UNL     1      39.801  10.634  20.832  0.00  0.00    +0.000 A 
ATOM     15  C   UNL     1      38.891  11.701  21.347  0.00  0.00    +0.000 C 
ATOM     16  C   UNL     1      39.327   9.569  20.074  0.00  0.00    +0.000 A 
ENDBRANCH   4   9
BRANCH   8  17
ATOM     17  C   UNL     1      38.271   4.527  15.517  0.00  0.00    +0.000 A 
ATOM     18  C   UNL     1      36.926   4.284  15.355  0.00  0.00    +0.000 A 
ATOM     19  C   UNL     1      36.456   3.025  15.043  0.00  0.00    +0.000 A 
ATOM     20  C   UNL     1      37.315   1.966  14.882  0.00  0.00    +0.000 A 
ATOM     21  C   UNL     1      38.668   2.186  15.041  0.00  0.00    +0.000 A 
ATOM     22  C   UNL     1      39.132   3.468  15.357  0.00  0.00    +0.000 A 
BRANCH  21  23
ATOM     23  O   UNL     1      39.538   1.116  14.879  0.00  0.00    +0.000 OA
ATOM     24  C   UNL     1      40.413   0.972  13.802  0.00  0.00    +0.000 C 
ENDBRANCH  21  23
BRANCH  20  25
ATOM     25  O   UNL     1      36.881   0.683  14.568  0.00  0.00    +0.000 OA
BRANCH  25  26
ATOM     26  C   UNL     1      35.804   0.156  15.314  0.00  0.00    +0.000 C 
BRANCH  26  27
ATOM     27  C   UNL     1      36.310  -0.292  16.619  0.00  0.00    +0.000 A 
ATOM     28  C   UNL     1      37.296  -1.249  16.733  0.00  0.00    +0.000 A 
ATOM     29  C   UNL     1      37.764  -1.661  17.967  0.00  0.00    +0.000 A 
ATOM     30  C   UNL     1      37.247  -1.114  19.110  0.00  0.00    +0.000 A 
ATOM     31  C   UNL     1      36.271  -0.165  19.015  0.00  0.00    +0.000 A 
ATOM     32  C   UNL     1      35.804   0.247  17.800  0.00  0.00    +0.000 A 
ENDBRANCH  26  27
ENDBRANCH  25  26
ENDBRANCH  20  25
ENDBRANCH   8  17
TORSDOF 6
ENDMDL
MODEL 7
REMARK VINA RESULT:      -7.3     25.047     26.788
REMARK  Name = 
REMARK  6 active torsions:
REMARK  status: ('A' for Active; 'I' for Inactive)
REMARK    1  A    between atoms: N_4  and  C_5
REMARK    2  A    between atoms: C_16  and  C_17
REMARK    3  A    between atoms: C_20  and  O_21
REMARK    4  A    between atoms: O_21  and  C_22
REMARK    5  A    between atoms: C_22  and  C_23
REMARK    6  A    between atoms: C_29  and  O_30
REMARK                            x       y       z     vdW  Elec       q    Type
REMARK                         _______ _______ _______ _____ _____    ______ ____
ROOT
ATOM      1  C   UNL     1      27.898  16.304  37.028  0.00  0.00    +0.000 C 
ATOM      2  C   UNL     1      27.507  15.510  38.027  0.00  0.00    +0.000 A 
ATOM      3  N   UNL     1      28.264  14.946  38.984  0.00  0.00    +0.000 NA
ATOM      4  N   UNL     1      27.552  14.215  39.821  0.00  0.00    +0.000 N 
ATOM      5  C   UNL     1      26.273  14.316  39.380  0.00  0.00    +0.000 A 
ATOM      6  O   UNL     1      25.276  13.757  39.914  0.00  0.00    +0.000 OA
ATOM      7  C   UNL     1      26.231  15.119  38.265  0.00  0.00    +0.000 A 
ATOM      8  C   UNL     1      25.169  15.448  37.561  0.00  0.00    +0.000 C 
ENDROOT
BRANCH   4   9
ATOM      9  C   UNL     1      27.997  13.469  40.954  0.00  0.00    +0.000 A 
ATOM     10  C   UNL     1      27.925  13.997  42.225  0.00  0.00    +0.000 A 
ATOM     11  C   UNL     1      28.360  13.263  43.320  0.00  0.00    +0.000 A 
ATOM     12  C   UNL     1      28.877  11.992  43.195  0.00  0.00    +0.000 A 
ATOM     13  C   UNL     1      29.341  11.213  44.384  0.00  0.00    +0.000 C 
ATOM     14  C   UNL     1      28.948  11.463  41.925  0.00  0.00    +0.000 A 
ATOM     15  C   UNL     1      29.507  10.085  41.782  0.00  0.00    +0.000 C 
ATOM     16  C   UNL     1      28.513  12.195  40.826  0.00  0.00    +0.000 A 
ENDBRANCH   4   9
BRANCH   8  17
ATOM     17  C   UNL     1      25.210  16.307  36.388  0.00  0.00    +0.000 A 
ATOM     18  C   UNL     1      24.971  17.662  36.417  0.00  0.00    +0.000 A 
ATOM     19  C   UNL     1      25.025  18.426  35.269  0.00  0.00    +0.000 A 
ATOM     20  C   UNL     1      25.320  17.860  34.053  0.00  0.00    +0.000 A 
ATOM     21  C   UNL     1      25.563  16.503  34.000  0.00  0.00    +0.000 A 
ATOM     22  C   UNL     1      25.506  15.739  35.172  0.00  0.00    +0.000 A 
BRANCH  21  23
ATOM     23  O   UNL     1      25.861  15.929  32.771  0.00  0.00    +0.000 OA
ATOM     24  C   UNL     1      25.230  14.795  32.261  0.00  0.00    +0.000 C 
ENDBRANCH  21  23
BRANCH  20  25
ATOM     25  O   UNL     1      25.384  18.594  32.874  0.00  0.00    +0.000 OA
BRANCH  25  26
ATOM     26  C   UNL     1      24.186  18.761  32.142  0.00  0.00    +0.000 C 
BRANCH  26  27
ATOM     27  C   UNL     1      23.794  20.176  32.198  0.00  0.00    +0.000 A 
ATOM     28  C   UNL     1      24.677  21.167  32.571  0.00  0.00    +0.000 A 
ATOM     29  C   UNL     1      24.295  22.495  32.620  0.00  0.00    +0.000 A 
ATOM     30  C   UNL     1      23.013  22.848  32.292  0.00  0.00    +0.000 A 
ATOM     31  C   UNL     1      22.127  21.879  31.921  0.00  0.00    +0.000 A 
ATOM     32  C   UNL     1      22.497  20.566  31.871  0.00  0.00    +0.000 A 
ENDBRANCH  26  27
ENDBRANCH  25  26
ENDBRANCH  20  25
ENDBRANCH   8  17
TORSDOF 6
ENDMDL
MODEL 8
REMARK VINA RESULT:      -7.3      3.912      9.981
REMARK  Name = 
REMARK  6 active torsions:
REMARK  status: ('A' for Active; 'I' for Inactive)
REMARK    1  A    between atoms: N_4  and  C_5
REMARK    2  A    between atoms: C_16  and  C_17
REMARK    3  A    between atoms: C_20  and  O_21
REMARK    4  A    between atoms: O_21  and  C_22
REMARK    5  A    between atoms: C_22  and  C_23
REMARK    6  A    between atoms: C_29  and  O_30
REMARK                            x       y       z     vdW  Elec       q    Type
REMARK                         _______ _______ _______ _____ _____    ______ ____
ROOT
ATOM      1  C   UNL     1      36.284   2.273  16.948  0.00  0.00    +0.000 C 
ATOM      2  C   UNL     1      36.494   1.107  16.333  0.00  0.00    +0.000 A 
ATOM      3  N   UNL     1      36.023  -0.106  16.673  0.00  0.00    +0.000 NA
ATOM      4  N   UNL     1      36.425  -1.050  15.844  0.00  0.00    +0.000 N 
ATOM      5  C   UNL     1      37.193  -0.412  14.926  0.00  0.00    +0.000 A 
ATOM      6  O   UNL     1      37.772  -0.968  13.953  0.00  0.00    +0.000 OA
ATOM      7  C   UNL     1      37.244   0.930  15.219  0.00  0.00    +0.000 A 
ATOM      8  C   UNL     1      37.890   1.865  14.555  0.00  0.00    +0.000 C 
ENDROOT
BRANCH   4   9
ATOM      9  C   UNL     1      36.135  -2.448  15.876  0.00  0.00    +0.000 A 
ATOM     10  C   UNL     1      36.995  -3.337  16.484  0.00  0.00    +0.000 A 
ATOM     11  C   UNL     1      36.705  -4.694  16.511  0.00  0.00    +0.000 A 
ATOM     12  C   UNL     1      35.562  -5.214  15.941  0.00  0.00    +0.000 A 
ATOM     13  C   UNL     1      35.262  -6.677  15.977  0.00  0.00    +0.000 C 
ATOM     14  C   UNL     1      34.702  -4.324  15.334  0.00  0.00    +0.000 A 
ATOM     15  C   UNL     1      33.462  -4.880  14.714  0.00  0.00    +0.000 C 
ATOM     16  C   UNL     1      34.990  -2.965  15.306  0.00  0.00    +0.000 A 
ENDBRANCH   4   9
BRANCH   8  17
ATOM     17  C   UNL     1      37.892   3.269  14.933  0.00  0.00    +0.000 A 
ATOM     18  C   UNL     1      38.821   3.840  15.775  0.00  0.00    +0.000 A 
ATOM     19  C   UNL     1      38.771   5.180  16.097  0.00  0.00    +0.000 A 
ATOM     20  C   UNL     1      37.791   5.997  15.589  0.00  0.00    +0.000 A 
ATOM     21  C   UNL     1      36.849   5.447  14.744  0.00  0.00    +0.000 A 
ATOM     22  C   UNL     1      36.911   4.085  14.424  0.00  0.00    +0.000 A 
BRANCH  21  23
ATOM     23  O   UNL     1      35.857   6.271  14.229  0.00  0.00    +0.000 OA
ATOM     24  C   UNL     1      35.816   6.719  12.909  0.00  0.00    +0.000 C 
ENDBRANCH  21  23
BRANCH  20  25
ATOM     25  O   UNL     1      37.706   7.351  15.889  0.00  0.00    +0.000 OA
BRANCH  25  26
ATOM     26  C   UNL     1      38.853   7.974  16.432  0.00  0.00    +0.000 C 
BRANCH  26  27
ATOM     27  C   UNL     1      38.676   8.101  17.885  0.00  0.00    +0.000 A 
ATOM     28  C   UNL     1      39.635   7.677  18.780  0.00  0.00    +0.000 A 
ATOM     29  C   UNL     1      39.456   7.803  20.145  0.00  0.00    +0.000 A 
ATOM     30  C   UNL     1      38.305   8.360  20.634  0.00  0.00    +0.000 A 
ATOM     31  C   UNL     1      37.346   8.785  19.761  0.00  0.00    +0.000 A 
ATOM     32  C   UNL     1      37.516   8.665  18.412  0.00  0.00    +0.000 A 
ENDBRANCH  26  27
ENDBRANCH  25  26
ENDBRANCH  20  25
ENDBRANCH   8  17
TORSDOF 6
ENDMDL
MODEL 9
REMARK VINA RESULT:      -7.2      7.363     11.489
REMARK  Name = 
REMARK  6 active torsions:
REMARK  status: ('A' for Active; 'I' for Inactive)
REMARK    1  A    between atoms: N_4  and  C_5
REMARK    2  A    between atoms: C_16  and  C_17
REMARK    3  A    between atoms: C_20  and  O_21
REMARK    4  A    between atoms: O_21  and  C_22
REMARK    5  A    between atoms: C_22  and  C_23
REMARK    6  A    between atoms: C_29  and  O_30
REMARK                            x       y       z     vdW  Elec       q    Type
REMARK                         _______ _______ _______ _____ _____    ______ ____
ROOT
ATOM      1  C   UNL     1      36.930   0.520  11.175  0.00  0.00    +0.000 C 
ATOM      2  C   UNL     1      37.002   1.490  10.262  0.00  0.00    +0.000 A 
ATOM      3  N   UNL     1      36.214   1.680   9.190  0.00  0.00    +0.000 NA
ATOM      4  N   UNL     1      36.564   2.744   8.492  0.00  0.00    +0.000 N 
ATOM      5  C   UNL     1      37.631   3.264   9.150  0.00  0.00    +0.000 A 
ATOM      6  O   UNL     1      38.264   4.297   8.801  0.00  0.00    +0.000 OA
ATOM      7  C   UNL     1      37.913   2.494  10.253  0.00  0.00    +0.000 A 
ATOM      8  C   UNL     1      38.874   2.684  11.132  0.00  0.00    +0.000 C 
ENDROOT
BRANCH   4   9
ATOM      9  C   UNL     1      35.973   3.263   7.301  0.00  0.00    +0.000 A 
ATOM     10  C   UNL     1      35.427   4.528   7.272  0.00  0.00    +0.000 A 
ATOM     11  C   UNL     1      34.855   5.025   6.110  0.00  0.00    +0.000 A 
ATOM     12  C   UNL     1      34.804   4.292   4.943  0.00  0.00    +0.000 A 
ATOM     13  C   UNL     1      34.185   4.839   3.699  0.00  0.00    +0.000 C 
ATOM     14  C   UNL     1      35.350   3.027   4.972  0.00  0.00    +0.000 A 
ATOM     15  C   UNL     1      35.298   2.227   3.711  0.00  0.00    +0.000 C 
ATOM     16  C   UNL     1      35.924   2.527   6.135  0.00  0.00    +0.000 A 
ENDBRANCH   4   9
BRANCH   8  17
ATOM     17  C   UNL     1      39.106   1.818  12.276  0.00  0.00    +0.000 A 
ATOM     18  C   UNL     1      39.977   0.752  12.273  0.00  0.00    +0.000 A 
ATOM     19  C   UNL     1      40.155  -0.035  13.392  0.00  0.00    +0.000 A 
ATOM     20  C   UNL     1      39.469   0.218  14.554  0.00  0.00    +0.000 A 
ATOM     21  C   UNL     1      38.590   1.281  14.581  0.00  0.00    +0.000 A 
ATOM     22  C   UNL     1      38.418   2.072  13.438  0.00  0.00    +0.000 A 
BRANCH  21  23
ATOM     23  O   UNL     1      37.894   1.538  15.755  0.00  0.00    +0.000 OA
ATOM     24  C   UNL     1      36.503   1.585  15.848  0.00  0.00    +0.000 C 
ENDBRANCH  21  23
BRANCH  20  25
ATOM     25  O   UNL     1      39.620  -0.550  15.703  0.00  0.00    +0.000 OA
BRANCH  25  26
ATOM     26  C   UNL     1      39.145  -1.881  15.667  0.00  0.00    +0.000 C 
BRANCH  26  27
ATOM     27  C   UNL     1      37.773  -1.905  16.193  0.00  0.00    +0.000 A 
ATOM     28  C   UNL     1      36.686  -2.195  15.395  0.00  0.00    +0.000 A 
ATOM     29  C   UNL     1      35.401  -2.215  15.903  0.00  0.00    +0.000 A 
ATOM     30  C   UNL     1      35.186  -1.942  17.227  0.00  0.00    +0.000 A 
ATOM     31  C   UNL     1      36.251  -1.652  18.030  0.00  0.00    +0.000 A 
ATOM     32  C   UNL     1      37.523  -1.632  17.536  0.00  0.00    +0.000 A 
ENDBRANCH  26  27
ENDBRANCH  25  26
ENDBRANCH  20  25
ENDBRANCH   8  17
TORSDOF 6
ENDMDL
MODEL 10
REMARK VINA RESULT:      -7.2      5.926      8.298
REMARK  Name = 
REMARK  6 active torsions:
REMARK  status: ('A' for Active; 'I' for Inactive)
REMARK    1  A    between atoms: N_4  and  C_5
REMARK    2  A    between atoms: C_16  and  C_17
REMARK    3  A    between atoms: C_20  and  O_21
REMARK    4  A    between atoms: O_21  and  C_22
REMARK    5  A    between atoms: C_22  and  C_23
REMARK    6  A    between atoms: C_29  and  O_30
REMARK                            x       y       z     vdW  Elec       q    Type
REMARK                         _______ _______ _______ _____ _____    ______ ____
ROOT
ATOM      1  C   UNL     1      37.630   5.432  15.102  0.00  0.00    +0.000 C 
ATOM      2  C   UNL     1      36.594   6.214  14.789  0.00  0.00    +0.000 A 
ATOM      3  N   UNL     1      36.529   7.556  14.825  0.00  0.00    +0.000 NA
ATOM      4  N   UNL     1      35.348   8.010  14.448  0.00  0.00    +0.000 N 
ATOM      5  C   UNL     1      34.619   6.904  14.156  0.00  0.00    +0.000 A 
ATOM      6  O   UNL     1      33.423   6.909  13.755  0.00  0.00    +0.000 OA
ATOM      7  C   UNL     1      35.383   5.780  14.364  0.00  0.00    +0.000 A 
ATOM      8  C   UNL     1      35.020   4.527  14.188  0.00  0.00    +0.000 C 
ENDROOT
BRANCH   4   9
ATOM      9  C   UNL     1      34.901   9.363  14.357  0.00  0.00    +0.000 A 
ATOM     10  C   UNL     1      34.737   9.975  13.133  0.00  0.00    +0.000 A 
ATOM     11  C   UNL     1      34.302  11.291  13.054  0.00  0.00    +0.000 A 
ATOM     12  C   UNL     1      34.016  12.040  14.175  0.00  0.00    +0.000 A 
ATOM     13  C   UNL     1      33.547  13.455  14.075  0.00  0.00    +0.000 C 
ATOM     14  C   UNL     1      34.178  11.427  15.399  0.00  0.00    +0.000 A 
ATOM     15  C   UNL     1      33.870  12.233  16.618  0.00  0.00    +0.000 C 
ATOM     16  C   UNL     1      34.614  10.110  15.481  0.00  0.00    +0.000 A 
ENDBRANCH   4   9
BRANCH   8  17
ATOM     17  C   UNL     1      35.893   3.390  14.432  0.00  0.00    +0.000 A 
ATOM     18  C   UNL     1      36.752   2.863  13.495  0.00  0.00    +0.000 A 
ATOM     19  C   UNL     1      37.557   1.781  13.785  0.00  0.00    +0.000 A 
ATOM     20  C   UNL     1      37.530   1.189  15.024  0.00  0.00    +0.000 A 
ATOM     21  C   UNL     1      36.676   1.700  15.979  0.00  0.00    +0.000 A 
ATOM     22  C   UNL     1      35.864   2.799  15.672  0.00  0.00    +0.000 A 
BRANCH  21  23
ATOM     23  O   UNL     1      36.647   1.101  17.232  0.00  0.00    +0.000 OA
ATOM     24  C   UNL     1      35.594   0.317  17.703  0.00  0.00    +0.000 C 
ENDBRANCH  21  23
BRANCH  20  25
ATOM     25  O   UNL     1      38.325   0.098  15.356  0.00  0.00    +0.000 OA
BRANCH  25  26
ATOM     26  C   UNL     1      38.003  -1.148  14.771  0.00  0.00    +0.000 C 
BRANCH  26  27
ATOM     27  C   UNL     1      38.101  -2.191  15.801  0.00  0.00    +0.000 A 
ATOM     28  C   UNL     1      38.601  -1.932  17.060  0.00  0.00    +0.000 A 
ATOM     29  C   UNL     1      38.687  -2.923  18.021  0.00  0.00    +0.000 A 
ATOM     30  C   UNL     1      38.271  -4.194  17.730  0.00  0.00    +0.000 A 
ATOM     31  C   UNL     1      37.774  -4.466  16.488  0.00  0.00    +0.000 A 
ATOM     32  C   UNL     1      37.685  -3.493  15.535  0.00  0.00    +0.000 A 
ENDBRANCH  26  27
ENDBRANCH  25  26
ENDBRANCH  20  25
ENDBRANCH   8  17
TORSDOF 6
ENDMDL
