MODEL 1
REMARK VINA RESULT:      -6.7      0.000      0.000
REMARK  Name = 
REMARK  2 active torsions:
REMARK  status: ('A' for Active; 'I' for Inactive)
REMARK    1  A    between atoms: N_11  and  C_12
REMARK    2  A    between atoms: C_12  and  C_13
REMARK                            x       y       z     vdW  Elec       q    Type
REMARK                         _______ _______ _______ _____ _____    ______ ____
ROOT
ATOM      1  C   UNL     1      29.830  26.452  23.264  0.00  0.00    +0.000 C 
ATOM      2  C   UNL     1      29.354  25.184  22.350  0.00  0.00    +0.000 C 
ATOM      3  C   UNL     1      29.053  25.999  20.974  0.00  0.00    +0.000 C 
ATOM      4  C   UNL     1      28.756  27.387  21.204  0.00  0.00    +0.000 C 
ATOM      5  C   UNL     1      27.631  27.626  22.146  0.00  0.00    +0.000 C 
ATOM      6  C   UNL     1      27.323  26.525  23.073  0.00  0.00    +0.000 C 
ATOM      7  C   UNL     1      27.807  25.206  22.858  0.00  0.00    +0.000 C 
ATOM      8  N   UNL     1      27.083  24.331  21.998  0.00  0.00    +0.000 NA
ATOM      9  C   UNL     1      26.285  23.454  22.776  0.00  0.00    +0.000 C 
ATOM     10  O   UNL     1      25.303  22.738  22.382  0.00  0.00    +0.000 OA
ATOM     11  N   UNL     1      26.784  23.512  24.106  0.00  0.00    +0.000 N 
ATOM     12  C   UNL     1      27.875  24.422  24.118  0.00  0.00    +0.000 C 
ATOM     13  O   UNL     1      28.713  24.515  25.034  0.00  0.00    +0.000 OA
ENDROOT
BRANCH  11  14
ATOM     14  C   UNL     1      26.325  22.813  25.274  0.00  0.00    +0.000 C 
BRANCH  14  15
ATOM     15  C   UNL     1      25.872  23.736  26.345  0.00  0.00    +0.000 A 
ATOM     16  C   UNL     1      24.901  24.699  26.162  0.00  0.00    +0.000 A 
ATOM     17  C   UNL     1      24.498  25.546  27.181  0.00  0.00    +0.000 A 
ATOM     18  C   UNL     1      25.066  25.446  28.421  0.00  0.00    +0.000 A 
ATOM     19  C   UNL     1      26.053  24.479  28.638  0.00  0.00    +0.000 A 
ATOM     20  C   UNL     1      26.435  23.647  27.601  0.00  0.00    +0.000 A 
ATOM     21 CL   UNL     1      27.675  22.454  27.927  0.00  0.00    +0.000 Cl
ENDBRANCH  14  15
ENDBRANCH  11  14
TORSDOF 2
ENDMDL
MODEL 2
REMARK VINA RESULT:      -6.5      2.229      3.078
REMARK  Name = 
REMARK  2 active torsions:
REMARK  status: ('A' for Active; 'I' for Inactive)
REMARK    1  A    between atoms: N_11  and  C_12
REMARK    2  A    between atoms: C_12  and  C_13
REMARK                            x       y       z     vdW  Elec       q    Type
REMARK                         _______ _______ _______ _____ _____    ______ ____
ROOT
ATOM      1  C   UNL     1      29.176  24.796  21.274  0.00  0.00    +0.000 C 
ATOM      2  C   UNL     1      27.614  25.035  21.692  0.00  0.00    +0.000 C 
ATOM      3  C   UNL     1      27.559  26.644  21.450  0.00  0.00    +0.000 C 
ATOM      4  C   UNL     1      28.854  27.264  21.550  0.00  0.00    +0.000 C 
ATOM      5  C   UNL     1      29.560  27.007  22.833  0.00  0.00    +0.000 C 
ATOM      6  C   UNL     1      29.130  25.812  23.575  0.00  0.00    +0.000 C 
ATOM      7  C   UNL     1      27.903  25.152  23.290  0.00  0.00    +0.000 C 
ATOM      8  N   UNL     1      26.701  25.630  23.888  0.00  0.00    +0.000 NA
ATOM      9  C   UNL     1      26.379  24.828  25.012  0.00  0.00    +0.000 C 
ATOM     10  O   UNL     1      25.562  25.101  25.956  0.00  0.00    +0.000 OA
ATOM     11  N   UNL     1      27.145  23.636  24.902  0.00  0.00    +0.000 N 
ATOM     12  C   UNL     1      27.920  23.729  23.715  0.00  0.00    +0.000 C 
ATOM     13  O   UNL     1      28.493  22.772  23.164  0.00  0.00    +0.000 OA
ENDROOT
BRANCH  11  14
ATOM     14  C   UNL     1      27.183  22.502  25.784  0.00  0.00    +0.000 C 
BRANCH  14  15
ATOM     15  C   UNL     1      28.311  22.572  26.747  0.00  0.00    +0.000 A 
ATOM     16  C   UNL     1      29.623  22.312  26.407  0.00  0.00    +0.000 A 
ATOM     17  C   UNL     1      30.655  22.386  27.328  0.00  0.00    +0.000 A 
ATOM     18  C   UNL     1      30.391  22.726  28.626  0.00  0.00    +0.000 A 
ATOM     19  C   UNL     1      29.072  22.996  29.002  0.00  0.00    +0.000 A 
ATOM     20  C   UNL     1      28.062  22.914  28.059  0.00  0.00    +0.000 A 
ATOM     21 CL   UNL     1      26.428  23.262  28.584  0.00  0.00    +0.000 Cl
ENDBRANCH  14  15
ENDBRANCH  11  14
TORSDOF 2
ENDMDL
MODEL 3
REMARK VINA RESULT:      -6.4      2.500      3.200
REMARK  Name = 
REMARK  2 active torsions:
REMARK  status: ('A' for Active; 'I' for Inactive)
REMARK    1  A    between atoms: N_11  and  C_12
REMARK    2  A    between atoms: C_12  and  C_13
REMARK                            x       y       z     vdW  Elec       q    Type
REMARK                         _______ _______ _______ _____ _____    ______ ____
ROOT
ATOM      1  C   UNL     1      31.656  23.913  26.905  0.00  0.00    +0.000 C 
ATOM      2  C   UNL     1      31.332  23.040  25.562  0.00  0.00    +0.000 C 
ATOM      3  C   UNL     1      32.343  23.808  24.544  0.00  0.00    +0.000 C 
ATOM      4  C   UNL     1      32.635  25.154  24.962  0.00  0.00    +0.000 C 
ATOM      5  C   UNL     1      31.435  26.007  25.165  0.00  0.00    +0.000 C 
ATOM      6  C   UNL     1      30.172  25.294  25.416  0.00  0.00    +0.000 C 
ATOM      7  C   UNL     1      30.024  23.908  25.131  0.00  0.00    +0.000 C 
ATOM      8  N   UNL     1      29.682  23.503  23.809  0.00  0.00    +0.000 NA
ATOM      9  C   UNL     1      28.293  23.230  23.740  0.00  0.00    +0.000 C 
ATOM     10  O   UNL     1      27.570  23.122  22.692  0.00  0.00    +0.000 OA
ATOM     11  N   UNL     1      27.833  23.092  25.078  0.00  0.00    +0.000 N 
ATOM     12  C   UNL     1      28.947  23.282  25.939  0.00  0.00    +0.000 C 
ATOM     13  O   UNL     1      28.976  22.971  27.144  0.00  0.00    +0.000 OA
ENDROOT
BRANCH  11  14
ATOM     14  C   UNL     1      26.506  22.812  25.552  0.00  0.00    +0.000 C 
BRANCH  14  15
ATOM     15  C   UNL     1      25.735  24.048  25.841  0.00  0.00    +0.000 A 
ATOM     16  C   UNL     1      25.247  24.889  24.862  0.00  0.00    +0.000 A 
ATOM     17  C   UNL     1      24.530  26.036  25.161  0.00  0.00    +0.000 A 
ATOM     18  C   UNL     1      24.284  26.369  26.465  0.00  0.00    +0.000 A 
ATOM     19  C   UNL     1      24.766  25.537  27.480  0.00  0.00    +0.000 A 
ATOM     20  C   UNL     1      25.478  24.397  27.150  0.00  0.00    +0.000 A 
ATOM     21 CL   UNL     1      26.059  23.391  28.460  0.00  0.00    +0.000 Cl
ENDBRANCH  14  15
ENDBRANCH  11  14
TORSDOF 2
ENDMDL
MODEL 4
REMARK VINA RESULT:      -6.4      2.596      3.733
REMARK  Name = 
REMARK  2 active torsions:
REMARK  status: ('A' for Active; 'I' for Inactive)
REMARK    1  A    between atoms: N_11  and  C_12
REMARK    2  A    between atoms: C_12  and  C_13
REMARK                            x       y       z     vdW  Elec       q    Type
REMARK                         _______ _______ _______ _____ _____    ______ ____
ROOT
ATOM      1  C   UNL     1      26.927  28.935  23.182  0.00  0.00    +0.000 C 
ATOM      2  C   UNL     1      28.421  28.326  22.925  0.00  0.00    +0.000 C 
ATOM      3  C   UNL     1      28.868  29.325  21.721  0.00  0.00    +0.000 C 
ATOM      4  C   UNL     1      27.744  29.874  21.009  0.00  0.00    +0.000 C 
ATOM      5  C   UNL     1      26.814  28.856  20.453  0.00  0.00    +0.000 C 
ATOM      6  C   UNL     1      26.849  27.533  21.096  0.00  0.00    +0.000 C 
ATOM      7  C   UNL     1      27.928  27.133  21.932  0.00  0.00    +0.000 C 
ATOM      8  N   UNL     1      29.101  26.584  21.340  0.00  0.00    +0.000 NA
ATOM      9  C   UNL     1      29.064  25.170  21.435  0.00  0.00    +0.000 C 
ATOM     10  O   UNL     1      29.769  24.325  20.786  0.00  0.00    +0.000 OA
ATOM     11  N   UNL     1      28.077  24.848  22.408  0.00  0.00    +0.000 N 
ATOM     12  C   UNL     1      27.531  26.068  22.888  0.00  0.00    +0.000 C 
ATOM     13  O   UNL     1      26.849  26.183  23.923  0.00  0.00    +0.000 OA
ENDROOT
BRANCH  11  14
ATOM     14  C   UNL     1      27.655  23.556  22.872  0.00  0.00    +0.000 C 
BRANCH  14  15
ATOM     15  C   UNL     1      28.407  23.114  24.075  0.00  0.00    +0.000 A 
ATOM     16  C   UNL     1      29.773  22.921  24.093  0.00  0.00    +0.000 A 
ATOM     17  C   UNL     1      30.446  22.509  25.231  0.00  0.00    +0.000 A 
ATOM     18  C   UNL     1      29.757  22.276  26.389  0.00  0.00    +0.000 A 
ATOM     19  C   UNL     1      28.371  22.463  26.402  0.00  0.00    +0.000 A 
ATOM     20  C   UNL     1      27.726  22.876  25.250  0.00  0.00    +0.000 A 
ATOM     21 CL   UNL     1      25.990  23.093  25.322  0.00  0.00    +0.000 Cl
ENDBRANCH  14  15
ENDBRANCH  11  14
TORSDOF 2
ENDMDL
MODEL 5
REMARK VINA RESULT:      -6.0      2.397      3.469
REMARK  Name = 
REMARK  2 active torsions:
REMARK  status: ('A' for Active; 'I' for Inactive)
REMARK    1  A    between atoms: N_11  and  C_12
REMARK    2  A    between atoms: C_12  and  C_13
REMARK                            x       y       z     vdW  Elec       q    Type
REMARK                         _______ _______ _______ _____ _____    ______ ____
ROOT
ATOM      1  C   UNL     1      27.258  25.937  23.029  0.00  0.00    +0.000 C 
ATOM      2  C   UNL     1      28.641  25.069  23.084  0.00  0.00    +0.000 C 
ATOM      3  C   UNL     1      28.271  23.983  21.930  0.00  0.00    +0.000 C 
ATOM      4  C   UNL     1      26.852  23.820  21.755  0.00  0.00    +0.000 C 
ATOM      5  C   UNL     1      26.120  23.454  22.996  0.00  0.00    +0.000 C 
ATOM      6  C   UNL     1      26.787  23.796  24.262  0.00  0.00    +0.000 C 
ATOM      7  C   UNL     1      28.171  24.116  24.318  0.00  0.00    +0.000 C 
ATOM      8  N   UNL     1      29.126  23.063  24.406  0.00  0.00    +0.000 NA
ATOM      9  C   UNL     1      29.543  22.912  25.753  0.00  0.00    +0.000 C 
ATOM     10  O   UNL     1      30.153  21.917  26.274  0.00  0.00    +0.000 OA
ATOM     11  N   UNL     1      29.153  24.094  26.440  0.00  0.00    +0.000 N 
ATOM     12  C   UNL     1      28.507  24.944  25.504  0.00  0.00    +0.000 C 
ATOM     13  O   UNL     1      28.281  26.155  25.682  0.00  0.00    +0.000 OA
ENDROOT
BRANCH  11  14
ATOM     14  C   UNL     1      29.343  24.439  27.822  0.00  0.00    +0.000 C 
BRANCH  14  15
ATOM     15  C   UNL     1      28.343  23.790  28.709  0.00  0.00    +0.000 A 
ATOM     16  C   UNL     1      26.986  24.024  28.629  0.00  0.00    +0.000 A 
ATOM     17  C   UNL     1      26.077  23.404  29.470  0.00  0.00    +0.000 A 
ATOM     18  C   UNL     1      26.515  22.525  30.423  0.00  0.00    +0.000 A 
ATOM     19  C   UNL     1      27.885  22.267  30.529  0.00  0.00    +0.000 A 
ATOM     20  C   UNL     1      28.769  22.901  29.674  0.00  0.00    +0.000 A 
ATOM     21 CL   UNL     1      30.474  22.542  29.850  0.00  0.00    +0.000 Cl
ENDBRANCH  14  15
ENDBRANCH  11  14
TORSDOF 2
ENDMDL
MODEL 6
REMARK VINA RESULT:      -5.7      2.710      4.877
REMARK  Name = 
REMARK  2 active torsions:
REMARK  status: ('A' for Active; 'I' for Inactive)
REMARK    1  A    between atoms: N_11  and  C_12
REMARK    2  A    between atoms: C_12  and  C_13
REMARK                            x       y       z     vdW  Elec       q    Type
REMARK                         _______ _______ _______ _____ _____    ______ ____
ROOT
ATOM      1  C   UNL     1      25.510  27.612  26.408  0.00  0.00    +0.000 C 
ATOM      2  C   UNL     1      25.061  26.933  24.991  0.00  0.00    +0.000 C 
ATOM      3  C   UNL     1      23.574  26.442  25.436  0.00  0.00    +0.000 C 
ATOM      4  C   UNL     1      23.456  26.251  26.858  0.00  0.00    +0.000 C 
ATOM      5  C   UNL     1      24.453  25.311  27.435  0.00  0.00    +0.000 C 
ATOM      6  C   UNL     1      25.682  25.114  26.649  0.00  0.00    +0.000 C 
ATOM      7  C   UNL     1      25.768  25.495  25.282  0.00  0.00    +0.000 C 
ATOM      8  N   UNL     1      25.299  24.599  24.279  0.00  0.00    +0.000 NA
ATOM      9  C   UNL     1      26.397  23.904  23.712  0.00  0.00    +0.000 C 
ATOM     10  O   UNL     1      26.366  22.839  23.007  0.00  0.00    +0.000 OA
ATOM     11  N   UNL     1      27.570  24.621  24.075  0.00  0.00    +0.000 N 
ATOM     12  C   UNL     1      27.169  25.738  24.855  0.00  0.00    +0.000 C 
ATOM     13  O   UNL     1      27.889  26.720  25.113  0.00  0.00    +0.000 OA
ENDROOT
BRANCH  11  14
ATOM     14  C   UNL     1      28.940  24.333  23.752  0.00  0.00    +0.000 C 
BRANCH  14  15
ATOM     15  C   UNL     1      29.682  23.750  24.900  0.00  0.00    +0.000 A 
ATOM     16  C   UNL     1      29.319  22.576  25.526  0.00  0.00    +0.000 A 
ATOM     17  C   UNL     1      30.031  22.056  26.594  0.00  0.00    +0.000 A 
ATOM     18  C   UNL     1      31.137  22.711  27.064  0.00  0.00    +0.000 A 
ATOM     19  C   UNL     1      31.531  23.904  26.449  0.00  0.00    +0.000 A 
ATOM     20  C   UNL     1      30.799  24.398  25.384  0.00  0.00    +0.000 A 
ATOM     21 CL   UNL     1      31.336  25.895  24.651  0.00  0.00    +0.000 Cl
ENDBRANCH  14  15
ENDBRANCH  11  14
TORSDOF 2
ENDMDL
MODEL 7
REMARK VINA RESULT:      -5.7      2.485      3.184
REMARK  Name = 
REMARK  2 active torsions:
REMARK  status: ('A' for Active; 'I' for Inactive)
REMARK    1  A    between atoms: N_11  and  C_12
REMARK    2  A    between atoms: C_12  and  C_13
REMARK                            x       y       z     vdW  Elec       q    Type
REMARK                         _______ _______ _______ _____ _____    ______ ____
ROOT
ATOM      1  C   UNL     1      29.219  28.461  23.287  0.00  0.00    +0.000 C 
ATOM      2  C   UNL     1      28.637  27.665  21.983  0.00  0.00    +0.000 C 
ATOM      3  C   UNL     1      27.302  28.565  21.746  0.00  0.00    +0.000 C 
ATOM      4  C   UNL     1      26.858  29.226  22.945  0.00  0.00    +0.000 C 
ATOM      5  C   UNL     1      26.612  28.315  24.093  0.00  0.00    +0.000 C 
ATOM      6  C   UNL     1      27.304  27.017  24.044  0.00  0.00    +0.000 C 
ATOM      7  C   UNL     1      27.870  26.513  22.841  0.00  0.00    +0.000 C 
ATOM      8  N   UNL     1      27.040  25.806  21.924  0.00  0.00    +0.000 NA
ATOM      9  C   UNL     1      27.226  24.410  22.094  0.00  0.00    +0.000 C 
ATOM     10  O   UNL     1      26.475  23.467  21.675  0.00  0.00    +0.000 OA
ATOM     11  N   UNL     1      28.430  24.242  22.833  0.00  0.00    +0.000 N 
ATOM     12  C   UNL     1      28.956  25.534  23.100  0.00  0.00    +0.000 C 
ATOM     13  O   UNL     1      30.119  25.762  23.482  0.00  0.00    +0.000 OA
ENDROOT
BRANCH  11  14
ATOM     14  C   UNL     1      29.061  23.026  23.265  0.00  0.00    +0.000 C 
BRANCH  14  15
ATOM     15  C   UNL     1      28.999  22.849  24.739  0.00  0.00    +0.000 A 
ATOM     16  C   UNL     1      27.819  22.770  25.449  0.00  0.00    +0.000 A 
ATOM     17  C   UNL     1      27.793  22.604  26.824  0.00  0.00    +0.000 A 
ATOM     18  C   UNL     1      28.964  22.513  27.526  0.00  0.00    +0.000 A 
ATOM     19  C   UNL     1      30.177  22.590  26.834  0.00  0.00    +0.000 A 
ATOM     20  C   UNL     1      30.171  22.755  25.460  0.00  0.00    +0.000 A 
ATOM     21 CL   UNL     1      31.717  22.846  24.643  0.00  0.00    +0.000 Cl
ENDBRANCH  14  15
ENDBRANCH  11  14
TORSDOF 2
ENDMDL
MODEL 8
REMARK VINA RESULT:      -5.7      3.158      5.696
REMARK  Name = 
REMARK  2 active torsions:
REMARK  status: ('A' for Active; 'I' for Inactive)
REMARK    1  A    between atoms: N_11  and  C_12
REMARK    2  A    between atoms: C_12  and  C_13
REMARK                            x       y       z     vdW  Elec       q    Type
REMARK                         _______ _______ _______ _____ _____    ______ ____
ROOT
ATOM      1  C   UNL     1      24.132  26.833  25.973  0.00  0.00    +0.000 C 
ATOM      2  C   UNL     1      23.972  25.699  27.139  0.00  0.00    +0.000 C 
ATOM      3  C   UNL     1      23.960  26.698  28.424  0.00  0.00    +0.000 C 
ATOM      4  C   UNL     1      24.621  27.949  28.161  0.00  0.00    +0.000 C 
ATOM      5  C   UNL     1      26.022  27.814  27.684  0.00  0.00    +0.000 C 
ATOM      6  C   UNL     1      26.373  26.522  27.073  0.00  0.00    +0.000 C 
ATOM      7  C   UNL     1      25.562  25.366  27.244  0.00  0.00    +0.000 C 
ATOM      8  N   UNL     1      25.734  24.562  28.407  0.00  0.00    +0.000 NA
ATOM      9  C   UNL     1      26.532  23.433  28.089  0.00  0.00    +0.000 C 
ATOM     10  O   UNL     1      27.134  22.651  28.900  0.00  0.00    +0.000 OA
ATOM     11  N   UNL     1      26.542  23.321  26.672  0.00  0.00    +0.000 N 
ATOM     12  C   UNL     1      25.753  24.381  26.150  0.00  0.00    +0.000 C 
ATOM     13  O   UNL     1      25.322  24.438  24.983  0.00  0.00    +0.000 OA
ENDROOT
BRANCH  11  14
ATOM     14  C   UNL     1      27.202  22.347  25.848  0.00  0.00    +0.000 C 
BRANCH  14  15
ATOM     15  C   UNL     1      28.639  22.663  25.638  0.00  0.00    +0.000 A 
ATOM     16  C   UNL     1      29.604  22.509  26.612  0.00  0.00    +0.000 A 
ATOM     17  C   UNL     1      30.937  22.811  26.386  0.00  0.00    +0.000 A 
ATOM     18  C   UNL     1      31.336  23.281  25.165  0.00  0.00    +0.000 A 
ATOM     19  C   UNL     1      30.380  23.448  24.157  0.00  0.00    +0.000 A 
ATOM     20  C   UNL     1      29.056  23.136  24.412  0.00  0.00    +0.000 A 
ATOM     21 CL   UNL     1      27.902  23.364  23.116  0.00  0.00    +0.000 Cl
ENDBRANCH  14  15
ENDBRANCH  11  14
TORSDOF 2
ENDMDL
MODEL 9
REMARK VINA RESULT:      -5.7     31.939     33.936
REMARK  Name = 
REMARK  2 active torsions:
REMARK  status: ('A' for Active; 'I' for Inactive)
REMARK    1  A    between atoms: N_11  and  C_12
REMARK    2  A    between atoms: C_12  and  C_13
REMARK                            x       y       z     vdW  Elec       q    Type
REMARK                         _______ _______ _______ _____ _____    ______ ____
ROOT
ATOM      1  C   UNL     1      22.478  -6.067  23.487  0.00  0.00    +0.000 C 
ATOM      2  C   UNL     1      23.214  -6.869  24.706  0.00  0.00    +0.000 C 
ATOM      3  C   UNL     1      24.340  -7.642  23.821  0.00  0.00    +0.000 C 
ATOM      4  C   UNL     1      23.947  -7.809  22.447  0.00  0.00    +0.000 C 
ATOM      5  C   UNL     1      22.645  -8.503  22.261  0.00  0.00    +0.000 C 
ATOM      6  C   UNL     1      21.726  -8.466  23.410  0.00  0.00    +0.000 C 
ATOM      7  C   UNL     1      22.171  -8.119  24.715  0.00  0.00    +0.000 C 
ATOM      8  N   UNL     1      22.746  -9.124  25.545  0.00  0.00    +0.000 NA
ATOM      9  C   UNL     1      21.773  -9.594  26.464  0.00  0.00    +0.000 C 
ATOM     10  O   UNL     1      21.812 -10.664  27.161  0.00  0.00    +0.000 OA
ATOM     11  N   UNL     1      20.720  -8.638  26.475  0.00  0.00    +0.000 N 
ATOM     12  C   UNL     1      21.067  -7.604  25.565  0.00  0.00    +0.000 C 
ATOM     13  O   UNL     1      20.521  -6.487  25.518  0.00  0.00    +0.000 OA
ENDROOT
BRANCH  11  14
ATOM     14  C   UNL     1      19.502  -8.646  27.236  0.00  0.00    +0.000 C 
BRANCH  14  15
ATOM     15  C   UNL     1      18.305  -8.881  26.388  0.00  0.00    +0.000 A 
ATOM     16  C   UNL     1      18.106 -10.030  25.651  0.00  0.00    +0.000 A 
ATOM     17  C   UNL     1      16.979 -10.222  24.869  0.00  0.00    +0.000 A 
ATOM     18  C   UNL     1      16.016  -9.253  24.808  0.00  0.00    +0.000 A 
ATOM     19  C   UNL     1      16.189  -8.076  25.544  0.00  0.00    +0.000 A 
ATOM     20  C   UNL     1      17.325  -7.914  26.316  0.00  0.00    +0.000 A 
ATOM     21 CL   UNL     1      17.492  -6.422  27.217  0.00  0.00    +0.000 Cl
ENDBRANCH  14  15
ENDBRANCH  11  14
TORSDOF 2
ENDMDL
MODEL 10
REMARK VINA RESULT:      -5.7      2.374      5.909
REMARK  Name = 
REMARK  2 active torsions:
REMARK  status: ('A' for Active; 'I' for Inactive)
REMARK    1  A    between atoms: N_11  and  C_12
REMARK    2  A    between atoms: C_12  and  C_13
REMARK                            x       y       z     vdW  Elec       q    Type
REMARK                         _______ _______ _______ _____ _____    ______ ____
ROOT
ATOM      1  C   UNL     1      26.945  23.054  28.280  0.00  0.00    +0.000 C 
ATOM      2  C   UNL     1      28.225  22.290  27.612  0.00  0.00    +0.000 C 
ATOM      3  C   UNL     1      29.344  22.720  28.712  0.00  0.00    +0.000 C 
ATOM      4  C   UNL     1      29.001  23.931  29.409  0.00  0.00    +0.000 C 
ATOM      5  C   UNL     1      28.744  25.097  28.523  0.00  0.00    +0.000 C 
ATOM      6  C   UNL     1      28.372  24.780  27.134  0.00  0.00    +0.000 C 
ATOM      7  C   UNL     1      28.592  23.491  26.575  0.00  0.00    +0.000 C 
ATOM      8  N   UNL     1      29.868  23.179  26.024  0.00  0.00    +0.000 NA
ATOM      9  C   UNL     1      29.823  23.316  24.614  0.00  0.00    +0.000 C 
ATOM     10  O   UNL     1      30.810  23.404  23.807  0.00  0.00    +0.000 OA
ATOM     11  N   UNL     1      28.450  23.337  24.245  0.00  0.00    +0.000 N 
ATOM     12  C   UNL     1      27.682  23.214  25.434  0.00  0.00    +0.000 C 
ATOM     13  O   UNL     1      26.472  22.926  25.471  0.00  0.00    +0.000 OA
ENDROOT
BRANCH  11  14
ATOM     14  C   UNL     1      27.868  23.458  22.937  0.00  0.00    +0.000 C 
BRANCH  14  15
ATOM     15  C   UNL     1      28.231  24.735  22.271  0.00  0.00    +0.000 A 
ATOM     16  C   UNL     1      29.180  24.834  21.275  0.00  0.00    +0.000 A 
ATOM     17  C   UNL     1      29.497  26.040  20.672  0.00  0.00    +0.000 A 
ATOM     18  C   UNL     1      28.861  27.188  21.060  0.00  0.00    +0.000 A 
ATOM     19  C   UNL     1      27.894  27.120  22.067  0.00  0.00    +0.000 A 
ATOM     20  C   UNL     1      27.598  25.900  22.651  0.00  0.00    +0.000 A 
ATOM     21 CL   UNL     1      26.379  25.872  23.907  0.00  0.00    +0.000 Cl
ENDBRANCH  14  15
ENDBRANCH  11  14
TORSDOF 2
ENDMDL
