MODEL 1
REMARK VINA RESULT:      -8.5      0.000      0.000
REMARK  Name = 
REMARK  5 active torsions:
REMARK  status: ('A' for Active; 'I' for Inactive)
REMARK    1  A    between atoms: O_2  and  C_3
REMARK    2  A    between atoms: C_6  and  C_7
REMARK    3  A    between atoms: C_11  and  C_12
REMARK    4  A    between atoms: N_15  and  C_16
REMARK    5  A    between atoms: C_16  and  C_18
REMARK                            x       y       z     vdW  Elec       q    Type
REMARK                         _______ _______ _______ _____ _____    ______ ____
ROOT
ATOM      1  C   UNL     1      36.928   3.221  15.684  0.00  0.00    +0.000 A 
ATOM      2  C   UNL     1      37.589   4.125  16.478  0.00  0.00    +0.000 A 
ATOM      3  C   UNL     1      38.178   5.278  16.003  0.00  0.00    +0.000 A 
ATOM      4  N   UNL     1      38.869   6.228  16.797  0.00  0.00    +0.000 NA
ATOM      5  N   UNL     1      38.084   5.502  14.687  0.00  0.00    +0.000 NA
ATOM      6  C   UNL     1      37.439   4.631  13.874  0.00  0.00    +0.000 A 
ATOM      7  C   UNL     1      37.345   4.896  12.425  0.00  0.00    +0.000 C 
ATOM      8  N   UNL     1      36.865   3.499  14.373  0.00  0.00    +0.000 NA
ENDROOT
BRANCH   1  13
ATOM      9  C   UNL     1      36.437  -0.204  17.112  0.00  0.00    +0.000 A 
ATOM     10  C   UNL     1      35.069  -0.187  17.267  0.00  0.00    +0.000 A 
ATOM     11  N   UNL     1      34.325   0.878  16.930  0.00  0.00    +0.000 NA
ATOM     12  C   UNL     1      34.946   1.949  16.428  0.00  0.00    +0.000 A 
ATOM     13  C   UNL     1      36.311   1.995  16.248  0.00  0.00    +0.000 A 
ATOM     14  C   UNL     1      37.058   0.910  16.591  0.00  0.00    +0.000 A 
BRANCH   9  18
ATOM     15  C   UNL     1      38.584  -3.609  18.372  0.00  0.00    +0.000 A 
ATOM     16  C   UNL     1      38.110  -2.720  19.308  0.00  0.00    +0.000 A 
ATOM     17  C   UNL     1      37.413  -1.622  18.839  0.00  0.00    +0.000 A 
ATOM     18  C   UNL     1      37.192  -1.408  17.503  0.00  0.00    +0.000 A 
ATOM     19  C   UNL     1      37.664  -2.292  16.576  0.00  0.00    +0.000 A 
ATOM     20  C   UNL     1      38.361  -3.392  17.025  0.00  0.00    +0.000 A 
BRANCH  15  22
ATOM     21  C   UNL     1      38.990  -5.303  20.060  0.00  0.00    +0.000 C 
ATOM     22  O   UNL     1      39.299  -4.740  18.800  0.00  0.00    +0.000 OA
ENDBRANCH  15  22
ENDBRANCH   9  18
ENDBRANCH   1  13
BRANCH   4  23
ATOM     23  C   UNL     1      38.879   5.788  18.325  0.00  0.00    +0.000 C 
ATOM     24  C   UNL     1      38.299   7.280  18.835  0.00  0.00    +0.000 C 
BRANCH  23  25
ATOM     25  C   UNL     1      40.394   6.153  18.570  0.00  0.00    +0.000 A 
ATOM     26  C   UNL     1      41.253   6.303  17.546  0.00  0.00    +0.000 A 
ATOM     27  C   UNL     1      42.579   6.626  17.810  0.00  0.00    +0.000 A 
ATOM     28  C   UNL     1      42.936   6.774  19.114  0.00  0.00    +0.000 A 
ATOM     29  C   UNL     1      42.086   6.628  20.177  0.00  0.00    +0.000 A 
ATOM     30  C   UNL     1      40.746   6.299  19.867  0.00  0.00    +0.000 A 
ENDBRANCH  23  25
ENDBRANCH   4  23
TORSDOF 5
ENDMDL
MODEL 2
REMARK VINA RESULT:      -8.4     23.444     26.737
REMARK  Name = 
REMARK  5 active torsions:
REMARK  status: ('A' for Active; 'I' for Inactive)
REMARK    1  A    between atoms: O_2  and  C_3
REMARK    2  A    between atoms: C_6  and  C_7
REMARK    3  A    between atoms: C_11  and  C_12
REMARK    4  A    between atoms: N_15  and  C_16
REMARK    5  A    between atoms: C_16  and  C_18
REMARK                            x       y       z     vdW  Elec       q    Type
REMARK                         _______ _______ _______ _____ _____    ______ ____
ROOT
ATOM      1  C   UNL     1      13.637   0.039  26.774  0.00  0.00    +0.000 A 
ATOM      2  C   UNL     1      12.742   0.916  27.337  0.00  0.00    +0.000 A 
ATOM      3  C   UNL     1      11.381   0.866  27.126  0.00  0.00    +0.000 A 
ATOM      4  N   UNL     1      10.434   1.756  27.692  0.00  0.00    +0.000 NA
ATOM      5  N   UNL     1      10.933  -0.105  26.320  0.00  0.00    +0.000 NA
ATOM      6  C   UNL     1      11.788  -0.986  25.747  0.00  0.00    +0.000 A 
ATOM      7  C   UNL     1      11.276  -2.051  24.862  0.00  0.00    +0.000 C 
ATOM      8  N   UNL     1      13.130  -0.912  25.975  0.00  0.00    +0.000 NA
ENDROOT
BRANCH   1  13
ATOM      9  C   UNL     1      17.350   0.196  26.323  0.00  0.00    +0.000 A 
ATOM     10  C   UNL     1      17.729   0.328  27.639  0.00  0.00    +0.000 A 
ATOM     11  N   UNL     1      16.835   0.368  28.640  0.00  0.00    +0.000 NA
ATOM     12  C   UNL     1      15.538   0.273  28.332  0.00  0.00    +0.000 A 
ATOM     13  C   UNL     1      15.094   0.139  27.035  0.00  0.00    +0.000 A 
ATOM     14  C   UNL     1      16.008   0.099  26.027  0.00  0.00    +0.000 A 
BRANCH   9  18
ATOM     15  C   UNL     1      20.302  -0.054  23.321  0.00  0.00    +0.000 A 
ATOM     16  C   UNL     1      19.738  -1.206  23.817  0.00  0.00    +0.000 A 
ATOM     17  C   UNL     1      18.777  -1.066  24.799  0.00  0.00    +0.000 A 
ATOM     18  C   UNL     1      18.385   0.160  25.274  0.00  0.00    +0.000 A 
ATOM     19  C   UNL     1      18.945   1.302  24.780  0.00  0.00    +0.000 A 
ATOM     20  C   UNL     1      19.907   1.181  23.800  0.00  0.00    +0.000 A 
BRANCH  15  22
ATOM     21  C   UNL     1      21.224  -1.219  21.403  0.00  0.00    +0.000 C 
ATOM     22  O   UNL     1      21.285  -0.146  22.321  0.00  0.00    +0.000 OA
ENDBRANCH  15  22
ENDBRANCH   9  18
ENDBRANCH   1  13
BRANCH   4  23
ATOM     23  C   UNL     1      11.153   2.836  28.611  0.00  0.00    +0.000 C 
ATOM     24  C   UNL     1      10.786   1.991  30.017  0.00  0.00    +0.000 C 
BRANCH  23  25
ATOM     25  C   UNL     1       9.902   3.793  28.713  0.00  0.00    +0.000 A 
ATOM     26  C   UNL     1       9.209   4.158  27.620  0.00  0.00    +0.000 A 
ATOM     27  C   UNL     1       8.114   5.003  27.759  0.00  0.00    +0.000 A 
ATOM     28  C   UNL     1       7.802   5.419  29.015  0.00  0.00    +0.000 A 
ATOM     29  C   UNL     1       8.489   5.066  30.146  0.00  0.00    +0.000 A 
ATOM     30  C   UNL     1       9.596   4.206  29.963  0.00  0.00    +0.000 A 
ENDBRANCH  23  25
ENDBRANCH   4  23
TORSDOF 5
ENDMDL
MODEL 3
REMARK VINA RESULT:      -8.2      3.770      8.038
REMARK  Name = 
REMARK  5 active torsions:
REMARK  status: ('A' for Active; 'I' for Inactive)
REMARK    1  A    between atoms: O_2  and  C_3
REMARK    2  A    between atoms: C_6  and  C_7
REMARK    3  A    between atoms: C_11  and  C_12
REMARK    4  A    between atoms: N_15  and  C_16
REMARK    5  A    between atoms: C_16  and  C_18
REMARK                            x       y       z     vdW  Elec       q    Type
REMARK                         _______ _______ _______ _____ _____    ______ ____
ROOT
ATOM      1  C   UNL     1      37.257   2.496  15.648  0.00  0.00    +0.000 A 
ATOM      2  C   UNL     1      37.913   1.724  14.720  0.00  0.00    +0.000 A 
ATOM      3  C   UNL     1      37.615   0.401  14.473  0.00  0.00    +0.000 A 
ATOM      4  N   UNL     1      38.275  -0.420  13.523  0.00  0.00    +0.000 NA
ATOM      5  N   UNL     1      36.625  -0.137  15.195  0.00  0.00    +0.000 NA
ATOM      6  C   UNL     1      35.957   0.594  16.119  0.00  0.00    +0.000 A 
ATOM      7  C   UNL     1      34.867  -0.016  16.905  0.00  0.00    +0.000 C 
ATOM      8  N   UNL     1      36.273   1.902  16.341  0.00  0.00    +0.000 NA
ENDROOT
BRANCH   1  13
ATOM      9  C   UNL     1      38.784   5.622  17.028  0.00  0.00    +0.000 A 
ATOM     10  C   UNL     1      38.199   6.544  16.190  0.00  0.00    +0.000 A 
ATOM     11  N   UNL     1      37.347   6.186  15.216  0.00  0.00    +0.000 NA
ATOM     12  C   UNL     1      37.066   4.888  15.069  0.00  0.00    +0.000 A 
ATOM     13  C   UNL     1      37.618   3.917  15.874  0.00  0.00    +0.000 A 
ATOM     14  C   UNL     1      38.481   4.289  16.859  0.00  0.00    +0.000 A 
BRANCH   9  18
ATOM     15  C   UNL     1      41.548   6.933  19.931  0.00  0.00    +0.000 A 
ATOM     16  C   UNL     1      41.992   6.588  18.677  0.00  0.00    +0.000 A 
ATOM     17  C   UNL     1      41.044   6.165  17.765  0.00  0.00    +0.000 A 
ATOM     18  C   UNL     1      39.711   6.086  18.076  0.00  0.00    +0.000 A 
ATOM     19  C   UNL     1      39.272   6.429  19.321  0.00  0.00    +0.000 A 
ATOM     20  C   UNL     1      40.204   6.852  20.244  0.00  0.00    +0.000 A 
BRANCH  15  22
ATOM     21  C   UNL     1      43.343   6.419  21.480  0.00  0.00    +0.000 C 
ATOM     22  O   UNL     1      42.475   7.368  20.893  0.00  0.00    +0.000 OA
ENDBRANCH  15  22
ENDBRANCH   9  18
ENDBRANCH   1  13
BRANCH   4  23
ATOM     23  C   UNL     1      39.418   0.391  12.772  0.00  0.00    +0.000 C 
ATOM     24  C   UNL     1      39.313  -0.583  11.406  0.00  0.00    +0.000 C 
BRANCH  23  25
ATOM     25  C   UNL     1      40.612  -0.420  13.410  0.00  0.00    +0.000 A 
ATOM     26  C   UNL     1      40.526  -1.746  13.618  0.00  0.00    +0.000 A 
ATOM     27  C   UNL     1      41.604  -2.418  14.182  0.00  0.00    +0.000 A 
ATOM     28  C   UNL     1      42.703  -1.682  14.497  0.00  0.00    +0.000 A 
ATOM     29  C   UNL     1      42.820  -0.332  14.298  0.00  0.00    +0.000 A 
ATOM     30  C   UNL     1      41.702   0.315  13.723  0.00  0.00    +0.000 A 
ENDBRANCH  23  25
ENDBRANCH   4  23
TORSDOF 5
ENDMDL
MODEL 4
REMARK VINA RESULT:      -8.2      3.287      8.427
REMARK  Name = 
REMARK  5 active torsions:
REMARK  status: ('A' for Active; 'I' for Inactive)
REMARK    1  A    between atoms: O_2  and  C_3
REMARK    2  A    between atoms: C_6  and  C_7
REMARK    3  A    between atoms: C_11  and  C_12
REMARK    4  A    between atoms: N_15  and  C_16
REMARK    5  A    between atoms: C_16  and  C_18
REMARK                            x       y       z     vdW  Elec       q    Type
REMARK                         _______ _______ _______ _____ _____    ______ ____
ROOT
ATOM      1  C   UNL     1      37.588   5.051  14.793  0.00  0.00    +0.000 A 
ATOM      2  C   UNL     1      37.258   3.718  14.834  0.00  0.00    +0.000 A 
ATOM      3  C   UNL     1      35.993   3.231  14.583  0.00  0.00    +0.000 A 
ATOM      4  N   UNL     1      35.623   1.863  14.619  0.00  0.00    +0.000 NA
ATOM      5  N   UNL     1      35.051   4.133  14.284  0.00  0.00    +0.000 NA
ATOM      6  C   UNL     1      35.341   5.456  14.235  0.00  0.00    +0.000 A 
ATOM      7  C   UNL     1      34.289   6.437  13.903  0.00  0.00    +0.000 C 
ATOM      8  N   UNL     1      36.602   5.908  14.488  0.00  0.00    +0.000 NA
ENDROOT
BRANCH   1  13
ATOM      9  C   UNL     1      40.717   6.116  16.550  0.00  0.00    +0.000 A 
ATOM     10  C   UNL     1      41.506   6.387  15.455  0.00  0.00    +0.000 A 
ATOM     11  N   UNL     1      41.060   6.236  14.198  0.00  0.00    +0.000 NA
ATOM     12  C   UNL     1      39.807   5.808  14.019  0.00  0.00    +0.000 A 
ATOM     13  C   UNL     1      38.967   5.521  15.072  0.00  0.00    +0.000 A 
ATOM     14  C   UNL     1      39.427   5.677  16.344  0.00  0.00    +0.000 A 
BRANCH   9  18
ATOM     15  C   UNL     1      42.434   6.680  20.360  0.00  0.00    +0.000 A 
ATOM     16  C   UNL     1      43.216   6.809  19.237  0.00  0.00    +0.000 A 
ATOM     17  C   UNL     1      42.603   6.613  18.015  0.00  0.00    +0.000 A 
ATOM     18  C   UNL     1      41.271   6.303  17.902  0.00  0.00    +0.000 A 
ATOM     19  C   UNL     1      40.497   6.176  19.019  0.00  0.00    +0.000 A 
ATOM     20  C   UNL     1      41.093   6.368  20.247  0.00  0.00    +0.000 A 
BRANCH  15  22
ATOM     21  C   UNL     1      44.143   6.095  21.980  0.00  0.00    +0.000 C 
ATOM     22  O   UNL     1      43.014   6.869  21.627  0.00  0.00    +0.000 OA
ENDBRANCH  15  22
ENDBRANCH   9  18
ENDBRANCH   1  13
BRANCH   4  23
ATOM     23  C   UNL     1      36.870   0.950  14.994  0.00  0.00    +0.000 C 
ATOM     24  C   UNL     1      36.877   0.213  13.484  0.00  0.00    +0.000 C 
BRANCH  23  25
ATOM     25  C   UNL     1      36.015  -0.184  15.681  0.00  0.00    +0.000 A 
ATOM     26  C   UNL     1      35.159   0.091  16.681  0.00  0.00    +0.000 A 
ATOM     27  C   UNL     1      34.427  -0.941  17.255  0.00  0.00    +0.000 A 
ATOM     28  C   UNL     1      34.623  -2.193  16.763  0.00  0.00    +0.000 A 
ATOM     29  C   UNL     1      35.487  -2.506  15.747  0.00  0.00    +0.000 A 
ATOM     30  C   UNL     1      36.213  -1.428  15.190  0.00  0.00    +0.000 A 
ENDBRANCH  23  25
ENDBRANCH   4  23
TORSDOF 5
ENDMDL
MODEL 5
REMARK VINA RESULT:      -8.1      3.011      3.659
REMARK  Name = 
REMARK  5 active torsions:
REMARK  status: ('A' for Active; 'I' for Inactive)
REMARK    1  A    between atoms: O_2  and  C_3
REMARK    2  A    between atoms: C_6  and  C_7
REMARK    3  A    between atoms: C_11  and  C_12
REMARK    4  A    between atoms: N_15  and  C_16
REMARK    5  A    between atoms: C_16  and  C_18
REMARK                            x       y       z     vdW  Elec       q    Type
REMARK                         _______ _______ _______ _____ _____    ______ ____
ROOT
ATOM      1  C   UNL     1      37.597   0.961  15.211  0.00  0.00    +0.000 A 
ATOM      2  C   UNL     1      37.847   2.270  15.547  0.00  0.00    +0.000 A 
ATOM      3  C   UNL     1      38.851   3.029  14.984  0.00  0.00    +0.000 A 
ATOM      4  N   UNL     1      39.133   4.379  15.312  0.00  0.00    +0.000 NA
ATOM      5  N   UNL     1      39.610   2.431  14.059  0.00  0.00    +0.000 NA
ATOM      6  C   UNL     1      39.391   1.141  13.703  0.00  0.00    +0.000 A 
ATOM      7  C   UNL     1      40.238   0.498  12.680  0.00  0.00    +0.000 C 
ATOM      8  N   UNL     1      38.391   0.415  14.277  0.00  0.00    +0.000 NA
ENDROOT
BRANCH   1  13
ATOM      9  C   UNL     1      35.261  -1.797  16.183  0.00  0.00    +0.000 A 
ATOM     10  C   UNL     1      34.470  -1.114  17.079  0.00  0.00    +0.000 A 
ATOM     11  N   UNL     1      34.671   0.182  17.367  0.00  0.00    +0.000 NA
ATOM     12  C   UNL     1      35.676   0.816  16.755  0.00  0.00    +0.000 A 
ATOM     13  C   UNL     1      36.503   0.189  15.849  0.00  0.00    +0.000 A 
ATOM     14  C   UNL     1      36.291  -1.125  15.563  0.00  0.00    +0.000 A 
BRANCH   9  18
ATOM     15  C   UNL     1      34.602  -5.900  15.464  0.00  0.00    +0.000 A 
ATOM     16  C   UNL     1      35.803  -5.487  15.992  0.00  0.00    +0.000 A 
ATOM     17  C   UNL     1      35.965  -4.132  16.207  0.00  0.00    +0.000 A 
ATOM     18  C   UNL     1      34.984  -3.219  15.914  0.00  0.00    +0.000 A 
ATOM     19  C   UNL     1      33.793  -3.632  15.391  0.00  0.00    +0.000 A 
ATOM     20  C   UNL     1      33.614  -4.980  15.169  0.00  0.00    +0.000 A 
BRANCH  15  22
ATOM     21  C   UNL     1      34.011  -7.685  13.930  0.00  0.00    +0.000 C 
ATOM     22  O   UNL     1      34.390  -7.269  15.227  0.00  0.00    +0.000 OA
ENDBRANCH  15  22
ENDBRANCH   9  18
ENDBRANCH   1  13
BRANCH   4  23
ATOM     23  C   UNL     1      38.134   4.912  16.427  0.00  0.00    +0.000 C 
ATOM     24  C   UNL     1      37.884   6.362  15.616  0.00  0.00    +0.000 C 
BRANCH  23  25
ATOM     25  C   UNL     1      39.262   5.489  17.367  0.00  0.00    +0.000 A 
ATOM     26  C   UNL     1      39.089   5.575  18.698  0.00  0.00    +0.000 A 
ATOM     27  C   UNL     1      40.112   6.091  19.486  0.00  0.00    +0.000 A 
ATOM     28  C   UNL     1      41.249   6.485  18.852  0.00  0.00    +0.000 A 
ATOM     29  C   UNL     1      41.454   6.411  17.500  0.00  0.00    +0.000 A 
ATOM     30  C   UNL     1      40.391   5.881  16.734  0.00  0.00    +0.000 A 
ENDBRANCH  23  25
ENDBRANCH   4  23
TORSDOF 5
ENDMDL
MODEL 6
REMARK VINA RESULT:      -8.1     25.090     27.584
REMARK  Name = 
REMARK  5 active torsions:
REMARK  status: ('A' for Active; 'I' for Inactive)
REMARK    1  A    between atoms: O_2  and  C_3
REMARK    2  A    between atoms: C_6  and  C_7
REMARK    3  A    between atoms: C_11  and  C_12
REMARK    4  A    between atoms: N_15  and  C_16
REMARK    5  A    between atoms: C_16  and  C_18
REMARK                            x       y       z     vdW  Elec       q    Type
REMARK                         _______ _______ _______ _____ _____    ______ ____
ROOT
ATOM      1  C   UNL     1      26.092  14.236  39.891  0.00  0.00    +0.000 A 
ATOM      2  C   UNL     1      26.140  14.824  38.650  0.00  0.00    +0.000 A 
ATOM      3  C   UNL     1      25.109  15.562  38.109  0.00  0.00    +0.000 A 
ATOM      4  N   UNL     1      25.128  16.178  36.833  0.00  0.00    +0.000 NA
ATOM      5  N   UNL     1      24.008  15.695  38.859  0.00  0.00    +0.000 NA
ATOM      6  C   UNL     1      23.926  15.128  40.087  0.00  0.00    +0.000 A 
ATOM      7  C   UNL     1      22.704  15.286  40.900  0.00  0.00    +0.000 C 
ATOM      8  N   UNL     1      24.964  14.404  40.596  0.00  0.00    +0.000 NA
ENDROOT
BRANCH   1  13
ATOM      9  C   UNL     1      28.170  11.491  41.360  0.00  0.00    +0.000 A 
ATOM     10  C   UNL     1      29.393  12.123  41.380  0.00  0.00    +0.000 A 
ATOM     11  N   UNL     1      29.554  13.381  40.941  0.00  0.00    +0.000 NA
ATOM     12  C   UNL     1      28.483  14.029  40.471  0.00  0.00    +0.000 A 
ATOM     13  C   UNL     1      27.233  13.452  40.425  0.00  0.00    +0.000 A 
ATOM     14  C   UNL     1      27.078  12.176  40.873  0.00  0.00    +0.000 A 
BRANCH   9  18
ATOM     15  C   UNL     1      27.991   7.555  42.865  0.00  0.00    +0.000 A 
ATOM     16  C   UNL     1      29.013   8.387  43.258  0.00  0.00    +0.000 A 
ATOM     17  C   UNL     1      29.023   9.665  42.735  0.00  0.00    +0.000 A 
ATOM     18  C   UNL     1      28.065  10.108  41.858  0.00  0.00    +0.000 A 
ATOM     19  C   UNL     1      27.052   9.280  41.470  0.00  0.00    +0.000 A 
ATOM     20  C   UNL     1      27.026   8.002  41.982  0.00  0.00    +0.000 A 
BRANCH  15  22
ATOM     21  C   UNL     1      28.291   6.023  44.722  0.00  0.00    +0.000 C 
ATOM     22  O   UNL     1      27.939   6.245  43.371  0.00  0.00    +0.000 OA
ENDBRANCH  15  22
ENDBRANCH   9  18
ENDBRANCH   1  13
BRANCH   4  23
ATOM     23  C   UNL     1      26.510  15.906  36.095  0.00  0.00    +0.000 C 
ATOM     24  C   UNL     1      26.837  17.547  35.943  0.00  0.00    +0.000 C 
BRANCH  23  25
ATOM     25  C   UNL     1      25.879  15.772  34.654  0.00  0.00    +0.000 A 
ATOM     26  C   UNL     1      25.892  14.603  33.990  0.00  0.00    +0.000 A 
ATOM     27  C   UNL     1      25.324  14.534  32.723  0.00  0.00    +0.000 A 
ATOM     28  C   UNL     1      24.778  15.673  32.221  0.00  0.00    +0.000 A 
ATOM     29  C   UNL     1      24.749  16.877  32.873  0.00  0.00    +0.000 A 
ATOM     30  C   UNL     1      25.338  16.907  34.158  0.00  0.00    +0.000 A 
ENDBRANCH  23  25
ENDBRANCH   4  23
TORSDOF 5
ENDMDL
MODEL 7
REMARK VINA RESULT:      -7.9      2.557      3.069
REMARK  Name = 
REMARK  5 active torsions:
REMARK  status: ('A' for Active; 'I' for Inactive)
REMARK    1  A    between atoms: O_2  and  C_3
REMARK    2  A    between atoms: C_6  and  C_7
REMARK    3  A    between atoms: C_11  and  C_12
REMARK    4  A    between atoms: N_15  and  C_16
REMARK    5  A    between atoms: C_16  and  C_18
REMARK                            x       y       z     vdW  Elec       q    Type
REMARK                         _______ _______ _______ _____ _____    ______ ____
ROOT
ATOM      1  C   UNL     1      37.416   4.393  15.796  0.00  0.00    +0.000 A 
ATOM      2  C   UNL     1      38.147   5.012  16.782  0.00  0.00    +0.000 A 
ATOM      3  C   UNL     1      38.449   6.356  16.785  0.00  0.00    +0.000 A 
ATOM      4  N   UNL     1      39.202   7.021  17.786  0.00  0.00    +0.000 NA
ATOM      5  N   UNL     1      37.992   7.077  15.754  0.00  0.00    +0.000 NA
ATOM      6  C   UNL     1      37.269   6.500  14.764  0.00  0.00    +0.000 A 
ATOM      7  C   UNL     1      36.771   7.311  13.636  0.00  0.00    +0.000 C 
ATOM      8  N   UNL     1      36.984   5.167  14.789  0.00  0.00    +0.000 NA
ENDROOT
BRANCH   1  13
ATOM      9  C   UNL     1      37.552   0.695  15.236  0.00  0.00    +0.000 A 
ATOM     10  C   UNL     1      36.476   0.313  16.005  0.00  0.00    +0.000 A 
ATOM     11  N   UNL     1      35.731   1.201  16.682  0.00  0.00    +0.000 NA
ATOM     12  C   UNL     1      36.056   2.495  16.595  0.00  0.00    +0.000 A 
ATOM     13  C   UNL     1      37.119   2.940  15.843  0.00  0.00    +0.000 A 
ATOM     14  C   UNL     1      37.870   2.033  15.159  0.00  0.00    +0.000 A 
BRANCH   9  18
ATOM     15  C   UNL     1      39.855  -2.265  13.306  0.00  0.00    +0.000 A 
ATOM     16  C   UNL     1      40.153  -1.909  14.600  0.00  0.00    +0.000 A 
ATOM     17  C   UNL     1      39.367  -0.934  15.184  0.00  0.00    +0.000 A 
ATOM     18  C   UNL     1      38.328  -0.333  14.519  0.00  0.00    +0.000 A 
ATOM     19  C   UNL     1      38.034  -0.689  13.235  0.00  0.00    +0.000 A 
ATOM     20  C   UNL     1      38.809  -1.659  12.637  0.00  0.00    +0.000 A 
BRANCH  15  22
ATOM     21  C   UNL     1      42.036  -3.182  12.770  0.00  0.00    +0.000 C 
ATOM     22  O   UNL     1      40.628  -3.252  12.670  0.00  0.00    +0.000 OA
ENDBRANCH  15  22
ENDBRANCH   9  18
ENDBRANCH   1  13
BRANCH   4  23
ATOM     23  C   UNL     1      39.659   6.003  18.918  0.00  0.00    +0.000 C 
ATOM     24  C   UNL     1      39.378   7.123  20.140  0.00  0.00    +0.000 C 
BRANCH  23  25
ATOM     25  C   UNL     1      41.197   6.337  18.798  0.00  0.00    +0.000 A 
ATOM     26  C   UNL     1      41.796   6.460  17.600  0.00  0.00    +0.000 A 
ATOM     27  C   UNL     1      43.153   6.754  17.543  0.00  0.00    +0.000 A 
ATOM     28  C   UNL     1      43.808   6.904  18.725  0.00  0.00    +0.000 A 
ATOM     29  C   UNL     1      43.227   6.785  19.959  0.00  0.00    +0.000 A 
ATOM     30  C   UNL     1      41.846   6.484  19.974  0.00  0.00    +0.000 A 
ENDBRANCH  23  25
ENDBRANCH   4  23
TORSDOF 5
ENDMDL
MODEL 8
REMARK VINA RESULT:      -7.9      6.578     11.016
REMARK  Name = 
REMARK  5 active torsions:
REMARK  status: ('A' for Active; 'I' for Inactive)
REMARK    1  A    between atoms: O_2  and  C_3
REMARK    2  A    between atoms: C_6  and  C_7
REMARK    3  A    between atoms: C_11  and  C_12
REMARK    4  A    between atoms: N_15  and  C_16
REMARK    5  A    between atoms: C_16  and  C_18
REMARK                            x       y       z     vdW  Elec       q    Type
REMARK                         _______ _______ _______ _____ _____    ______ ____
ROOT
ATOM      1  C   UNL     1      44.792   5.979  23.155  0.00  0.00    +0.000 A 
ATOM      2  C   UNL     1      44.201   5.961  24.395  0.00  0.00    +0.000 A 
ATOM      3  C   UNL     1      44.687   5.245  25.468  0.00  0.00    +0.000 A 
ATOM      4  N   UNL     1      44.098   5.206  26.757  0.00  0.00    +0.000 NA
ATOM      5  N   UNL     1      45.801   4.533  25.260  0.00  0.00    +0.000 NA
ATOM      6  C   UNL     1      46.410   4.527  24.049  0.00  0.00    +0.000 A 
ATOM      7  C   UNL     1      47.639   3.736  23.839  0.00  0.00    +0.000 C 
ATOM      8  N   UNL     1      45.906   5.246  23.007  0.00  0.00    +0.000 NA
ENDROOT
BRANCH   1  13
ATOM      9  C   UNL     1      42.699   7.080  20.255  0.00  0.00    +0.000 A 
ATOM     10  C   UNL     1      43.281   8.304  20.012  0.00  0.00    +0.000 A 
ATOM     11  N   UNL     1      44.306   8.766  20.745  0.00  0.00    +0.000 NA
ATOM     12  C   UNL     1      44.765   8.002  21.741  0.00  0.00    +0.000 A 
ATOM     13  C   UNL     1      44.226   6.769  22.034  0.00  0.00    +0.000 A 
ATOM     14  C   UNL     1      43.188   6.308  21.285  0.00  0.00    +0.000 A 
BRANCH   9  18
ATOM     15  C   UNL     1      39.575   5.815  17.719  0.00  0.00    +0.000 A 
ATOM     16  C   UNL     1      40.808   6.107  17.185  0.00  0.00    +0.000 A 
ATOM     17  C   UNL     1      41.795   6.517  18.061  0.00  0.00    +0.000 A 
ATOM     18  C   UNL     1      41.576   6.635  19.410  0.00  0.00    +0.000 A 
ATOM     19  C   UNL     1      40.352   6.345  19.937  0.00  0.00    +0.000 A 
ATOM     20  C   UNL     1      39.356   5.935  19.078  0.00  0.00    +0.000 A 
BRANCH  15  22
ATOM     21  C   UNL     1      37.895   4.165  17.135  0.00  0.00    +0.000 C 
ATOM     22  O   UNL     1      38.540   5.394  16.867  0.00  0.00    +0.000 OA
ENDBRANCH  15  22
ENDBRANCH   9  18
ENDBRANCH   1  13
BRANCH   4  23
ATOM     23  C   UNL     1      42.788   6.105  26.808  0.00  0.00    +0.000 C 
ATOM     24  C   UNL     1      43.501   7.215  27.850  0.00  0.00    +0.000 C 
BRANCH  23  25
ATOM     25  C   UNL     1      42.094   5.282  27.961  0.00  0.00    +0.000 A 
ATOM     26  C   UNL     1      42.731   4.276  28.585  0.00  0.00    +0.000 A 
ATOM     27  C   UNL     1      42.078   3.579  29.596  0.00  0.00    +0.000 A 
ATOM     28  C   UNL     1      40.810   3.964  29.900  0.00  0.00    +0.000 A 
ATOM     29  C   UNL     1      40.135   4.983  29.282  0.00  0.00    +0.000 A 
ATOM     30  C   UNL     1      40.833   5.667  28.260  0.00  0.00    +0.000 A 
ENDBRANCH  23  25
ENDBRANCH   4  23
TORSDOF 5
ENDMDL
MODEL 9
REMARK VINA RESULT:      -7.9     22.602     26.516
REMARK  Name = 
REMARK  5 active torsions:
REMARK  status: ('A' for Active; 'I' for Inactive)
REMARK    1  A    between atoms: O_2  and  C_3
REMARK    2  A    between atoms: C_6  and  C_7
REMARK    3  A    between atoms: C_11  and  C_12
REMARK    4  A    between atoms: N_15  and  C_16
REMARK    5  A    between atoms: C_16  and  C_18
REMARK                            x       y       z     vdW  Elec       q    Type
REMARK                         _______ _______ _______ _____ _____    ______ ____
ROOT
ATOM      1  C   UNL     1      13.871   0.003  26.997  0.00  0.00    +0.000 A 
ATOM      2  C   UNL     1      13.270  -1.177  26.633  0.00  0.00    +0.000 A 
ATOM      3  C   UNL     1      11.910  -1.326  26.462  0.00  0.00    +0.000 A 
ATOM      4  N   UNL     1      11.262  -2.531  26.089  0.00  0.00    +0.000 NA
ATOM      5  N   UNL     1      11.156  -0.240  26.669  0.00  0.00    +0.000 NA
ATOM      6  C   UNL     1      11.715   0.941  27.029  0.00  0.00    +0.000 A 
ATOM      7  C   UNL     1      10.868   2.128  27.252  0.00  0.00    +0.000 C 
ATOM      8  N   UNL     1      13.064   1.058  27.190  0.00  0.00    +0.000 NA
ENDROOT
BRANCH   1  13
ATOM      9  C   UNL     1      17.550   0.125  26.321  0.00  0.00    +0.000 A 
ATOM     10  C   UNL     1      18.007   0.313  27.606  0.00  0.00    +0.000 A 
ATOM     11  N   UNL     1      17.174   0.399  28.655  0.00  0.00    +0.000 NA
ATOM     12  C   UNL     1      15.860   0.297  28.429  0.00  0.00    +0.000 A 
ATOM     13  C   UNL     1      15.341   0.108  27.168  0.00  0.00    +0.000 A 
ATOM     14  C   UNL     1      16.193   0.021  26.110  0.00  0.00    +0.000 A 
BRANCH   9  18
ATOM     15  C   UNL     1      20.335   0.028  23.155  0.00  0.00    +0.000 A 
ATOM     16  C   UNL     1      19.918   1.239  23.656  0.00  0.00    +0.000 A 
ATOM     17  C   UNL     1      19.005   1.212  24.692  0.00  0.00    +0.000 A 
ATOM     18  C   UNL     1      18.521   0.040  25.216  0.00  0.00    +0.000 A 
ATOM     19  C   UNL     1      18.938  -1.161  24.718  0.00  0.00    +0.000 A 
ATOM     20  C   UNL     1      19.848  -1.153  23.683  0.00  0.00    +0.000 A 
BRANCH  15  22
ATOM     21  C   UNL     1      21.377  -1.170  21.321  0.00  0.00    +0.000 C 
ATOM     22  O   UNL     1      21.263   0.004  22.100  0.00  0.00    +0.000 OA
ENDBRANCH  15  22
ENDBRANCH   9  18
ENDBRANCH   1  13
BRANCH   4  23
ATOM     23  C   UNL     1      12.317  -3.704  25.894  0.00  0.00    +0.000 C 
ATOM     24  C   UNL     1      11.360  -4.472  24.745  0.00  0.00    +0.000 C 
BRANCH  23  25
ATOM     25  C   UNL     1      11.788  -4.575  27.099  0.00  0.00    +0.000 A 
ATOM     26  C   UNL     1      10.484  -4.879  27.223  0.00  0.00    +0.000 A 
ATOM     27  C   UNL     1      10.065  -5.650  28.301  0.00  0.00    +0.000 A 
ATOM     28  C   UNL     1      11.015  -6.059  29.183  0.00  0.00    +0.000 A 
ATOM     29  C   UNL     1      12.349  -5.765  29.083  0.00  0.00    +0.000 A 
ATOM     30  C   UNL     1      12.736  -4.979  27.973  0.00  0.00    +0.000 A 
ENDBRANCH  23  25
ENDBRANCH   4  23
TORSDOF 5
ENDMDL
MODEL 10
REMARK VINA RESULT:      -7.8      3.265      8.499
REMARK  Name = 
REMARK  5 active torsions:
REMARK  status: ('A' for Active; 'I' for Inactive)
REMARK    1  A    between atoms: O_2  and  C_3
REMARK    2  A    between atoms: C_6  and  C_7
REMARK    3  A    between atoms: C_11  and  C_12
REMARK    4  A    between atoms: N_15  and  C_16
REMARK    5  A    between atoms: C_16  and  C_18
REMARK                            x       y       z     vdW  Elec       q    Type
REMARK                         _______ _______ _______ _____ _____    ______ ____
ROOT
ATOM      1  C   UNL     1      38.461   2.390  13.761  0.00  0.00    +0.000 A 
ATOM      2  C   UNL     1      38.324   1.175  14.387  0.00  0.00    +0.000 A 
ATOM      3  C   UNL     1      38.490  -0.039  13.755  0.00  0.00    +0.000 A 
ATOM      4  N   UNL     1      38.353  -1.307  14.374  0.00  0.00    +0.000 NA
ATOM      5  N   UNL     1      38.802  -0.000  12.454  0.00  0.00    +0.000 NA
ATOM      6  C   UNL     1      38.944   1.181  11.804  0.00  0.00    +0.000 A 
ATOM      7  C   UNL     1      39.290   1.204  10.369  0.00  0.00    +0.000 C 
ATOM      8  N   UNL     1      38.775   2.365  12.457  0.00  0.00    +0.000 NA
ENDROOT
BRANCH   1  13
ATOM      9  C   UNL     1      38.868   5.231  16.163  0.00  0.00    +0.000 A 
ATOM     10  C   UNL     1      37.824   6.026  15.748  0.00  0.00    +0.000 A 
ATOM     11  N   UNL     1      37.015   5.672  14.737  0.00  0.00    +0.000 NA
ATOM     12  C   UNL     1      37.244   4.507  14.123  0.00  0.00    +0.000 A 
ATOM     13  C   UNL     1      38.271   3.668  14.491  0.00  0.00    +0.000 A 
ATOM     14  C   UNL     1      39.087   4.034  15.518  0.00  0.00    +0.000 A 
BRANCH   9  18
ATOM     15  C   UNL     1      41.406   6.548  19.264  0.00  0.00    +0.000 A 
ATOM     16  C   UNL     1      41.859   6.556  17.966  0.00  0.00    +0.000 A 
ATOM     17  C   UNL     1      40.987   6.114  16.990  0.00  0.00    +0.000 A 
ATOM     18  C   UNL     1      39.717   5.682  17.281  0.00  0.00    +0.000 A 
ATOM     19  C   UNL     1      39.269   5.676  18.570  0.00  0.00    +0.000 A 
ATOM     20  C   UNL     1      40.127   6.113  19.556  0.00  0.00    +0.000 A 
BRANCH  15  22
ATOM     21  C   UNL     1      42.933   6.025  21.075  0.00  0.00    +0.000 C 
ATOM     22  O   UNL     1      42.257   6.989  20.292  0.00  0.00    +0.000 OA
ENDBRANCH  15  22
ENDBRANCH   9  18
ENDBRANCH   1  13
BRANCH   4  23
ATOM     23  C   UNL     1      37.978  -1.148  15.910  0.00  0.00    +0.000 C 
ATOM     24  C   UNL     1      38.967  -2.431  16.360  0.00  0.00    +0.000 C 
BRANCH  23  25
ATOM     25  C   UNL     1      36.668  -2.025  15.829  0.00  0.00    +0.000 A 
ATOM     26  C   UNL     1      35.625  -1.803  16.648  0.00  0.00    +0.000 A 
ATOM     27  C   UNL     1      34.492  -2.602  16.539  0.00  0.00    +0.000 A 
ATOM     28  C   UNL     1      34.506  -3.578  15.594  0.00  0.00    +0.000 A 
ATOM     29  C   UNL     1      35.552  -3.829  14.746  0.00  0.00    +0.000 A 
ATOM     30  C   UNL     1      36.686  -2.995  14.888  0.00  0.00    +0.000 A 
ENDBRANCH  23  25
ENDBRANCH   4  23
TORSDOF 5
ENDMDL
