MODEL 1
REMARK VINA RESULT:      -8.2      0.000      0.000
REMARK  Name = 
REMARK  7 active torsions:
REMARK  status: ('A' for Active; 'I' for Inactive)
REMARK    1  A    between atoms: C_4  and  C_5
REMARK    2  A    between atoms: C_5  and  O_6
REMARK    3  A    between atoms: O_6  and  C_7
REMARK    4  A    between atoms: C_10  and  N_11
REMARK    5  A    between atoms: C_13  and  C_14
REMARK    6  A    between atoms: C_14  and  C_15
REMARK    7  A    between atoms: C_15  and  N_16
REMARK                            x       y       z     vdW  Elec       q    Type
REMARK                         _______ _______ _______ _____ _____    ______ ____
ROOT
ATOM      1  N   UNL     1      14.063   0.243  28.093  0.00  0.00    +0.000 N 
ATOM      2  N   UNL     1      13.530  -0.573  28.982  0.00  0.00    +0.000 NA
ATOM      3  C   UNL     1      12.294  -0.130  29.344  0.00  0.00    +0.000 A 
ATOM      4  C   UNL     1      12.094   1.013  28.623  0.00  0.00    +0.000 A 
ATOM      5  C   UNL     1      13.197   1.242  27.846  0.00  0.00    +0.000 A 
ATOM      6  N   UNL     1      13.032   2.415  27.080  0.00  0.00    +0.000 NA
ATOM      7  C   UNL     1      11.868   3.103  27.573  0.00  0.00    +0.000 C 
ATOM      8  C   UNL     1      11.116   2.083  28.385  0.00  0.00    +0.000 C 
ENDROOT
BRANCH   1  12
ATOM      9  C   UNL     1      17.863  -0.064  26.215  0.00  0.00    +0.000 A 
ATOM     10  C   UNL     1      16.718  -0.445  25.540  0.00  0.00    +0.000 A 
ATOM     11  C   UNL     1      15.485  -0.332  26.187  0.00  0.00    +0.000 A 
ATOM     12  C   UNL     1      15.344   0.137  27.461  0.00  0.00    +0.000 A 
ATOM     13  C   UNL     1      16.495   0.521  28.141  0.00  0.00    +0.000 A 
ATOM     14  C   UNL     1      17.720   0.404  27.486  0.00  0.00    +0.000 A 
BRANCH   9  15
ATOM     15  O   UNL     1      19.121  -0.141  25.647  0.00  0.00    +0.000 OA
BRANCH  15  16
ATOM     16  C   UNL     1      19.522   0.822  24.696  0.00  0.00    +0.000 C 
BRANCH  16  20
ATOM     17  C   UNL     1      20.585  -1.193  21.107  0.00  0.00    +0.000 A 
ATOM     18  C   UNL     1      20.414   0.178  21.092  0.00  0.00    +0.000 A 
ATOM     19  C   UNL     1      20.070   0.883  22.225  0.00  0.00    +0.000 A 
ATOM     20  C   UNL     1      19.895   0.201  23.392  0.00  0.00    +0.000 A 
ATOM     21  C   UNL     1      20.068  -1.171  23.404  0.00  0.00    +0.000 A 
ATOM     22  C   UNL     1      20.408  -1.883  22.287  0.00  0.00    +0.000 A 
ENDBRANCH  16  20
ENDBRANCH  15  16
ENDBRANCH   9  15
ENDBRANCH   1  12
BRANCH   3  23
ATOM     23  C   UNL     1      11.471  -0.855  30.328  0.00  0.00    +0.000 C 
BRANCH  23  24
ATOM     24  C   UNL     1      12.289  -1.457  31.442  0.00  0.00    +0.000 C 
BRANCH  24  25
ATOM     25  N   UNL     1      12.827  -0.513  32.356  0.00  0.00    +0.000 NA
ATOM     26  C   UNL     1      14.216  -0.484  32.542  0.00  0.00    +0.000 C 
ATOM     27  C   UNL     1      14.775   0.844  32.092  0.00  0.00    +0.000 C 
ATOM     28  C   UNL     1      14.235   1.887  33.045  0.00  0.00    +0.000 C 
ATOM     29  C   UNL     1      12.746   1.811  33.197  0.00  0.00    +0.000 C 
ATOM     30  C   UNL     1      12.089   0.672  32.547  0.00  0.00    +0.000 C 
ENDBRANCH  24  25
ENDBRANCH  23  24
ENDBRANCH   3  23
TORSDOF 7
ENDMDL
MODEL 2
REMARK VINA RESULT:      -8.0     23.449     26.731
REMARK  Name = 
REMARK  7 active torsions:
REMARK  status: ('A' for Active; 'I' for Inactive)
REMARK    1  A    between atoms: C_4  and  C_5
REMARK    2  A    between atoms: C_5  and  O_6
REMARK    3  A    between atoms: O_6  and  C_7
REMARK    4  A    between atoms: C_10  and  N_11
REMARK    5  A    between atoms: C_13  and  C_14
REMARK    6  A    between atoms: C_14  and  C_15
REMARK    7  A    between atoms: C_15  and  N_16
REMARK                            x       y       z     vdW  Elec       q    Type
REMARK                         _______ _______ _______ _____ _____    ______ ____
ROOT
ATOM      1  N   UNL     1      37.574   3.897  16.779  0.00  0.00    +0.000 N 
ATOM      2  N   UNL     1      37.181   2.794  17.387  0.00  0.00    +0.000 NA
ATOM      3  C   UNL     1      36.088   2.276  16.760  0.00  0.00    +0.000 A 
ATOM      4  C   UNL     1      35.828   3.129  15.724  0.00  0.00    +0.000 A 
ATOM      5  C   UNL     1      36.755   4.136  15.739  0.00  0.00    +0.000 A 
ATOM      6  N   UNL     1      36.525   5.040  14.682  0.00  0.00    +0.000 NA
ATOM      7  C   UNL     1      35.241   4.731  14.109  0.00  0.00    +0.000 C 
ATOM      8  C   UNL     1      34.908   3.349  14.601  0.00  0.00    +0.000 C 
ENDROOT
BRANCH   1  12
ATOM      9  C   UNL     1      40.850   6.409  17.790  0.00  0.00    +0.000 A 
ATOM     10  C   UNL     1      40.631   6.043  16.475  0.00  0.00    +0.000 A 
ATOM     11  C   UNL     1      39.546   5.215  16.177  0.00  0.00    +0.000 A 
ATOM     12  C   UNL     1      38.679   4.741  17.120  0.00  0.00    +0.000 A 
ATOM     13  C   UNL     1      38.899   5.109  18.443  0.00  0.00    +0.000 A 
ATOM     14  C   UNL     1      39.984   5.935  18.729  0.00  0.00    +0.000 A 
BRANCH   9  15
ATOM     15  O   UNL     1      41.897   7.226  18.170  0.00  0.00    +0.000 OA
BRANCH  15  16
ATOM     16  C   UNL     1      42.102   7.515  19.537  0.00  0.00    +0.000 C 
BRANCH  16  20
ATOM     17  C   UNL     1      45.369   5.431  21.288  0.00  0.00    +0.000 A 
ATOM     18  C   UNL     1      45.576   6.188  20.151  0.00  0.00    +0.000 A 
ATOM     19  C   UNL     1      44.555   6.885  19.541  0.00  0.00    +0.000 A 
ATOM     20  C   UNL     1      43.305   6.820  20.082  0.00  0.00    +0.000 A 
ATOM     21  C   UNL     1      43.102   6.062  21.220  0.00  0.00    +0.000 A 
ATOM     22  C   UNL     1      44.106   5.366  21.835  0.00  0.00    +0.000 A 
ENDBRANCH  16  20
ENDBRANCH  15  16
ENDBRANCH   9  15
ENDBRANCH   1  12
BRANCH   3  23
ATOM     23  C   UNL     1      35.439   1.042  17.232  0.00  0.00    +0.000 C 
BRANCH  23  24
ATOM     24  C   UNL     1      35.820  -0.167  16.416  0.00  0.00    +0.000 C 
BRANCH  24  25
ATOM     25  N   UNL     1      37.102  -0.701  16.715  0.00  0.00    +0.000 NA
ATOM     26  C   UNL     1      37.229  -1.537  17.832  0.00  0.00    +0.000 C 
ATOM     27  C   UNL     1      37.644  -2.924  17.402  0.00  0.00    +0.000 C 
ATOM     28  C   UNL     1      39.046  -2.803  16.847  0.00  0.00    +0.000 C 
ATOM     29  C   UNL     1      39.164  -1.724  15.814  0.00  0.00    +0.000 C 
ATOM     30  C   UNL     1      37.982  -0.876  15.629  0.00  0.00    +0.000 C 
ENDBRANCH  24  25
ENDBRANCH  23  24
ENDBRANCH   3  23
TORSDOF 7
ENDMDL
MODEL 3
REMARK VINA RESULT:      -7.9      1.288      2.080
REMARK  Name = 
REMARK  7 active torsions:
REMARK  status: ('A' for Active; 'I' for Inactive)
REMARK    1  A    between atoms: C_4  and  C_5
REMARK    2  A    between atoms: C_5  and  O_6
REMARK    3  A    between atoms: O_6  and  C_7
REMARK    4  A    between atoms: C_10  and  N_11
REMARK    5  A    between atoms: C_13  and  C_14
REMARK    6  A    between atoms: C_14  and  C_15
REMARK    7  A    between atoms: C_15  and  N_16
REMARK                            x       y       z     vdW  Elec       q    Type
REMARK                         _______ _______ _______ _____ _____    ______ ____
ROOT
ATOM      1  N   UNL     1      13.941  -0.037  27.972  0.00  0.00    +0.000 N 
ATOM      2  N   UNL     1      13.360   0.823  28.787  0.00  0.00    +0.000 NA
ATOM      3  C   UNL     1      12.107   0.394  29.106  0.00  0.00    +0.000 A 
ATOM      4  C   UNL     1      11.948  -0.787  28.436  0.00  0.00    +0.000 A 
ATOM      5  C   UNL     1      13.091  -1.051  27.732  0.00  0.00    +0.000 A 
ATOM      6  N   UNL     1      12.971  -2.266  27.026  0.00  0.00    +0.000 NA
ATOM      7  C   UNL     1      11.593  -2.677  27.087  0.00  0.00    +0.000 C 
ATOM      8  C   UNL     1      10.986  -1.872  28.204  0.00  0.00    +0.000 C 
ENDROOT
BRANCH   1  12
ATOM      9  C   UNL     1      17.838   0.188  26.292  0.00  0.00    +0.000 A 
ATOM     10  C   UNL     1      17.626   0.536  27.613  0.00  0.00    +0.000 A 
ATOM     11  C   UNL     1      16.333   0.451  28.134  0.00  0.00    +0.000 A 
ATOM     12  C   UNL     1      15.254   0.041  27.404  0.00  0.00    +0.000 A 
ATOM     13  C   UNL     1      15.466  -0.309  26.076  0.00  0.00    +0.000 A 
ATOM     14  C   UNL     1      16.760  -0.221  25.567  0.00  0.00    +0.000 A 
BRANCH   9  15
ATOM     15  O   UNL     1      19.086   0.240  25.700  0.00  0.00    +0.000 OA
BRANCH  15  16
ATOM     16  C   UNL     1      19.633  -0.921  25.112  0.00  0.00    +0.000 C 
BRANCH  16  20
ATOM     17  C   UNL     1      20.525  -0.629  20.965  0.00  0.00    +0.000 A 
ATOM     18  C   UNL     1      20.389   0.524  21.714  0.00  0.00    +0.000 A 
ATOM     19  C   UNL     1      20.101   0.489  23.062  0.00  0.00    +0.000 A 
ATOM     20  C   UNL     1      19.947  -0.723  23.667  0.00  0.00    +0.000 A 
ATOM     21  C   UNL     1      20.085  -1.874  22.914  0.00  0.00    +0.000 A 
ATOM     22  C   UNL     1      20.369  -1.855  21.577  0.00  0.00    +0.000 A 
ENDBRANCH  16  20
ENDBRANCH  15  16
ENDBRANCH   9  15
ENDBRANCH   1  12
BRANCH   3  23
ATOM     23  C   UNL     1      11.231   1.167  30.003  0.00  0.00    +0.000 C 
BRANCH  23  24
ATOM     24  C   UNL     1      11.038   0.504  31.343  0.00  0.00    +0.000 C 
BRANCH  24  25
ATOM     25  N   UNL     1      12.010   0.851  32.319  0.00  0.00    +0.000 NA
ATOM     26  C   UNL     1      13.038  -0.063  32.586  0.00  0.00    +0.000 C 
ATOM     27  C   UNL     1      14.375   0.533  32.215  0.00  0.00    +0.000 C 
ATOM     28  C   UNL     1      14.618   1.680  33.170  0.00  0.00    +0.000 C 
ATOM     29  C   UNL     1      13.461   2.631  33.233  0.00  0.00    +0.000 C 
ATOM     30  C   UNL     1      12.253   2.226  32.507  0.00  0.00    +0.000 C 
ENDBRANCH  24  25
ENDBRANCH  23  24
ENDBRANCH   3  23
TORSDOF 7
ENDMDL
MODEL 4
REMARK VINA RESULT:      -7.8      2.385      4.523
REMARK  Name = 
REMARK  7 active torsions:
REMARK  status: ('A' for Active; 'I' for Inactive)
REMARK    1  A    between atoms: C_4  and  C_5
REMARK    2  A    between atoms: C_5  and  O_6
REMARK    3  A    between atoms: O_6  and  C_7
REMARK    4  A    between atoms: C_10  and  N_11
REMARK    5  A    between atoms: C_13  and  C_14
REMARK    6  A    between atoms: C_14  and  C_15
REMARK    7  A    between atoms: C_15  and  N_16
REMARK                            x       y       z     vdW  Elec       q    Type
REMARK                         _______ _______ _______ _____ _____    ______ ____
ROOT
ATOM      1  N   UNL     1      13.866   0.461  27.567  0.00  0.00    +0.000 N 
ATOM      2  N   UNL     1      13.366   1.672  27.732  0.00  0.00    +0.000 NA
ATOM      3  C   UNL     1      12.066   1.592  28.132  0.00  0.00    +0.000 A 
ATOM      4  C   UNL     1      11.792   0.255  28.205  0.00  0.00    +0.000 A 
ATOM      5  C   UNL     1      12.915  -0.445  27.853  0.00  0.00    +0.000 A 
ATOM      6  N   UNL     1      12.676  -1.833  27.917  0.00  0.00    +0.000 NA
ATOM      7  C   UNL     1      11.260  -2.030  28.083  0.00  0.00    +0.000 C 
ATOM      8  C   UNL     1      10.722  -0.697  28.528  0.00  0.00    +0.000 C 
ENDROOT
BRANCH   1  12
ATOM      9  C   UNL     1      17.799  -0.593  26.349  0.00  0.00    +0.000 A 
ATOM     10  C   UNL     1      17.587   0.026  27.567  0.00  0.00    +0.000 A 
ATOM     11  C   UNL     1      16.282   0.360  27.936  0.00  0.00    +0.000 A 
ATOM     12  C   UNL     1      15.191   0.108  27.155  0.00  0.00    +0.000 A 
ATOM     13  C   UNL     1      15.403  -0.514  25.929  0.00  0.00    +0.000 A 
ATOM     14  C   UNL     1      16.709  -0.843  25.571  0.00  0.00    +0.000 A 
BRANCH   9  15
ATOM     15  O   UNL     1      19.056  -0.959  25.909  0.00  0.00    +0.000 OA
BRANCH  15  16
ATOM     16  C   UNL     1      19.188  -1.845  24.817  0.00  0.00    +0.000 C 
BRANCH  16  20
ATOM     17  C   UNL     1      21.124  -0.261  21.378  0.00  0.00    +0.000 A 
ATOM     18  C   UNL     1      20.836   0.573  22.442  0.00  0.00    +0.000 A 
ATOM     19  C   UNL     1      20.211   0.114  23.581  0.00  0.00    +0.000 A 
ATOM     20  C   UNL     1      19.869  -1.203  23.654  0.00  0.00    +0.000 A 
ATOM     21  C   UNL     1      20.158  -2.035  22.588  0.00  0.00    +0.000 A 
ATOM     22  C   UNL     1      20.778  -1.593  21.452  0.00  0.00    +0.000 A 
ENDBRANCH  16  20
ENDBRANCH  15  16
ENDBRANCH   9  15
ENDBRANCH   1  12
BRANCH   3  23
ATOM     23  C   UNL     1      11.262   2.798  28.390  0.00  0.00    +0.000 C 
BRANCH  23  24
ATOM     24  C   UNL     1      10.321   3.125  27.258  0.00  0.00    +0.000 C 
BRANCH  24  25
ATOM     25  N   UNL     1       8.960   3.258  27.643  0.00  0.00    +0.000 NA
ATOM     26  C   UNL     1       8.605   4.331  28.471  0.00  0.00    +0.000 C 
ATOM     27  C   UNL     1       7.651   5.254  27.750  0.00  0.00    +0.000 C 
ATOM     28  C   UNL     1       6.368   4.478  27.549  0.00  0.00    +0.000 C 
ATOM     29  C   UNL     1       6.598   3.138  26.921  0.00  0.00    +0.000 C 
ATOM     30  C   UNL     1       7.999   2.736  26.754  0.00  0.00    +0.000 C 
ENDBRANCH  24  25
ENDBRANCH  23  24
ENDBRANCH   3  23
TORSDOF 7
ENDMDL
MODEL 5
REMARK VINA RESULT:      -7.7     23.008     26.604
REMARK  Name = 
REMARK  7 active torsions:
REMARK  status: ('A' for Active; 'I' for Inactive)
REMARK    1  A    between atoms: C_4  and  C_5
REMARK    2  A    between atoms: C_5  and  O_6
REMARK    3  A    between atoms: O_6  and  C_7
REMARK    4  A    between atoms: C_10  and  N_11
REMARK    5  A    between atoms: C_13  and  C_14
REMARK    6  A    between atoms: C_14  and  C_15
REMARK    7  A    between atoms: C_15  and  N_16
REMARK                            x       y       z     vdW  Elec       q    Type
REMARK                         _______ _______ _______ _____ _____    ______ ____
ROOT
ATOM      1  N   UNL     1      37.686   3.489  16.542  0.00  0.00    +0.000 N 
ATOM      2  N   UNL     1      36.862   2.754  17.264  0.00  0.00    +0.000 NA
ATOM      3  C   UNL     1      36.154   1.914  16.459  0.00  0.00    +0.000 A 
ATOM      4  C   UNL     1      36.590   2.175  15.191  0.00  0.00    +0.000 A 
ATOM      5  C   UNL     1      37.544   3.156  15.247  0.00  0.00    +0.000 A 
ATOM      6  N   UNL     1      38.026   3.456  13.956  0.00  0.00    +0.000 NA
ATOM      7  C   UNL     1      37.164   2.808  13.002  0.00  0.00    +0.000 C 
ATOM      8  C   UNL     1      36.401   1.778  13.790  0.00  0.00    +0.000 C 
ENDROOT
BRANCH   1  12
ATOM      9  C   UNL     1      40.398   6.465  17.904  0.00  0.00    +0.000 A 
ATOM     10  C   UNL     1      40.282   6.191  16.553  0.00  0.00    +0.000 A 
ATOM     11  C   UNL     1      39.383   5.206  16.140  0.00  0.00    +0.000 A 
ATOM     12  C   UNL     1      38.602   4.490  17.001  0.00  0.00    +0.000 A 
ATOM     13  C   UNL     1      38.717   4.764  18.360  0.00  0.00    +0.000 A 
ATOM     14  C   UNL     1      39.618   5.749  18.761  0.00  0.00    +0.000 A 
BRANCH   9  15
ATOM     15  O   UNL     1      41.261   7.424  18.397  0.00  0.00    +0.000 OA
BRANCH  15  16
ATOM     16  C   UNL     1      41.475   7.528  19.789  0.00  0.00    +0.000 C 
BRANCH  16  20
ATOM     17  C   UNL     1      45.294   5.920  20.742  0.00  0.00    +0.000 A 
ATOM     18  C   UNL     1      44.229   5.696  21.594  0.00  0.00    +0.000 A 
ATOM     19  C   UNL     1      42.970   6.192  21.335  0.00  0.00    +0.000 A 
ATOM     20  C   UNL     1      42.776   6.925  20.203  0.00  0.00    +0.000 A 
ATOM     21  C   UNL     1      43.843   7.147  19.352  0.00  0.00    +0.000 A 
ATOM     22  C   UNL     1      45.097   6.661  19.596  0.00  0.00    +0.000 A 
ENDBRANCH  16  20
ENDBRANCH  15  16
ENDBRANCH   9  15
ENDBRANCH   1  12
BRANCH   3  23
ATOM     23  C   UNL     1      35.156   0.979  17.006  0.00  0.00    +0.000 C 
BRANCH  23  24
ATOM     24  C   UNL     1      35.622   0.302  18.270  0.00  0.00    +0.000 C 
BRANCH  24  25
ATOM     25  N   UNL     1      36.315  -0.921  18.065  0.00  0.00    +0.000 NA
ATOM     26  C   UNL     1      36.458  -1.391  16.753  0.00  0.00    +0.000 C 
ATOM     27  C   UNL     1      37.918  -1.435  16.370  0.00  0.00    +0.000 C 
ATOM     28  C   UNL     1      38.560  -2.497  17.235  0.00  0.00    +0.000 C 
ATOM     29  C   UNL     1      38.260  -2.312  18.691  0.00  0.00    +0.000 C 
ATOM     30  C   UNL     1      37.291  -1.262  19.021  0.00  0.00    +0.000 C 
ENDBRANCH  24  25
ENDBRANCH  23  24
ENDBRANCH   3  23
TORSDOF 7
ENDMDL
MODEL 6
REMARK VINA RESULT:      -7.6     19.658     22.229
REMARK  Name = 
REMARK  7 active torsions:
REMARK  status: ('A' for Active; 'I' for Inactive)
REMARK    1  A    between atoms: C_4  and  C_5
REMARK    2  A    between atoms: C_5  and  O_6
REMARK    3  A    between atoms: O_6  and  C_7
REMARK    4  A    between atoms: C_10  and  N_11
REMARK    5  A    between atoms: C_13  and  C_14
REMARK    6  A    between atoms: C_14  and  C_15
REMARK    7  A    between atoms: C_15  and  N_16
REMARK                            x       y       z     vdW  Elec       q    Type
REMARK                         _______ _______ _______ _____ _____    ______ ____
ROOT
ATOM      1  N   UNL     1      25.733  16.294  36.723  0.00  0.00    +0.000 N 
ATOM      2  N   UNL     1      25.370  17.563  36.746  0.00  0.00    +0.000 NA
ATOM      3  C   UNL     1      25.034  17.979  35.494  0.00  0.00    +0.000 A 
ATOM      4  C   UNL     1      25.212  16.887  34.691  0.00  0.00    +0.000 A 
ATOM      5  C   UNL     1      25.647  15.841  35.460  0.00  0.00    +0.000 A 
ATOM      6  N   UNL     1      25.841  14.690  34.669  0.00  0.00    +0.000 NA
ATOM      7  C   UNL     1      25.762  15.085  33.287  0.00  0.00    +0.000 C 
ATOM      8  C   UNL     1      25.102  16.437  33.297  0.00  0.00    +0.000 C 
ENDROOT
BRANCH   1  12
ATOM      9  C   UNL     1      26.992  13.891  39.994  0.00  0.00    +0.000 A 
ATOM     10  C   UNL     1      27.895  14.710  39.341  0.00  0.00    +0.000 A 
ATOM     11  C   UNL     1      27.449  15.486  38.269  0.00  0.00    +0.000 A 
ATOM     12  C   UNL     1      26.158  15.482  37.823  0.00  0.00    +0.000 A 
ATOM     13  C   UNL     1      25.249  14.659  38.479  0.00  0.00    +0.000 A 
ATOM     14  C   UNL     1      25.706  13.889  39.548  0.00  0.00    +0.000 A 
BRANCH   9  15
ATOM     15  O   UNL     1      27.351  13.094  41.064  0.00  0.00    +0.000 OA
BRANCH  15  16
ATOM     16  C   UNL     1      26.909  11.754  41.122  0.00  0.00    +0.000 C 
BRANCH  16  20
ATOM     17  C   UNL     1      29.980   8.814  41.061  0.00  0.00    +0.000 A 
ATOM     18  C   UNL     1      30.212  10.053  40.495  0.00  0.00    +0.000 A 
ATOM     19  C   UNL     1      29.254  11.044  40.486  0.00  0.00    +0.000 A 
ATOM     20  C   UNL     1      28.043  10.787  41.055  0.00  0.00    +0.000 A 
ATOM     21  C   UNL     1      27.813   9.547  41.622  0.00  0.00    +0.000 A 
ATOM     22  C   UNL     1      28.754   8.555  41.637  0.00  0.00    +0.000 A 
ENDBRANCH  16  20
ENDBRANCH  15  16
ENDBRANCH   9  15
ENDBRANCH   1  12
BRANCH   3  23
ATOM     23  C   UNL     1      24.591  19.358  35.231  0.00  0.00    +0.000 C 
BRANCH  23  24
ATOM     24  C   UNL     1      25.432  20.053  34.190  0.00  0.00    +0.000 C 
BRANCH  24  25
ATOM     25  N   UNL     1      24.691  20.647  33.133  0.00  0.00    +0.000 NA
ATOM     26  C   UNL     1      24.400  19.867  32.006  0.00  0.00    +0.000 C 
ATOM     27  C   UNL     1      22.907  19.686  31.868  0.00  0.00    +0.000 C 
ATOM     28  C   UNL     1      22.333  21.050  31.555  0.00  0.00    +0.000 C 
ATOM     29  C   UNL     1      22.788  22.101  32.521  0.00  0.00    +0.000 C 
ATOM     30  C   UNL     1      23.812  21.689  33.487  0.00  0.00    +0.000 C 
ENDBRANCH  24  25
ENDBRANCH  23  24
ENDBRANCH   3  23
TORSDOF 7
ENDMDL
MODEL 7
REMARK VINA RESULT:      -7.5     22.370     26.832
REMARK  Name = 
REMARK  7 active torsions:
REMARK  status: ('A' for Active; 'I' for Inactive)
REMARK    1  A    between atoms: C_4  and  C_5
REMARK    2  A    between atoms: C_5  and  O_6
REMARK    3  A    between atoms: O_6  and  C_7
REMARK    4  A    between atoms: C_10  and  N_11
REMARK    5  A    between atoms: C_13  and  C_14
REMARK    6  A    between atoms: C_14  and  C_15
REMARK    7  A    between atoms: C_15  and  N_16
REMARK                            x       y       z     vdW  Elec       q    Type
REMARK                         _______ _______ _______ _____ _____    ______ ____
ROOT
ATOM      1  N   UNL     1      38.309   4.821  16.605  0.00  0.00    +0.000 N 
ATOM      2  N   UNL     1      37.842   3.588  16.680  0.00  0.00    +0.000 NA
ATOM      3  C   UNL     1      36.864   3.399  15.752  0.00  0.00    +0.000 A 
ATOM      4  C   UNL     1      36.752   4.592  15.096  0.00  0.00    +0.000 A 
ATOM      5  C   UNL     1      37.653   5.474  15.629  0.00  0.00    +0.000 A 
ATOM      6  N   UNL     1      37.573   6.722  14.978  0.00  0.00    +0.000 NA
ATOM      7  C   UNL     1      36.394   6.714  14.151  0.00  0.00    +0.000 C 
ATOM      8  C   UNL     1      36.009   5.265  14.022  0.00  0.00    +0.000 C 
ENDROOT
BRANCH   1  12
ATOM      9  C   UNL     1      41.362   6.607  18.961  0.00  0.00    +0.000 A 
ATOM     10  C   UNL     1      41.521   6.476  17.594  0.00  0.00    +0.000 A 
ATOM     11  C   UNL     1      40.499   5.883  16.849  0.00  0.00    +0.000 A 
ATOM     12  C   UNL     1      39.338   5.420  17.399  0.00  0.00    +0.000 A 
ATOM     13  C   UNL     1      39.177   5.551  18.774  0.00  0.00    +0.000 A 
ATOM     14  C   UNL     1      40.203   6.144  19.507  0.00  0.00    +0.000 A 
BRANCH   9  15
ATOM     15  O   UNL     1      42.322   7.183  19.770  0.00  0.00    +0.000 OA
BRANCH  15  16
ATOM     16  C   UNL     1      42.613   6.614  21.029  0.00  0.00    +0.000 C 
BRANCH  16  20
ATOM     17  C   UNL     1      46.528   4.961  20.902  0.00  0.00    +0.000 A 
ATOM     18  C   UNL     1      45.623   4.495  21.836  0.00  0.00    +0.000 A 
ATOM     19  C   UNL     1      44.341   4.993  21.922  0.00  0.00    +0.000 A 
ATOM     20  C   UNL     1      43.962   5.976  21.057  0.00  0.00    +0.000 A 
ATOM     21  C   UNL     1      44.870   6.440  20.124  0.00  0.00    +0.000 A 
ATOM     22  C   UNL     1      46.145   5.955  20.027  0.00  0.00    +0.000 A 
ENDBRANCH  16  20
ENDBRANCH  15  16
ENDBRANCH   9  15
ENDBRANCH   1  12
BRANCH   3  23
ATOM     23  C   UNL     1      36.167   2.108  15.617  0.00  0.00    +0.000 C 
BRANCH  23  24
ATOM     24  C   UNL     1      35.863   1.467  16.947  0.00  0.00    +0.000 C 
BRANCH  24  25
ATOM     25  N   UNL     1      35.911   0.047  16.943  0.00  0.00    +0.000 NA
ATOM     26  C   UNL     1      35.261  -0.643  17.974  0.00  0.00    +0.000 C 
ATOM     27  C   UNL     1      34.139  -1.484  17.414  0.00  0.00    +0.000 C 
ATOM     28  C   UNL     1      34.786  -2.563  16.574  0.00  0.00    +0.000 C 
ATOM     29  C   UNL     1      35.762  -2.010  15.580  0.00  0.00    +0.000 C 
ATOM     30  C   UNL     1      36.047  -0.576  15.686  0.00  0.00    +0.000 C 
ENDBRANCH  24  25
ENDBRANCH  23  24
ENDBRANCH   3  23
TORSDOF 7
ENDMDL
MODEL 8
REMARK VINA RESULT:      -7.5     19.169     22.019
REMARK  Name = 
REMARK  7 active torsions:
REMARK  status: ('A' for Active; 'I' for Inactive)
REMARK    1  A    between atoms: C_4  and  C_5
REMARK    2  A    between atoms: C_5  and  O_6
REMARK    3  A    between atoms: O_6  and  C_7
REMARK    4  A    between atoms: C_10  and  N_11
REMARK    5  A    between atoms: C_13  and  C_14
REMARK    6  A    between atoms: C_14  and  C_15
REMARK    7  A    between atoms: C_15  and  N_16
REMARK                            x       y       z     vdW  Elec       q    Type
REMARK                         _______ _______ _______ _____ _____    ______ ____
ROOT
ATOM      1  N   UNL     1      25.841  16.012  38.582  0.00  0.00    +0.000 N 
ATOM      2  N   UNL     1      25.979  16.378  37.321  0.00  0.00    +0.000 NA
ATOM      3  C   UNL     1      25.169  17.439  37.048  0.00  0.00    +0.000 A 
ATOM      4  C   UNL     1      24.519  17.707  38.220  0.00  0.00    +0.000 A 
ATOM      5  C   UNL     1      24.940  16.818  39.171  0.00  0.00    +0.000 A 
ATOM      6  N   UNL     1      24.293  17.061  40.401  0.00  0.00    +0.000 NA
ATOM      7  C   UNL     1      23.226  17.996  40.160  0.00  0.00    +0.000 C 
ATOM      8  C   UNL     1      23.529  18.611  38.821  0.00  0.00    +0.000 C 
ENDROOT
BRANCH   1  12
ATOM      9  C   UNL     1      27.826  12.843  40.601  0.00  0.00    +0.000 A 
ATOM     10  C   UNL     1      26.457  12.801  40.411  0.00  0.00    +0.000 A 
ATOM     11  C   UNL     1      25.836  13.860  39.745  0.00  0.00    +0.000 A 
ATOM     12  C   UNL     1      26.510  14.946  39.265  0.00  0.00    +0.000 A 
ATOM     13  C   UNL     1      27.887  14.989  39.454  0.00  0.00    +0.000 A 
ATOM     14  C   UNL     1      28.496  13.927  40.121  0.00  0.00    +0.000 A 
BRANCH   9  15
ATOM     15  O   UNL     1      28.518  11.837  41.247  0.00  0.00    +0.000 OA
BRANCH  15  16
ATOM     16  C   UNL     1      28.766  10.616  40.582  0.00  0.00    +0.000 C 
BRANCH  16  20
ATOM     17  C   UNL     1      27.350   7.260  42.776  0.00  0.00    +0.000 A 
ATOM     18  C   UNL     1      26.483   7.949  41.951  0.00  0.00    +0.000 A 
ATOM     19  C   UNL     1      26.886   9.043  41.216  0.00  0.00    +0.000 A 
ATOM     20  C   UNL     1      28.183   9.452  41.312  0.00  0.00    +0.000 A 
ATOM     21  C   UNL     1      29.049   8.761  42.138  0.00  0.00    +0.000 A 
ATOM     22  C   UNL     1      28.662   7.675  42.873  0.00  0.00    +0.000 A 
ENDBRANCH  16  20
ENDBRANCH  15  16
ENDBRANCH   9  15
ENDBRANCH   1  12
BRANCH   3  23
ATOM     23  C   UNL     1      25.123  18.051  35.710  0.00  0.00    +0.000 C 
BRANCH  23  24
ATOM     24  C   UNL     1      26.395  17.840  34.927  0.00  0.00    +0.000 C 
BRANCH  24  25
ATOM     25  N   UNL     1      26.283  16.909  33.860  0.00  0.00    +0.000 NA
ATOM     26  C   UNL     1      27.064  15.746  33.908  0.00  0.00    +0.000 C 
ATOM     27  C   UNL     1      26.179  14.526  33.993  0.00  0.00    +0.000 C 
ATOM     28  C   UNL     1      25.434  14.439  32.680  0.00  0.00    +0.000 C 
ATOM     29  C   UNL     1      24.758  15.726  32.315  0.00  0.00    +0.000 C 
ATOM     30  C   UNL     1      25.050  16.874  33.179  0.00  0.00    +0.000 C 
ENDBRANCH  24  25
ENDBRANCH  23  24
ENDBRANCH   3  23
TORSDOF 7
ENDMDL
MODEL 9
REMARK VINA RESULT:      -7.4     23.725     26.296
REMARK  Name = 
REMARK  7 active torsions:
REMARK  status: ('A' for Active; 'I' for Inactive)
REMARK    1  A    between atoms: C_4  and  C_5
REMARK    2  A    between atoms: C_5  and  O_6
REMARK    3  A    between atoms: O_6  and  C_7
REMARK    4  A    between atoms: C_10  and  N_11
REMARK    5  A    between atoms: C_13  and  C_14
REMARK    6  A    between atoms: C_14  and  C_15
REMARK    7  A    between atoms: C_15  and  N_16
REMARK                            x       y       z     vdW  Elec       q    Type
REMARK                         _______ _______ _______ _____ _____    ______ ____
ROOT
ATOM      1  N   UNL     1      37.754   4.107  16.790  0.00  0.00    +0.000 N 
ATOM      2  N   UNL     1      37.301   2.979  17.304  0.00  0.00    +0.000 NA
ATOM      3  C   UNL     1      36.299   2.479  16.529  0.00  0.00    +0.000 A 
ATOM      4  C   UNL     1      36.158   3.369  15.501  0.00  0.00    +0.000 A 
ATOM      5  C   UNL     1      37.066   4.380  15.668  0.00  0.00    +0.000 A 
ATOM      6  N   UNL     1      36.956   5.323  14.625  0.00  0.00    +0.000 NA
ATOM      7  C   UNL     1      35.755   5.028  13.887  0.00  0.00    +0.000 C 
ATOM      8  C   UNL     1      35.380   3.626  14.283  0.00  0.00    +0.000 C 
ENDROOT
BRANCH   1  12
ATOM      9  C   UNL     1      40.853   6.599  18.289  0.00  0.00    +0.000 A 
ATOM     10  C   UNL     1      40.765   6.332  16.935  0.00  0.00    +0.000 A 
ATOM     11  C   UNL     1      39.735   5.508  16.476  0.00  0.00    +0.000 A 
ATOM     12  C   UNL     1      38.800   4.945  17.296  0.00  0.00    +0.000 A 
ATOM     13  C   UNL     1      38.888   5.212  18.657  0.00  0.00    +0.000 A 
ATOM     14  C   UNL     1      39.919   6.036  19.105  0.00  0.00    +0.000 A 
BRANCH   9  15
ATOM     15  O   UNL     1      41.839   7.406  18.825  0.00  0.00    +0.000 OA
BRANCH  15  16
ATOM     16  C   UNL     1      41.813   8.798  18.590  0.00  0.00    +0.000 C 
BRANCH  16  20
ATOM     17  C   UNL     1      38.240  10.532  20.109  0.00  0.00    +0.000 A 
ATOM     18  C   UNL     1      38.414  10.417  18.744  0.00  0.00    +0.000 A 
ATOM     19  C   UNL     1      39.550   9.863  18.195  0.00  0.00    +0.000 A 
ATOM     20  C   UNL     1      40.529   9.417  19.032  0.00  0.00    +0.000 A 
ATOM     21  C   UNL     1      40.353   9.533  20.398  0.00  0.00    +0.000 A 
ATOM     22  C   UNL     1      39.231  10.081  20.956  0.00  0.00    +0.000 A 
ENDBRANCH  16  20
ENDBRANCH  15  16
ENDBRANCH   9  15
ENDBRANCH   1  12
BRANCH   3  23
ATOM     23  C   UNL     1      35.611   1.223  16.872  0.00  0.00    +0.000 C 
BRANCH  23  24
ATOM     24  C   UNL     1      36.097   0.050  16.058  0.00  0.00    +0.000 C 
BRANCH  24  25
ATOM     25  N   UNL     1      37.238  -0.606  16.591  0.00  0.00    +0.000 NA
ATOM     26  C   UNL     1      37.135  -1.196  17.857  0.00  0.00    +0.000 C 
ATOM     27  C   UNL     1      37.326  -2.691  17.754  0.00  0.00    +0.000 C 
ATOM     28  C   UNL     1      38.763  -2.915  17.338  0.00  0.00    +0.000 C 
ATOM     29  C   UNL     1      39.145  -2.111  16.132  0.00  0.00    +0.000 C 
ATOM     30  C   UNL     1      38.149  -1.144  15.660  0.00  0.00    +0.000 C 
ENDBRANCH  24  25
ENDBRANCH  23  24
ENDBRANCH   3  23
TORSDOF 7
ENDMDL
MODEL 10
REMARK VINA RESULT:      -7.4     22.886     26.675
REMARK  Name = 
REMARK  7 active torsions:
REMARK  status: ('A' for Active; 'I' for Inactive)
REMARK    1  A    between atoms: C_4  and  C_5
REMARK    2  A    between atoms: C_5  and  O_6
REMARK    3  A    between atoms: O_6  and  C_7
REMARK    4  A    between atoms: C_10  and  N_11
REMARK    5  A    between atoms: C_13  and  C_14
REMARK    6  A    between atoms: C_14  and  C_15
REMARK    7  A    between atoms: C_15  and  N_16
REMARK                            x       y       z     vdW  Elec       q    Type
REMARK                         _______ _______ _______ _____ _____    ______ ____
ROOT
ATOM      1  N   UNL     1      39.015   0.122  14.744  0.00  0.00    +0.000 N 
ATOM      2  N   UNL     1      38.884  -0.655  15.803  0.00  0.00    +0.000 NA
ATOM      3  C   UNL     1      39.100  -1.956  15.462  0.00  0.00    +0.000 A 
ATOM      4  C   UNL     1      39.374  -1.937  14.123  0.00  0.00    +0.000 A 
ATOM      5  C   UNL     1      39.321  -0.643  13.680  0.00  0.00    +0.000 A 
ATOM      6  N   UNL     1      39.601  -0.577  12.300  0.00  0.00    +0.000 NA
ATOM      7  C   UNL     1      39.592  -1.921  11.784  0.00  0.00    +0.000 C 
ATOM      8  C   UNL     1      39.706  -2.812  12.991  0.00  0.00    +0.000 C 
ENDROOT
BRANCH   1  12
ATOM      9  C   UNL     1      38.587   4.345  14.548  0.00  0.00    +0.000 A 
ATOM     10  C   UNL     1      37.550   3.559  15.016  0.00  0.00    +0.000 A 
ATOM     11  C   UNL     1      37.723   2.174  15.066  0.00  0.00    +0.000 A 
ATOM     12  C   UNL     1      38.870   1.545  14.675  0.00  0.00    +0.000 A 
ATOM     13  C   UNL     1      39.914   2.334  14.205  0.00  0.00    +0.000 A 
ATOM     14  C   UNL     1      39.730   3.715  14.159  0.00  0.00    +0.000 A 
BRANCH   9  15
ATOM     15  O   UNL     1      38.499   5.722  14.469  0.00  0.00    +0.000 OA
BRANCH  15  16
ATOM     16  C   UNL     1      38.037   6.461  15.579  0.00  0.00    +0.000 C 
BRANCH  16  20
ATOM     17  C   UNL     1      40.825   6.168  18.776  0.00  0.00    +0.000 A 
ATOM     18  C   UNL     1      39.498   5.854  18.999  0.00  0.00    +0.000 A 
ATOM     19  C   UNL     1      38.551   5.930  18.001  0.00  0.00    +0.000 A 
ATOM     20  C   UNL     1      38.943   6.328  16.758  0.00  0.00    +0.000 A 
ATOM     21  C   UNL     1      40.271   6.642  16.537  0.00  0.00    +0.000 A 
ATOM     22  C   UNL     1      41.221   6.571  17.518  0.00  0.00    +0.000 A 
ENDBRANCH  16  20
ENDBRANCH  15  16
ENDBRANCH   9  15
ENDBRANCH   1  12
BRANCH   3  23
ATOM     23  C   UNL     1      39.015  -3.039  16.455  0.00  0.00    +0.000 C 
BRANCH  23  24
ATOM     24  C   UNL     1      37.616  -3.583  16.608  0.00  0.00    +0.000 C 
BRANCH  24  25
ATOM     25  N   UNL     1      36.828  -2.916  17.584  0.00  0.00    +0.000 NA
ATOM     26  C   UNL     1      37.422  -2.591  18.810  0.00  0.00    +0.000 C 
ATOM     27  C   UNL     1      37.461  -1.093  18.991  0.00  0.00    +0.000 C 
ATOM     28  C   UNL     1      36.025  -0.636  19.123  0.00  0.00    +0.000 C 
ATOM     29  C   UNL     1      35.154  -1.149  18.017  0.00  0.00    +0.000 C 
ATOM     30  C   UNL     1      35.774  -2.114  17.103  0.00  0.00    +0.000 C 
ENDBRANCH  24  25
ENDBRANCH  23  24
ENDBRANCH   3  23
TORSDOF 7
ENDMDL
