MODEL 1
REMARK VINA RESULT:      -6.3      0.000      0.000
REMARK  Name = 
REMARK  3 active torsions:
REMARK  status: ('A' for Active; 'I' for Inactive)
REMARK    1  A    between atoms: C_2  and  C_14
REMARK    2  A    between atoms: N_3  and  C_4
REMARK    3  A    between atoms: C_19  and  N_20
REMARK                            x       y       z     vdW  Elec       q    Type
REMARK                         _______ _______ _______ _____ _____    ______ ____
ROOT
ATOM      1  O   UNL     1      32.291  -5.472  32.941  0.00  0.00    +0.000 OA
ATOM      2  C   UNL     1      33.283  -4.925  32.283  0.00  0.00    +0.000 C 
ATOM      3  N   UNL     1      33.789  -3.757  32.841  0.00  0.00    +0.000 NA
ENDROOT
BRANCH   3   4
ATOM      4  C   UNL     1      33.410  -3.065  34.005  0.00  0.00    +0.000 C 
ATOM      5  C   UNL     1      33.194  -1.601  33.867  0.00  0.00    +0.000 C 
ATOM      6  C   UNL     1      34.513  -0.901  34.101  0.00  0.00    +0.000 C 
ATOM      7  C   UNL     1      35.084  -1.295  35.441  0.00  0.00    +0.000 C 
ATOM      8  C   UNL     1      34.156  -0.849  36.563  0.00  0.00    +0.000 C 
ATOM      9  C   UNL     1      32.837  -1.585  36.341  0.00  0.00    +0.000 C 
ATOM     10  C   UNL     1      32.297  -1.165  35.012  0.00  0.00    +0.000 C 
ATOM     11  C   UNL     1      33.065  -3.105  36.393  0.00  0.00    +0.000 C 
ATOM     12  C   UNL     1      34.000  -3.545  35.283  0.00  0.00    +0.000 C 
ATOM     13  C   UNL     1      35.315  -2.786  35.493  0.00  0.00    +0.000 C 
ENDBRANCH   3   4
BRANCH   2  14
ATOM     14  C   UNL     1      33.652  -5.641  31.089  0.00  0.00    +0.000 A 
ATOM     15  C   UNL     1      33.038  -5.326  29.852  0.00  0.00    +0.000 A 
ATOM     16  C   UNL     1      33.417  -5.963  28.690  0.00  0.00    +0.000 A 
ATOM     17  C   UNL     1      34.400  -6.918  28.713  0.00  0.00    +0.000 A 
ATOM     18  C   UNL     1      35.014  -7.245  29.914  0.00  0.00    +0.000 A 
ATOM     19  C   UNL     1      34.623  -6.595  31.084  0.00  0.00    +0.000 A 
BRANCH  19  20
ATOM     20  N   UNL     1      35.252  -6.984  32.292  0.00  0.00    +0.000 N 
ATOM     21  O   UNL     1      34.851  -7.805  33.092  0.00  0.00    +0.000 OA
ATOM     22  O   UNL     1      36.480  -6.385  32.595  0.00  0.00    +0.000 OA
ENDBRANCH  19  20
ENDBRANCH   2  14
TORSDOF 3
ENDMDL
MODEL 2
REMARK VINA RESULT:      -6.3     19.119     20.635
REMARK  Name = 
REMARK  3 active torsions:
REMARK  status: ('A' for Active; 'I' for Inactive)
REMARK    1  A    between atoms: C_2  and  C_14
REMARK    2  A    between atoms: N_3  and  C_4
REMARK    3  A    between atoms: C_19  and  N_20
REMARK                            x       y       z     vdW  Elec       q    Type
REMARK                         _______ _______ _______ _____ _____    ______ ____
ROOT
ATOM      1  O   UNL     1      24.322   2.594  18.868  0.00  0.00    +0.000 OA
ATOM      2  C   UNL     1      23.714   3.069  17.809  0.00  0.00    +0.000 C 
ATOM      3  N   UNL     1      24.458   3.968  17.054  0.00  0.00    +0.000 NA
ENDROOT
BRANCH   3   4
ATOM      4  C   UNL     1      25.765   4.450  17.240  0.00  0.00    +0.000 C 
ATOM      5  C   UNL     1      25.917   5.636  18.123  0.00  0.00    +0.000 C 
ATOM      6  C   UNL     1      25.775   6.880  17.277  0.00  0.00    +0.000 C 
ATOM      7  C   UNL     1      26.766   6.855  16.139  0.00  0.00    +0.000 C 
ATOM      8  C   UNL     1      28.190   6.862  16.676  0.00  0.00    +0.000 C 
ATOM      9  C   UNL     1      28.337   5.586  17.502  0.00  0.00    +0.000 C 
ATOM     10  C   UNL     1      27.351   5.649  18.623  0.00  0.00    +0.000 C 
ATOM     11  C   UNL     1      28.095   4.352  16.616  0.00  0.00    +0.000 C 
ATOM     12  C   UNL     1      26.680   4.355  16.070  0.00  0.00    +0.000 C 
ATOM     13  C   UNL     1      26.525   5.649  15.263  0.00  0.00    +0.000 C 
ENDBRANCH   3   4
BRANCH   2  14
ATOM     14  C   UNL     1      22.373   2.572  17.639  0.00  0.00    +0.000 A 
ATOM     15  C   UNL     1      21.282   3.248  18.239  0.00  0.00    +0.000 A 
ATOM     16  C   UNL     1      19.987   2.818  18.042  0.00  0.00    +0.000 A 
ATOM     17  C   UNL     1      19.733   1.723  17.258  0.00  0.00    +0.000 A 
ATOM     18  C   UNL     1      20.786   1.043  16.662  0.00  0.00    +0.000 A 
ATOM     19  C   UNL     1      22.092   1.486  16.867  0.00  0.00    +0.000 A 
BRANCH  19  20
ATOM     20  N   UNL     1      23.138   0.743  16.267  0.00  0.00    +0.000 N 
ATOM     21  O   UNL     1      23.748  -0.186  16.758  0.00  0.00    +0.000 OA
ATOM     22  O   UNL     1      23.501   1.090  14.961  0.00  0.00    +0.000 OA
ENDBRANCH  19  20
ENDBRANCH   2  14
TORSDOF 3
ENDMDL
MODEL 3
REMARK VINA RESULT:      -6.2      1.406      2.467
REMARK  Name = 
REMARK  3 active torsions:
REMARK  status: ('A' for Active; 'I' for Inactive)
REMARK    1  A    between atoms: C_2  and  C_14
REMARK    2  A    between atoms: N_3  and  C_4
REMARK    3  A    between atoms: C_19  and  N_20
REMARK                            x       y       z     vdW  Elec       q    Type
REMARK                         _______ _______ _______ _____ _____    ______ ____
ROOT
ATOM      1  O   UNL     1      34.709  -5.417  33.195  0.00  0.00    +0.000 OA
ATOM      2  C   UNL     1      33.887  -4.763  32.412  0.00  0.00    +0.000 C 
ATOM      3  N   UNL     1      33.464  -3.531  32.896  0.00  0.00    +0.000 NA
ENDROOT
BRANCH   3   4
ATOM      4  C   UNL     1      33.779  -2.867  34.094  0.00  0.00    +0.000 C 
ATOM      5  C   UNL     1      32.887  -3.128  35.254  0.00  0.00    +0.000 C 
ATOM      6  C   UNL     1      31.751  -2.132  35.215  0.00  0.00    +0.000 C 
ATOM      7  C   UNL     1      32.292  -0.723  35.186  0.00  0.00    +0.000 C 
ATOM      8  C   UNL     1      33.076  -0.431  36.458  0.00  0.00    +0.000 C 
ATOM      9  C   UNL     1      34.241  -1.418  36.474  0.00  0.00    +0.000 C 
ATOM     10  C   UNL     1      33.670  -2.799  36.513  0.00  0.00    +0.000 C 
ATOM     11  C   UNL     1      35.123  -1.215  35.231  0.00  0.00    +0.000 C 
ATOM     12  C   UNL     1      34.336  -1.493  33.965  0.00  0.00    +0.000 C 
ATOM     13  C   UNL     1      33.152  -0.519  33.962  0.00  0.00    +0.000 C 
ENDBRANCH   3   4
BRANCH   2  14
ATOM     14  C   UNL     1      33.568  -5.462  31.193  0.00  0.00    +0.000 A 
ATOM     15  C   UNL     1      34.302  -5.201  30.011  0.00  0.00    +0.000 A 
ATOM     16  C   UNL     1      34.046  -5.899  28.849  0.00  0.00    +0.000 A 
ATOM     17  C   UNL     1      33.071  -6.861  28.820  0.00  0.00    +0.000 A 
ATOM     18  C   UNL     1      32.336  -7.132  29.966  0.00  0.00    +0.000 A 
ATOM     19  C   UNL     1      32.603  -6.420  31.136  0.00  0.00    +0.000 A 
BRANCH  19  20
ATOM     20  N   UNL     1      31.807  -6.706  32.273  0.00  0.00    +0.000 N 
ATOM     21  O   UNL     1      30.762  -6.169  32.585  0.00  0.00    +0.000 OA
ATOM     22  O   UNL     1      32.246  -7.728  33.120  0.00  0.00    +0.000 OA
ENDBRANCH  19  20
ENDBRANCH   2  14
TORSDOF 3
ENDMDL
MODEL 4
REMARK VINA RESULT:      -6.2     18.101     21.075
REMARK  Name = 
REMARK  3 active torsions:
REMARK  status: ('A' for Active; 'I' for Inactive)
REMARK    1  A    between atoms: C_2  and  C_14
REMARK    2  A    between atoms: N_3  and  C_4
REMARK    3  A    between atoms: C_19  and  N_20
REMARK                            x       y       z     vdW  Elec       q    Type
REMARK                         _______ _______ _______ _____ _____    ______ ____
ROOT
ATOM      1  O   UNL     1      20.386  12.894  38.280  0.00  0.00    +0.000 OA
ATOM      2  C   UNL     1      19.967  11.735  37.834  0.00  0.00    +0.000 C 
ATOM      3  N   UNL     1      20.970  10.840  37.484  0.00  0.00    +0.000 NA
ENDROOT
BRANCH   3   4
ATOM      4  C   UNL     1      22.368  10.973  37.534  0.00  0.00    +0.000 C 
ATOM      5  C   UNL     1      23.122  10.528  36.331  0.00  0.00    +0.000 C 
ATOM      6  C   UNL     1      23.441   9.060  36.486  0.00  0.00    +0.000 C 
ATOM      7  C   UNL     1      24.184   8.818  37.777  0.00  0.00    +0.000 C 
ATOM      8  C   UNL     1      25.520   9.548  37.763  0.00  0.00    +0.000 C 
ATOM      9  C   UNL     1      25.190  11.034  37.641  0.00  0.00    +0.000 C 
ATOM     10  C   UNL     1      24.465  11.238  36.350  0.00  0.00    +0.000 C 
ATOM     11  C   UNL     1      24.334  11.486  38.836  0.00  0.00    +0.000 C 
ATOM     12  C   UNL     1      23.010  10.747  38.856  0.00  0.00    +0.000 C 
ATOM     13  C   UNL     1      23.343   9.254  38.953  0.00  0.00    +0.000 C 
ENDBRANCH   3   4
BRANCH   2  14
ATOM     14  C   UNL     1      18.532  11.618  37.780  0.00  0.00    +0.000 A 
ATOM     15  C   UNL     1      17.770  12.552  37.038  0.00  0.00    +0.000 A 
ATOM     16  C   UNL     1      16.401  12.425  36.931  0.00  0.00    +0.000 A 
ATOM     17  C   UNL     1      15.753  11.385  37.546  0.00  0.00    +0.000 A 
ATOM     18  C   UNL     1      16.479  10.459  38.282  0.00  0.00    +0.000 A 
ATOM     19  C   UNL     1      17.863  10.598  38.384  0.00  0.00    +0.000 A 
BRANCH  19  20
ATOM     20  N   UNL     1      18.560   9.649  39.172  0.00  0.00    +0.000 N 
ATOM     21  O   UNL     1      18.905   8.534  38.837  0.00  0.00    +0.000 OA
ATOM     22  O   UNL     1      18.916  10.035  40.469  0.00  0.00    +0.000 OA
ENDBRANCH  19  20
ENDBRANCH   2  14
TORSDOF 3
ENDMDL
MODEL 5
REMARK VINA RESULT:      -6.1     28.762     31.175
REMARK  Name = 
REMARK  3 active torsions:
REMARK  status: ('A' for Active; 'I' for Inactive)
REMARK    1  A    between atoms: C_2  and  C_14
REMARK    2  A    between atoms: N_3  and  C_4
REMARK    3  A    between atoms: C_19  and  N_20
REMARK                            x       y       z     vdW  Elec       q    Type
REMARK                         _______ _______ _______ _____ _____    ______ ____
ROOT
ATOM      1  O   UNL     1      25.498  23.439  25.776  0.00  0.00    +0.000 OA
ATOM      2  C   UNL     1      26.479  24.012  26.430  0.00  0.00    +0.000 C 
ATOM      3  N   UNL     1      27.393  24.698  25.639  0.00  0.00    +0.000 NA
ENDROOT
BRANCH   3   4
ATOM      4  C   UNL     1      27.436  24.881  24.247  0.00  0.00    +0.000 C 
ATOM      5  C   UNL     1      27.665  23.665  23.422  0.00  0.00    +0.000 C 
ATOM      6  C   UNL     1      29.155  23.476  23.258  0.00  0.00    +0.000 C 
ATOM      7  C   UNL     1      29.779  24.719  22.672  0.00  0.00    +0.000 C 
ATOM      8  C   UNL     1      29.224  24.983  21.279  0.00  0.00    +0.000 C 
ATOM      9  C   UNL     1      27.724  25.207  21.456  0.00  0.00    +0.000 C 
ATOM     10  C   UNL     1      27.139  23.956  22.028  0.00  0.00    +0.000 C 
ATOM     11  C   UNL     1      27.475  26.411  22.380  0.00  0.00    +0.000 C 
ATOM     12  C   UNL     1      28.041  26.151  23.762  0.00  0.00    +0.000 C 
ATOM     13  C   UNL     1      29.542  25.901  23.581  0.00  0.00    +0.000 C 
ENDBRANCH   3   4
BRANCH   2  14
ATOM     14  C   UNL     1      26.425  23.806  27.854  0.00  0.00    +0.000 A 
ATOM     15  C   UNL     1      27.098  22.707  28.440  0.00  0.00    +0.000 A 
ATOM     16  C   UNL     1      27.103  22.525  29.807  0.00  0.00    +0.000 A 
ATOM     17  C   UNL     1      26.452  23.411  30.625  0.00  0.00    +0.000 A 
ATOM     18  C   UNL     1      25.783  24.495  30.074  0.00  0.00    +0.000 A 
ATOM     19  C   UNL     1      25.785  24.669  28.690  0.00  0.00    +0.000 A 
BRANCH  19  20
ATOM     20  N   UNL     1      25.061  25.770  28.167  0.00  0.00    +0.000 N 
ATOM     21  O   UNL     1      23.915  25.765  27.766  0.00  0.00    +0.000 OA
ATOM     22  O   UNL     1      25.718  27.005  28.127  0.00  0.00    +0.000 OA
ENDBRANCH  19  20
ENDBRANCH   2  14
TORSDOF 3
ENDMDL
MODEL 6
REMARK VINA RESULT:      -6.1      1.792      6.615
REMARK  Name = 
REMARK  3 active torsions:
REMARK  status: ('A' for Active; 'I' for Inactive)
REMARK    1  A    between atoms: C_2  and  C_14
REMARK    2  A    between atoms: N_3  and  C_4
REMARK    3  A    between atoms: C_19  and  N_20
REMARK                            x       y       z     vdW  Elec       q    Type
REMARK                         _______ _______ _______ _____ _____    ______ ____
ROOT
ATOM      1  O   UNL     1      34.715  -4.633  33.989  0.00  0.00    +0.000 OA
ATOM      2  C   UNL     1      33.738  -4.007  33.382  0.00  0.00    +0.000 C 
ATOM      3  N   UNL     1      33.230  -4.654  32.261  0.00  0.00    +0.000 NA
ENDROOT
BRANCH   3   4
ATOM      4  C   UNL     1      33.593  -5.877  31.672  0.00  0.00    +0.000 C 
ATOM      5  C   UNL     1      34.750  -5.848  30.738  0.00  0.00    +0.000 C 
ATOM      6  C   UNL     1      34.234  -5.544  29.351  0.00  0.00    +0.000 C 
ATOM      7  C   UNL     1      33.175  -6.544  28.956  0.00  0.00    +0.000 C 
ATOM      8  C   UNL     1      33.766  -7.945  28.896  0.00  0.00    +0.000 C 
ATOM      9  C   UNL     1      34.255  -8.259  30.309  0.00  0.00    +0.000 C 
ATOM     10  C   UNL     1      35.307  -7.258  30.663  0.00  0.00    +0.000 C 
ATOM     11  C   UNL     1      33.080  -8.205  31.299  0.00  0.00    +0.000 C 
ATOM     12  C   UNL     1      32.483  -6.812  31.346  0.00  0.00    +0.000 C 
ATOM     13  C   UNL     1      32.016  -6.487  29.922  0.00  0.00    +0.000 C 
ENDBRANCH   3   4
BRANCH   2  14
ATOM     14  C   UNL     1      33.384  -2.751  33.992  0.00  0.00    +0.000 A 
ATOM     15  C   UNL     1      33.774  -1.532  33.387  0.00  0.00    +0.000 A 
ATOM     16  C   UNL     1      33.399  -0.320  33.928  0.00  0.00    +0.000 A 
ATOM     17  C   UNL     1      32.637  -0.277  35.067  0.00  0.00    +0.000 A 
ATOM     18  C   UNL     1      32.245  -1.459  35.679  0.00  0.00    +0.000 A 
ATOM     19  C   UNL     1      32.630  -2.680  35.123  0.00  0.00    +0.000 A 
BRANCH  19  20
ATOM     20  N   UNL     1      32.237  -3.861  35.800  0.00  0.00    +0.000 N 
ATOM     21  O   UNL     1      31.414  -4.673  35.429  0.00  0.00    +0.000 OA
ATOM     22  O   UNL     1      32.874  -4.145  37.012  0.00  0.00    +0.000 OA
ENDBRANCH  19  20
ENDBRANCH   2  14
TORSDOF 3
ENDMDL
MODEL 7
REMARK VINA RESULT:      -5.9     28.572     30.754
REMARK  Name = 
REMARK  3 active torsions:
REMARK  status: ('A' for Active; 'I' for Inactive)
REMARK    1  A    between atoms: C_2  and  C_14
REMARK    2  A    between atoms: N_3  and  C_4
REMARK    3  A    between atoms: C_19  and  N_20
REMARK                            x       y       z     vdW  Elec       q    Type
REMARK                         _______ _______ _______ _____ _____    ______ ____
ROOT
ATOM      1  O   UNL     1      25.385  24.063  26.066  0.00  0.00    +0.000 OA
ATOM      2  C   UNL     1      26.485  24.495  26.632  0.00  0.00    +0.000 C 
ATOM      3  N   UNL     1      27.464  24.943  25.753  0.00  0.00    +0.000 NA
ENDROOT
BRANCH   3   4
ATOM      4  C   UNL     1      27.465  25.012  24.349  0.00  0.00    +0.000 C 
ATOM      5  C   UNL     1      27.633  23.727  23.620  0.00  0.00    +0.000 C 
ATOM      6  C   UNL     1      29.110  23.480  23.425  0.00  0.00    +0.000 C 
ATOM      7  C   UNL     1      29.749  24.652  22.721  0.00  0.00    +0.000 C 
ATOM      8  C   UNL     1      29.156  24.820  21.329  0.00  0.00    +0.000 C 
ATOM      9  C   UNL     1      27.669  25.104  21.534  0.00  0.00    +0.000 C 
ATOM     10  C   UNL     1      27.068  23.921  22.224  0.00  0.00    +0.000 C 
ATOM     11  C   UNL     1      27.485  26.385  22.364  0.00  0.00    +0.000 C 
ATOM     12  C   UNL     1      28.090  26.220  23.745  0.00  0.00    +0.000 C 
ATOM     13  C   UNL     1      29.577  25.910  23.538  0.00  0.00    +0.000 C 
ENDBRANCH   3   4
BRANCH   2  14
ATOM     14  C   UNL     1      26.471  24.408  28.069  0.00  0.00    +0.000 A 
ATOM     15  C   UNL     1      25.547  25.176  28.819  0.00  0.00    +0.000 A 
ATOM     16  C   UNL     1      25.483  25.065  30.192  0.00  0.00    +0.000 A 
ATOM     17  C   UNL     1      26.318  24.205  30.857  0.00  0.00    +0.000 A 
ATOM     18  C   UNL     1      27.233  23.444  30.143  0.00  0.00    +0.000 A 
ATOM     19  C   UNL     1      27.290  23.563  28.755  0.00  0.00    +0.000 A 
BRANCH  19  20
ATOM     20  N   UNL     1      28.262  22.793  28.070  0.00  0.00    +0.000 N 
ATOM     21  O   UNL     1      28.083  21.740  27.491  0.00  0.00    +0.000 OA
ATOM     22  O   UNL     1      29.565  23.300  28.028  0.00  0.00    +0.000 OA
ENDBRANCH  19  20
ENDBRANCH   2  14
TORSDOF 3
ENDMDL
MODEL 8
REMARK VINA RESULT:      -5.9     18.656     20.862
REMARK  Name = 
REMARK  3 active torsions:
REMARK  status: ('A' for Active; 'I' for Inactive)
REMARK    1  A    between atoms: C_2  and  C_14
REMARK    2  A    between atoms: N_3  and  C_4
REMARK    3  A    between atoms: C_19  and  N_20
REMARK                            x       y       z     vdW  Elec       q    Type
REMARK                         _______ _______ _______ _____ _____    ______ ____
ROOT
ATOM      1  O   UNL     1      16.674  -9.074  27.478  0.00  0.00    +0.000 OA
ATOM      2  C   UNL     1      16.501  -8.143  26.572  0.00  0.00    +0.000 C 
ATOM      3  N   UNL     1      15.249  -8.134  25.968  0.00  0.00    +0.000 NA
ENDROOT
BRANCH   3   4
ATOM      4  C   UNL     1      14.132  -8.962  26.174  0.00  0.00    +0.000 C 
ATOM      5  C   UNL     1      14.192 -10.321  25.573  0.00  0.00    +0.000 C 
ATOM      6  C   UNL     1      13.646 -10.244  24.167  0.00  0.00    +0.000 C 
ATOM      7  C   UNL     1      12.255  -9.659  24.177  0.00  0.00    +0.000 C 
ATOM      8  C   UNL     1      11.307 -10.560  24.957  0.00  0.00    +0.000 C 
ATOM      9  C   UNL     1      11.846 -10.606  26.385  0.00  0.00    +0.000 C 
ATOM     10  C   UNL     1      13.218 -11.199  26.338  0.00  0.00    +0.000 C 
ATOM     11  C   UNL     1      11.871  -9.192  26.986  0.00  0.00    +0.000 C 
ATOM     12  C   UNL     1      12.804  -8.292  26.199  0.00  0.00    +0.000 C 
ATOM     13  C   UNL     1      12.278  -8.267  24.760  0.00  0.00    +0.000 C 
ENDBRANCH   3   4
BRANCH   2  14
ATOM     14  C   UNL     1      17.657  -7.309  26.368  0.00  0.00    +0.000 A 
ATOM     15  C   UNL     1      17.687  -5.994  26.892  0.00  0.00    +0.000 A 
ATOM     16  C   UNL     1      18.806  -5.201  26.752  0.00  0.00    +0.000 A 
ATOM     17  C   UNL     1      19.914  -5.676  26.099  0.00  0.00    +0.000 A 
ATOM     18  C   UNL     1      19.907  -6.961  25.575  0.00  0.00    +0.000 A 
ATOM     19  C   UNL     1      18.769  -7.755  25.722  0.00  0.00    +0.000 A 
BRANCH  19  20
ATOM     20  N   UNL     1      18.793  -9.048  25.142  0.00  0.00    +0.000 N 
ATOM     21  O   UNL     1      18.364  -9.366  24.051  0.00  0.00    +0.000 OA
ATOM     22  O   UNL     1      19.394 -10.070  25.885  0.00  0.00    +0.000 OA
ENDBRANCH  19  20
ENDBRANCH   2  14
TORSDOF 3
ENDMDL
MODEL 9
REMARK VINA RESULT:      -5.8     18.988     20.840
REMARK  Name = 
REMARK  3 active torsions:
REMARK  status: ('A' for Active; 'I' for Inactive)
REMARK    1  A    between atoms: C_2  and  C_14
REMARK    2  A    between atoms: N_3  and  C_4
REMARK    3  A    between atoms: C_19  and  N_20
REMARK                            x       y       z     vdW  Elec       q    Type
REMARK                         _______ _______ _______ _____ _____    ______ ____
ROOT
ATOM      1  O   UNL     1      25.061   2.897  14.750  0.00  0.00    +0.000 OA
ATOM      2  C   UNL     1      24.282   3.374  15.689  0.00  0.00    +0.000 C 
ATOM      3  N   UNL     1      24.816   4.428  16.421  0.00  0.00    +0.000 NA
ENDROOT
BRANCH   3   4
ATOM      4  C   UNL     1      26.061   5.071  16.315  0.00  0.00    +0.000 C 
ATOM      5  C   UNL     1      27.159   4.538  17.166  0.00  0.00    +0.000 C 
ATOM      6  C   UNL     1      27.113   5.246  18.500  0.00  0.00    +0.000 C 
ATOM      7  C   UNL     1      27.185   6.740  18.303  0.00  0.00    +0.000 C 
ATOM      8  C   UNL     1      28.509   7.126  17.657  0.00  0.00    +0.000 C 
ATOM      9  C   UNL     1      28.533   6.436  16.295  0.00  0.00    +0.000 C 
ATOM     10  C   UNL     1      28.471   4.960  16.529  0.00  0.00    +0.000 C 
ATOM     11  C   UNL     1      27.350   6.914  15.439  0.00  0.00    +0.000 C 
ATOM     12  C   UNL     1      26.032   6.541  16.091  0.00  0.00    +0.000 C 
ATOM     13  C   UNL     1      26.019   7.214  17.468  0.00  0.00    +0.000 C 
ENDBRANCH   3   4
BRANCH   2  14
ATOM     14  C   UNL     1      23.014   2.698  15.790  0.00  0.00    +0.000 A 
ATOM     15  C   UNL     1      22.027   2.886  14.792  0.00  0.00    +0.000 A 
ATOM     16  C   UNL     1      20.828   2.206  14.843  0.00  0.00    +0.000 A 
ATOM     17  C   UNL     1      20.572   1.332  15.868  0.00  0.00    +0.000 A 
ATOM     18  C   UNL     1      21.523   1.133  16.859  0.00  0.00    +0.000 A 
ATOM     19  C   UNL     1      22.733   1.827  16.797  0.00  0.00    +0.000 A 
BRANCH  19  20
ATOM     20  N   UNL     1      23.661   1.620  17.847  0.00  0.00    +0.000 N 
ATOM     21  O   UNL     1      23.774   2.279  18.861  0.00  0.00    +0.000 OA
ATOM     22  O   UNL     1      24.528   0.529  17.726  0.00  0.00    +0.000 OA
ENDBRANCH  19  20
ENDBRANCH   2  14
TORSDOF 3
ENDMDL
MODEL 10
REMARK VINA RESULT:      -5.8     29.372     31.454
REMARK  Name = 
REMARK  3 active torsions:
REMARK  status: ('A' for Active; 'I' for Inactive)
REMARK    1  A    between atoms: C_2  and  C_14
REMARK    2  A    between atoms: N_3  and  C_4
REMARK    3  A    between atoms: C_19  and  N_20
REMARK                            x       y       z     vdW  Elec       q    Type
REMARK                         _______ _______ _______ _____ _____    ______ ____
ROOT
ATOM      1  O   UNL     1      25.628  23.081  25.313  0.00  0.00    +0.000 OA
ATOM      2  C   UNL     1      26.576  23.942  25.589  0.00  0.00    +0.000 C 
ATOM      3  N   UNL     1      26.135  25.204  25.971  0.00  0.00    +0.000 NA
ENDROOT
BRANCH   3   4
ATOM      4  C   UNL     1      24.831  25.708  26.114  0.00  0.00    +0.000 C 
ATOM      5  C   UNL     1      24.365  26.656  25.067  0.00  0.00    +0.000 C 
ATOM      6  C   UNL     1      24.755  28.055  25.486  0.00  0.00    +0.000 C 
ATOM      7  C   UNL     1      24.203  28.364  26.856  0.00  0.00    +0.000 C 
ATOM      8  C   UNL     1      22.681  28.331  26.834  0.00  0.00    +0.000 C 
ATOM      9  C   UNL     1      22.295  26.906  26.444  0.00  0.00    +0.000 C 
ATOM     10  C   UNL     1      22.847  26.638  25.081  0.00  0.00    +0.000 C 
ATOM     11  C   UNL     1      22.847  25.907  27.474  0.00  0.00    +0.000 C 
ATOM     12  C   UNL     1      24.363  25.953  27.505  0.00  0.00    +0.000 C 
ATOM     13  C   UNL     1      24.750  27.389  27.871  0.00  0.00    +0.000 C 
ENDBRANCH   3   4
BRANCH   2  14
ATOM     14  C   UNL     1      27.906  23.413  25.428  0.00  0.00    +0.000 A 
ATOM     15  C   UNL     1      28.564  22.801  26.522  0.00  0.00    +0.000 A 
ATOM     16  C   UNL     1      29.815  22.240  26.373  0.00  0.00    +0.000 A 
ATOM     17  C   UNL     1      30.445  22.268  25.156  0.00  0.00    +0.000 A 
ATOM     18  C   UNL     1      29.821  22.865  24.070  0.00  0.00    +0.000 A 
ATOM     19  C   UNL     1      28.555  23.429  24.232  0.00  0.00    +0.000 A 
BRANCH  19  20
ATOM     20  N   UNL     1      27.969  24.057  23.105  0.00  0.00    +0.000 N 
ATOM     21  O   UNL     1      28.031  25.234  22.813  0.00  0.00    +0.000 OA
ATOM     22  O   UNL     1      27.262  23.242  22.216  0.00  0.00    +0.000 OA
ENDBRANCH  19  20
ENDBRANCH   2  14
TORSDOF 3
ENDMDL
