MODEL 1
REMARK VINA RESULT:      -7.9      0.000      0.000
REMARK  Name = 
REMARK  8 active torsions:
REMARK  status: ('A' for Active; 'I' for Inactive)
REMARK    1  A    between atoms: C_2  and  C_3
REMARK    2  A    between atoms: C_3  and  N_4
REMARK    3  A    between atoms: C_5  and  C_6
REMARK    4  A    between atoms: C_6  and  C_8
REMARK    5  A    between atoms: C_11  and  O_12
REMARK    6  A    between atoms: O_12  and  C_13
REMARK    7  A    between atoms: C_13  and  C_14
REMARK    8  A    between atoms: C_20  and  O_21
REMARK                            x       y       z     vdW  Elec       q    Type
REMARK                         _______ _______ _______ _____ _____    ______ ____
ROOT
ATOM      1  C   UNL     1      36.679   1.932  15.790  0.00  0.00    +0.000 A 
ATOM      2  C   UNL     1      36.554   2.956  16.652  0.00  0.00    +0.000 A 
ATOM      3  C   UNL     1      37.557   3.921  16.642  0.00  0.00    +0.000 A 
ATOM      4  C   UNL     1      38.641   3.855  15.795  0.00  0.00    +0.000 A 
ATOM      5  C   UNL     1      38.714   2.782  14.933  0.00  0.00    +0.000 A 
ATOM      6  C   UNL     1      37.716   1.806  14.932  0.00  0.00    +0.000 A 
ENDROOT
BRANCH   1   7
ATOM      7  C   UNL     1      35.561   0.821  15.752  0.00  0.00    +0.000 C 
ATOM      8  O   UNL     1      34.828   1.333  16.974  0.00  0.00    +0.000 OA
BRANCH   7  10
ATOM      9  N   UNL     1      36.708  -1.471  15.973  0.00  0.00    +0.000 N 
ATOM     10  C   UNL     1      36.342  -0.312  16.521  0.00  0.00    +0.000 A 
ATOM     11  N   UNL     1      36.753  -0.321  17.771  0.00  0.00    +0.000 NA
ATOM     12  C   UNL     1      37.393  -1.484  18.065  0.00  0.00    +0.000 A 
ATOM     13  C   UNL     1      37.982  -1.932  19.233  0.00  0.00    +0.000 A 
ATOM     14  C   UNL     1      38.565  -3.176  19.232  0.00  0.00    +0.000 A 
ATOM     15  C   UNL     1      38.543  -3.922  18.086  0.00  0.00    +0.000 A 
ATOM     16  C   UNL     1      37.944  -3.459  16.910  0.00  0.00    +0.000 A 
ATOM     17  C   UNL     1      37.365  -2.224  16.908  0.00  0.00    +0.000 A 
BRANCH   9  18
ATOM     18  C   UNL     1      36.511  -1.979  14.632  0.00  0.00    +0.000 C 
BRANCH  18  20
ATOM     19  C   UNL     1      38.269  -2.965  13.250  0.00  0.00    +0.000 C 
ATOM     20  C   UNL     1      37.663  -1.675  13.713  0.00  0.00    +0.000 C 
ENDBRANCH  18  20
ENDBRANCH   9  18
ENDBRANCH   7  10
ENDBRANCH   1   7
BRANCH   5  21
ATOM     21  O   UNL     1      39.797   2.708  14.080  0.00  0.00    +0.000 OA
ATOM     22  C   UNL     1      40.397   1.476  13.715  0.00  0.00    +0.000 C 
ENDBRANCH   5  21
BRANCH   4  23
ATOM     23  O   UNL     1      39.528   4.844  15.887  0.00  0.00    +0.000 OA
BRANCH  23  24
ATOM     24  C   UNL     1      39.610   6.122  16.233  0.00  0.00    +0.000 C 
BRANCH  24  25
ATOM     25  C   UNL     1      40.312   6.250  17.523  0.00  0.00    +0.000 A 
ATOM     26  C   UNL     1      41.659   6.475  17.502  0.00  0.00    +0.000 A 
ATOM     27  C   UNL     1      42.379   6.605  18.654  0.00  0.00    +0.000 A 
ATOM     28  C   UNL     1      41.730   6.507  19.871  0.00  0.00    +0.000 A 
ATOM     29  C   UNL     1      40.370   6.282  19.896  0.00  0.00    +0.000 A 
ATOM     30  C   UNL     1      39.649   6.151  18.710  0.00  0.00    +0.000 A 
ENDBRANCH  24  25
ENDBRANCH  23  24
ENDBRANCH   4  23
TORSDOF 8
ENDMDL
MODEL 2
REMARK VINA RESULT:      -7.3      1.769      2.379
REMARK  Name = 
REMARK  8 active torsions:
REMARK  status: ('A' for Active; 'I' for Inactive)
REMARK    1  A    between atoms: C_2  and  C_3
REMARK    2  A    between atoms: C_3  and  N_4
REMARK    3  A    between atoms: C_5  and  C_6
REMARK    4  A    between atoms: C_6  and  C_8
REMARK    5  A    between atoms: C_11  and  O_12
REMARK    6  A    between atoms: O_12  and  C_13
REMARK    7  A    between atoms: C_13  and  C_14
REMARK    8  A    between atoms: C_20  and  O_21
REMARK                            x       y       z     vdW  Elec       q    Type
REMARK                         _______ _______ _______ _____ _____    ______ ____
ROOT
ATOM      1  C   UNL     1      37.984   1.513  14.342  0.00  0.00    +0.000 A 
ATOM      2  C   UNL     1      39.208   1.959  14.672  0.00  0.00    +0.000 A 
ATOM      3  C   UNL     1      39.310   3.280  15.096  0.00  0.00    +0.000 A 
ATOM      4  C   UNL     1      38.220   4.118  15.182  0.00  0.00    +0.000 A 
ATOM      5  C   UNL     1      36.990   3.604  14.830  0.00  0.00    +0.000 A 
ATOM      6  C   UNL     1      36.873   2.280  14.403  0.00  0.00    +0.000 A 
ENDROOT
BRANCH   1   7
ATOM      7  C   UNL     1      37.814   0.018  13.871  0.00  0.00    +0.000 C 
ATOM      8  O   UNL     1      36.302   0.075  13.800  0.00  0.00    +0.000 OA
BRANCH   7  10
ATOM      9  N   UNL     1      38.605  -1.743  15.569  0.00  0.00    +0.000 N 
ATOM     10  C   UNL     1      37.863  -0.673  15.287  0.00  0.00    +0.000 A 
ATOM     11  N   UNL     1      37.219  -0.339  16.384  0.00  0.00    +0.000 NA
ATOM     12  C   UNL     1      37.526  -1.183  17.405  0.00  0.00    +0.000 A 
ATOM     13  C   UNL     1      37.098  -1.220  18.719  0.00  0.00    +0.000 A 
ATOM     14  C   UNL     1      37.590  -2.210  19.536  0.00  0.00    +0.000 A 
ATOM     15  C   UNL     1      38.480  -3.114  19.025  0.00  0.00    +0.000 A 
ATOM     16  C   UNL     1      38.906  -3.067  17.695  0.00  0.00    +0.000 A 
ATOM     17  C   UNL     1      38.419  -2.087  16.881  0.00  0.00    +0.000 A 
BRANCH   9  18
ATOM     18  C   UNL     1      39.501  -2.512  14.733  0.00  0.00    +0.000 C 
BRANCH  18  20
ATOM     19  C   UNL     1      41.329  -1.083  13.963  0.00  0.00    +0.000 C 
ATOM     20  C   UNL     1      40.948  -2.156  14.938  0.00  0.00    +0.000 C 
ENDBRANCH  18  20
ENDBRANCH   9  18
ENDBRANCH   7  10
ENDBRANCH   1   7
BRANCH   5  21
ATOM     21  O   UNL     1      35.892   4.436  14.913  0.00  0.00    +0.000 OA
ATOM     22  C   UNL     1      35.374   5.130  13.789  0.00  0.00    +0.000 C 
ENDBRANCH   5  21
BRANCH   4  23
ATOM     23  O   UNL     1      38.455   5.359  15.602  0.00  0.00    +0.000 OA
BRANCH  23  24
ATOM     24  C   UNL     1      38.167   6.176  16.607  0.00  0.00    +0.000 C 
BRANCH  24  25
ATOM     25  C   UNL     1      39.306   6.244  17.542  0.00  0.00    +0.000 A 
ATOM     26  C   UNL     1      40.563   6.341  17.018  0.00  0.00    +0.000 A 
ATOM     27  C   UNL     1      41.666   6.408  17.818  0.00  0.00    +0.000 A 
ATOM     28  C   UNL     1      41.508   6.378  19.191  0.00  0.00    +0.000 A 
ATOM     29  C   UNL     1      40.240   6.281  19.724  0.00  0.00    +0.000 A 
ATOM     30  C   UNL     1      39.123   6.213  18.893  0.00  0.00    +0.000 A 
ENDBRANCH  24  25
ENDBRANCH  23  24
ENDBRANCH   4  23
TORSDOF 8
ENDMDL
MODEL 3
REMARK VINA RESULT:      -7.1      4.334      6.551
REMARK  Name = 
REMARK  8 active torsions:
REMARK  status: ('A' for Active; 'I' for Inactive)
REMARK    1  A    between atoms: C_2  and  C_3
REMARK    2  A    between atoms: C_3  and  N_4
REMARK    3  A    between atoms: C_5  and  C_6
REMARK    4  A    between atoms: C_6  and  C_8
REMARK    5  A    between atoms: C_11  and  O_12
REMARK    6  A    between atoms: O_12  and  C_13
REMARK    7  A    between atoms: C_13  and  C_14
REMARK    8  A    between atoms: C_20  and  O_21
REMARK                            x       y       z     vdW  Elec       q    Type
REMARK                         _______ _______ _______ _____ _____    ______ ____
ROOT
ATOM      1  C   UNL     1      39.169  -2.616  14.456  0.00  0.00    +0.000 A 
ATOM      2  C   UNL     1      39.962  -1.990  15.345  0.00  0.00    +0.000 A 
ATOM      3  C   UNL     1      41.190  -1.528  14.884  0.00  0.00    +0.000 A 
ATOM      4  C   UNL     1      41.603  -1.689  13.580  0.00  0.00    +0.000 A 
ATOM      5  C   UNL     1      40.747  -2.338  12.715  0.00  0.00    +0.000 A 
ATOM      6  C   UNL     1      39.511  -2.808  13.163  0.00  0.00    +0.000 A 
ENDROOT
BRANCH   1   7
ATOM      7  C   UNL     1      37.760  -3.145  14.926  0.00  0.00    +0.000 C 
ATOM      8  O   UNL     1      37.225  -3.349  13.524  0.00  0.00    +0.000 OA
BRANCH   7  10
ATOM      9  N   UNL     1      36.543  -1.348  16.305  0.00  0.00    +0.000 N 
ATOM     10  C   UNL     1      37.056  -1.751  15.144  0.00  0.00    +0.000 A 
ATOM     11  N   UNL     1      36.860  -0.787  14.270  0.00  0.00    +0.000 NA
ATOM     12  C   UNL     1      36.213   0.263  14.842  0.00  0.00    +0.000 A 
ATOM     13  C   UNL     1      35.802   1.476  14.320  0.00  0.00    +0.000 A 
ATOM     14  C   UNL     1      35.159   2.359  15.155  0.00  0.00    +0.000 A 
ATOM     15  C   UNL     1      34.951   2.010  16.461  0.00  0.00    +0.000 A 
ATOM     16  C   UNL     1      35.372   0.782  16.978  0.00  0.00    +0.000 A 
ATOM     17  C   UNL     1      36.009  -0.097  16.152  0.00  0.00    +0.000 A 
BRANCH   9  18
ATOM     18  C   UNL     1      36.487  -2.014  17.589  0.00  0.00    +0.000 C 
BRANCH  18  20
ATOM     19  C   UNL     1      38.484  -2.965  18.631  0.00  0.00    +0.000 C 
ATOM     20  C   UNL     1      37.677  -1.713  18.459  0.00  0.00    +0.000 C 
ENDBRANCH  18  20
ENDBRANCH   9  18
ENDBRANCH   7  10
ENDBRANCH   1   7
BRANCH   5  21
ATOM     21  O   UNL     1      41.152  -2.506  11.406  0.00  0.00    +0.000 OA
ATOM     22  C   UNL     1      40.237  -2.749  10.350  0.00  0.00    +0.000 C 
ENDBRANCH   5  21
BRANCH   4  23
ATOM     23  O   UNL     1      42.802  -1.200  13.270  0.00  0.00    +0.000 OA
BRANCH  23  24
ATOM     24  C   UNL     1      44.077  -1.561  13.218  0.00  0.00    +0.000 C 
BRANCH  24  25
ATOM     25  C   UNL     1      44.699  -1.402  14.545  0.00  0.00    +0.000 A 
ATOM     26  C   UNL     1      45.300  -2.491  15.109  0.00  0.00    +0.000 A 
ATOM     27  C   UNL     1      45.897  -2.423  16.334  0.00  0.00    +0.000 A 
ATOM     28  C   UNL     1      45.894  -1.224  17.021  0.00  0.00    +0.000 A 
ATOM     29  C   UNL     1      45.289  -0.121  16.455  0.00  0.00    +0.000 A 
ATOM     30  C   UNL     1      44.683  -0.208  15.202  0.00  0.00    +0.000 A 
ENDBRANCH  24  25
ENDBRANCH  23  24
ENDBRANCH   4  23
TORSDOF 8
ENDMDL
MODEL 4
REMARK VINA RESULT:      -6.9      1.852      2.809
REMARK  Name = 
REMARK  8 active torsions:
REMARK  status: ('A' for Active; 'I' for Inactive)
REMARK    1  A    between atoms: C_2  and  C_3
REMARK    2  A    between atoms: C_3  and  N_4
REMARK    3  A    between atoms: C_5  and  C_6
REMARK    4  A    between atoms: C_6  and  C_8
REMARK    5  A    between atoms: C_11  and  O_12
REMARK    6  A    between atoms: O_12  and  C_13
REMARK    7  A    between atoms: C_13  and  C_14
REMARK    8  A    between atoms: C_20  and  O_21
REMARK                            x       y       z     vdW  Elec       q    Type
REMARK                         _______ _______ _______ _____ _____    ______ ____
ROOT
ATOM      1  C   UNL     1      36.417   2.528  16.061  0.00  0.00    +0.000 A 
ATOM      2  C   UNL     1      37.063   3.000  17.141  0.00  0.00    +0.000 A 
ATOM      3  C   UNL     1      37.740   4.207  16.999  0.00  0.00    +0.000 A 
ATOM      4  C   UNL     1      37.764   4.909  15.815  0.00  0.00    +0.000 A 
ATOM      5  C   UNL     1      37.082   4.376  14.742  0.00  0.00    +0.000 A 
ATOM      6  C   UNL     1      36.399   3.165  14.870  0.00  0.00    +0.000 A 
ENDROOT
BRANCH   1   7
ATOM      7  C   UNL     1      35.621   1.172  16.176  0.00  0.00    +0.000 C 
ATOM      8  O   UNL     1      35.660   1.126  17.689  0.00  0.00    +0.000 OA
BRANCH   7  10
ATOM      9  N   UNL     1      36.902  -1.031  16.521  0.00  0.00    +0.000 N 
ATOM     10  C   UNL     1      36.831   0.182  15.973  0.00  0.00    +0.000 A 
ATOM     11  N   UNL     1      37.926   0.360  15.267  0.00  0.00    +0.000 NA
ATOM     12  C   UNL     1      38.736  -0.730  15.340  0.00  0.00    +0.000 A 
ATOM     13  C   UNL     1      39.968  -0.992  14.770  0.00  0.00    +0.000 A 
ATOM     14  C   UNL     1      40.559  -2.206  15.027  0.00  0.00    +0.000 A 
ATOM     15  C   UNL     1      39.911  -3.106  15.829  0.00  0.00    +0.000 A 
ATOM     16  C   UNL     1      38.665  -2.830  16.399  0.00  0.00    +0.000 A 
ATOM     17  C   UNL     1      38.077  -1.626  16.147  0.00  0.00    +0.000 A 
BRANCH   9  18
ATOM     18  C   UNL     1      35.973  -1.728  17.385  0.00  0.00    +0.000 C 
BRANCH  18  20
ATOM     19  C   UNL     1      33.530  -1.784  17.335  0.00  0.00    +0.000 C 
ATOM     20  C   UNL     1      34.774  -2.261  16.648  0.00  0.00    +0.000 C 
ENDBRANCH  18  20
ENDBRANCH   9  18
ENDBRANCH   7  10
ENDBRANCH   1   7
BRANCH   5  21
ATOM     21  O   UNL     1      37.101   5.073  13.550  0.00  0.00    +0.000 OA
ATOM     22  C   UNL     1      35.949   5.711  13.022  0.00  0.00    +0.000 C 
ENDBRANCH   5  21
BRANCH   4  23
ATOM     23  O   UNL     1      38.450   6.051  15.813  0.00  0.00    +0.000 OA
BRANCH  23  24
ATOM     24  C   UNL     1      38.626   7.144  16.544  0.00  0.00    +0.000 C 
BRANCH  24  25
ATOM     25  C   UNL     1      39.617   6.885  17.605  0.00  0.00    +0.000 A 
ATOM     26  C   UNL     1      39.194   6.924  18.903  0.00  0.00    +0.000 A 
ATOM     27  C   UNL     1      40.051   6.695  19.940  0.00  0.00    +0.000 A 
ATOM     28  C   UNL     1      41.378   6.418  19.670  0.00  0.00    +0.000 A 
ATOM     29  C   UNL     1      41.809   6.376  18.362  0.00  0.00    +0.000 A 
ATOM     30  C   UNL     1      40.920   6.612  17.313  0.00  0.00    +0.000 A 
ENDBRANCH  24  25
ENDBRANCH  23  24
ENDBRANCH   4  23
TORSDOF 8
ENDMDL
MODEL 5
REMARK VINA RESULT:      -6.8      3.071      4.514
REMARK  Name = 
REMARK  8 active torsions:
REMARK  status: ('A' for Active; 'I' for Inactive)
REMARK    1  A    between atoms: C_2  and  C_3
REMARK    2  A    between atoms: C_3  and  N_4
REMARK    3  A    between atoms: C_5  and  C_6
REMARK    4  A    between atoms: C_6  and  C_8
REMARK    5  A    between atoms: C_11  and  O_12
REMARK    6  A    between atoms: O_12  and  C_13
REMARK    7  A    between atoms: C_13  and  C_14
REMARK    8  A    between atoms: C_20  and  O_21
REMARK                            x       y       z     vdW  Elec       q    Type
REMARK                         _______ _______ _______ _____ _____    ______ ____
ROOT
ATOM      1  C   UNL     1      35.942   1.529  16.125  0.00  0.00    +0.000 A 
ATOM      2  C   UNL     1      35.240   1.677  14.988  0.00  0.00    +0.000 A 
ATOM      3  C   UNL     1      35.350   2.897  14.328  0.00  0.00    +0.000 A 
ATOM      4  C   UNL     1      36.137   3.925  14.796  0.00  0.00    +0.000 A 
ATOM      5  C   UNL     1      36.835   3.714  15.967  0.00  0.00    +0.000 A 
ATOM      6  C   UNL     1      36.734   2.495  16.640  0.00  0.00    +0.000 A 
ENDROOT
BRANCH   1   7
ATOM      7  C   UNL     1      35.863   0.159  16.901  0.00  0.00    +0.000 C 
ATOM      8  O   UNL     1      36.493   0.693  18.170  0.00  0.00    +0.000 OA
BRANCH   7  10
ATOM      9  N   UNL     1      37.554  -1.752  16.582  0.00  0.00    +0.000 N 
ATOM     10  C   UNL     1      37.188  -0.492  16.349  0.00  0.00    +0.000 A 
ATOM     11  N   UNL     1      38.120   0.057  15.599  0.00  0.00    +0.000 NA
ATOM     12  C   UNL     1      39.114  -0.831  15.329  0.00  0.00    +0.000 A 
ATOM     13  C   UNL     1      40.277  -0.703  14.593  0.00  0.00    +0.000 A 
ATOM     14  C   UNL     1      41.106  -1.795  14.493  0.00  0.00    +0.000 A 
ATOM     15  C   UNL     1      40.754  -2.959  15.117  0.00  0.00    +0.000 A 
ATOM     16  C   UNL     1      39.574  -3.077  15.858  0.00  0.00    +0.000 A 
ATOM     17  C   UNL     1      38.750  -1.996  15.961  0.00  0.00    +0.000 A 
BRANCH   9  18
ATOM     18  C   UNL     1      36.900  -2.794  17.343  0.00  0.00    +0.000 C 
BRANCH  18  20
ATOM     19  C   UNL     1      36.450  -4.951  16.283  0.00  0.00    +0.000 C 
ATOM     20  C   UNL     1      35.904  -3.577  16.531  0.00  0.00    +0.000 C 
ENDBRANCH  18  20
ENDBRANCH   9  18
ENDBRANCH   7  10
ENDBRANCH   1   7
BRANCH   5  21
ATOM     21  O   UNL     1      37.627   4.739  16.443  0.00  0.00    +0.000 OA
ATOM     22  C   UNL     1      38.387   4.624  17.636  0.00  0.00    +0.000 C 
ENDBRANCH   5  21
BRANCH   4  23
ATOM     23  O   UNL     1      36.154   5.041  14.069  0.00  0.00    +0.000 OA
BRANCH  23  24
ATOM     24  C   UNL     1      35.340   5.830  13.380  0.00  0.00    +0.000 C 
BRANCH  24  25
ATOM     25  C   UNL     1      35.042   7.047  14.158  0.00  0.00    +0.000 A 
ATOM     26  C   UNL     1      36.091   7.767  14.652  0.00  0.00    +0.000 A 
ATOM     27  C   UNL     1      35.896   8.904  15.381  0.00  0.00    +0.000 A 
ATOM     28  C   UNL     1      34.606   9.336  15.625  0.00  0.00    +0.000 A 
ATOM     29  C   UNL     1      33.543   8.613  15.127  0.00  0.00    +0.000 A 
ATOM     30  C   UNL     1      33.760   7.453  14.384  0.00  0.00    +0.000 A 
ENDBRANCH  24  25
ENDBRANCH  23  24
ENDBRANCH   4  23
TORSDOF 8
ENDMDL
MODEL 6
REMARK VINA RESULT:      -6.6     25.380     28.383
REMARK  Name = 
REMARK  8 active torsions:
REMARK  status: ('A' for Active; 'I' for Inactive)
REMARK    1  A    between atoms: C_2  and  C_3
REMARK    2  A    between atoms: C_3  and  N_4
REMARK    3  A    between atoms: C_5  and  C_6
REMARK    4  A    between atoms: C_6  and  C_8
REMARK    5  A    between atoms: C_11  and  O_12
REMARK    6  A    between atoms: O_12  and  C_13
REMARK    7  A    between atoms: C_13  and  C_14
REMARK    8  A    between atoms: C_20  and  O_21
REMARK                            x       y       z     vdW  Elec       q    Type
REMARK                         _______ _______ _______ _____ _____    ______ ____
ROOT
ATOM      1  C   UNL     1      26.246  15.888  38.949  0.00  0.00    +0.000 A 
ATOM      2  C   UNL     1      25.281  15.021  39.305  0.00  0.00    +0.000 A 
ATOM      3  C   UNL     1      25.683  13.851  39.941  0.00  0.00    +0.000 A 
ATOM      4  C   UNL     1      27.004  13.567  40.208  0.00  0.00    +0.000 A 
ATOM      5  C   UNL     1      27.947  14.495  39.821  0.00  0.00    +0.000 A 
ATOM      6  C   UNL     1      27.559  15.673  39.180  0.00  0.00    +0.000 A 
ENDROOT
BRANCH   1   7
ATOM      7  C   UNL     1      25.840  17.236  38.239  0.00  0.00    +0.000 C 
ATOM      8  O   UNL     1      24.370  17.126  38.582  0.00  0.00    +0.000 OA
BRANCH   7  10
ATOM      9  N   UNL     1      25.203  17.392  35.753  0.00  0.00    +0.000 N 
ATOM     10  C   UNL     1      25.685  16.681  36.772  0.00  0.00    +0.000 A 
ATOM     11  N   UNL     1      25.985  15.486  36.312  0.00  0.00    +0.000 NA
ATOM     12  C   UNL     1      25.704  15.391  34.984  0.00  0.00    +0.000 A 
ATOM     13  C   UNL     1      25.852  14.344  34.093  0.00  0.00    +0.000 A 
ATOM     14  C   UNL     1      25.476  14.545  32.786  0.00  0.00    +0.000 A 
ATOM     15  C   UNL     1      24.975  15.762  32.417  0.00  0.00    +0.000 A 
ATOM     16  C   UNL     1      24.830  16.813  33.326  0.00  0.00    +0.000 A 
ATOM     17  C   UNL     1      25.202  16.618  34.624  0.00  0.00    +0.000 A 
BRANCH   9  18
ATOM     18  C   UNL     1      24.725  18.757  35.703  0.00  0.00    +0.000 C 
BRANCH  18  20
ATOM     19  C   UNL     1      25.613  20.401  34.126  0.00  0.00    +0.000 C 
ATOM     20  C   UNL     1      25.825  19.756  35.462  0.00  0.00    +0.000 C 
ENDBRANCH  18  20
ENDBRANCH   9  18
ENDBRANCH   7  10
ENDBRANCH   1   7
BRANCH   5  21
ATOM     21  O   UNL     1      29.274  14.218  40.084  0.00  0.00    +0.000 OA
ATOM     22  C   UNL     1      30.259  14.168  39.064  0.00  0.00    +0.000 C 
ENDBRANCH   5  21
BRANCH   4  23
ATOM     23  O   UNL     1      27.252  12.412  40.823  0.00  0.00    +0.000 OA
BRANCH  23  24
ATOM     24  C   UNL     1      26.896  11.135  40.791  0.00  0.00    +0.000 C 
BRANCH  24  25
ATOM     25  C   UNL     1      28.085  10.277  40.958  0.00  0.00    +0.000 A 
ATOM     26  C   UNL     1      27.955   9.135  41.696  0.00  0.00    +0.000 A 
ATOM     27  C   UNL     1      29.009   8.292  41.895  0.00  0.00    +0.000 A 
ATOM     28  C   UNL     1      30.236   8.600  41.338  0.00  0.00    +0.000 A 
ATOM     29  C   UNL     1      30.371   9.751  40.592  0.00  0.00    +0.000 A 
ATOM     30  C   UNL     1      29.284  10.603  40.397  0.00  0.00    +0.000 A 
ENDBRANCH  24  25
ENDBRANCH  23  24
ENDBRANCH   4  23
TORSDOF 8
ENDMDL
MODEL 7
REMARK VINA RESULT:      -6.6      4.580     10.303
REMARK  Name = 
REMARK  8 active torsions:
REMARK  status: ('A' for Active; 'I' for Inactive)
REMARK    1  A    between atoms: C_2  and  C_3
REMARK    2  A    between atoms: C_3  and  N_4
REMARK    3  A    between atoms: C_5  and  C_6
REMARK    4  A    between atoms: C_6  and  C_8
REMARK    5  A    between atoms: C_11  and  O_12
REMARK    6  A    between atoms: O_12  and  C_13
REMARK    7  A    between atoms: C_13  and  C_14
REMARK    8  A    between atoms: C_20  and  O_21
REMARK                            x       y       z     vdW  Elec       q    Type
REMARK                         _______ _______ _______ _____ _____    ______ ____
ROOT
ATOM      1  C   UNL     1      37.599  -4.019  16.220  0.00  0.00    +0.000 A 
ATOM      2  C   UNL     1      37.683  -5.117  16.992  0.00  0.00    +0.000 A 
ATOM      3  C   UNL     1      36.671  -6.063  16.862  0.00  0.00    +0.000 A 
ATOM      4  C   UNL     1      35.617  -5.908  15.989  0.00  0.00    +0.000 A 
ATOM      5  C   UNL     1      35.585  -4.762  15.224  0.00  0.00    +0.000 A 
ATOM      6  C   UNL     1      36.593  -3.803  15.343  0.00  0.00    +0.000 A 
ENDROOT
BRANCH   1   7
ATOM      7  C   UNL     1      38.729  -2.925  16.318  0.00  0.00    +0.000 C 
ATOM      8  O   UNL     1      38.817  -2.964  17.829  0.00  0.00    +0.000 OA
BRANCH   7  10
ATOM      9  N   UNL     1      37.878  -0.719  15.308  0.00  0.00    +0.000 N 
ATOM     10  C   UNL     1      37.811  -1.645  16.264  0.00  0.00    +0.000 A 
ATOM     11  N   UNL     1      36.865  -1.278  17.102  0.00  0.00    +0.000 NA
ATOM     12  C   UNL     1      36.296  -0.106  16.712  0.00  0.00    +0.000 A 
ATOM     13  C   UNL     1      35.281   0.647  17.273  0.00  0.00    +0.000 A 
ATOM     14  C   UNL     1      34.911   1.811  16.643  0.00  0.00    +0.000 A 
ATOM     15  C   UNL     1      35.552   2.179  15.493  0.00  0.00    +0.000 A 
ATOM     16  C   UNL     1      36.576   1.409  14.934  0.00  0.00    +0.000 A 
ATOM     17  C   UNL     1      36.947   0.254  15.557  0.00  0.00    +0.000 A 
BRANCH   9  18
ATOM     18  C   UNL     1      38.737  -0.627  14.147  0.00  0.00    +0.000 C 
BRANCH  18  20
ATOM     19  C   UNL     1      41.164  -0.885  14.278  0.00  0.00    +0.000 C 
ATOM     20  C   UNL     1      40.032   0.086  14.429  0.00  0.00    +0.000 C 
ENDBRANCH  18  20
ENDBRANCH   9  18
ENDBRANCH   7  10
ENDBRANCH   1   7
BRANCH   5  21
ATOM     21  O   UNL     1      34.532  -4.598  14.346  0.00  0.00    +0.000 OA
ATOM     22  C   UNL     1      33.199  -4.393  14.785  0.00  0.00    +0.000 C 
ENDBRANCH   5  21
BRANCH   4  23
ATOM     23  O   UNL     1      34.716  -6.889  15.964  0.00  0.00    +0.000 OA
BRANCH  23  24
ATOM     24  C   UNL     1      34.639  -8.211  15.896  0.00  0.00    +0.000 C 
BRANCH  24  25
ATOM     25  C   UNL     1      33.843  -8.609  14.720  0.00  0.00    +0.000 A 
ATOM     26  C   UNL     1      34.085  -7.976  13.535  0.00  0.00    +0.000 A 
ATOM     27  C   UNL     1      33.389  -8.288  12.404  0.00  0.00    +0.000 A 
ATOM     28  C   UNL     1      32.416  -9.269  12.458  0.00  0.00    +0.000 A 
ATOM     29  C   UNL     1      32.169  -9.911  13.653  0.00  0.00    +0.000 A 
ATOM     30  C   UNL     1      32.889  -9.580  14.800  0.00  0.00    +0.000 A 
ENDBRANCH  24  25
ENDBRANCH  23  24
ENDBRANCH   4  23
TORSDOF 8
ENDMDL
MODEL 8
REMARK VINA RESULT:      -6.5      2.636      7.729
REMARK  Name = 
REMARK  8 active torsions:
REMARK  status: ('A' for Active; 'I' for Inactive)
REMARK    1  A    between atoms: C_2  and  C_3
REMARK    2  A    between atoms: C_3  and  N_4
REMARK    3  A    between atoms: C_5  and  C_6
REMARK    4  A    between atoms: C_6  and  C_8
REMARK    5  A    between atoms: C_11  and  O_12
REMARK    6  A    between atoms: O_12  and  C_13
REMARK    7  A    between atoms: C_13  and  C_14
REMARK    8  A    between atoms: C_20  and  O_21
REMARK                            x       y       z     vdW  Elec       q    Type
REMARK                         _______ _______ _______ _____ _____    ______ ____
ROOT
ATOM      1  C   UNL     1      38.391   3.667  14.299  0.00  0.00    +0.000 A 
ATOM      2  C   UNL     1      39.193   2.592  14.388  0.00  0.00    +0.000 A 
ATOM      3  C   UNL     1      38.587   1.368  14.655  0.00  0.00    +0.000 A 
ATOM      4  C   UNL     1      37.227   1.235  14.826  0.00  0.00    +0.000 A 
ATOM      5  C   UNL     1      36.456   2.374  14.724  0.00  0.00    +0.000 A 
ATOM      6  C   UNL     1      37.050   3.608  14.456  0.00  0.00    +0.000 A 
ENDROOT
BRANCH   1   7
ATOM      7  C   UNL     1      39.027   5.074  13.982  0.00  0.00    +0.000 C 
ATOM      8  O   UNL     1      40.460   4.588  14.059  0.00  0.00    +0.000 OA
BRANCH   7  10
ATOM      9  N   UNL     1      38.370   6.791  15.780  0.00  0.00    +0.000 N 
ATOM     10  C   UNL     1      39.002   5.668  15.442  0.00  0.00    +0.000 A 
ATOM     11  N   UNL     1      39.567   5.192  16.531  0.00  0.00    +0.000 NA
ATOM     12  C   UNL     1      39.317   5.994  17.600  0.00  0.00    +0.000 A 
ATOM     13  C   UNL     1      39.699   5.894  18.925  0.00  0.00    +0.000 A 
ATOM     14  C   UNL     1      39.287   6.874  19.796  0.00  0.00    +0.000 A 
ATOM     15  C   UNL     1      38.519   7.904  19.326  0.00  0.00    +0.000 A 
ATOM     16  C   UNL     1      38.138   7.994  17.985  0.00  0.00    +0.000 A 
ATOM     17  C   UNL     1      38.545   7.023  17.117  0.00  0.00    +0.000 A 
BRANCH   9  18
ATOM     18  C   UNL     1      37.592   7.710  14.975  0.00  0.00    +0.000 C 
BRANCH  18  20
ATOM     19  C   UNL     1      35.950   7.188  13.241  0.00  0.00    +0.000 C 
ATOM     20  C   UNL     1      36.190   7.226  14.721  0.00  0.00    +0.000 C 
ENDBRANCH  18  20
ENDBRANCH   9  18
ENDBRANCH   7  10
ENDBRANCH   1   7
BRANCH   5  21
ATOM     21  O   UNL     1      35.091   2.250  14.894  0.00  0.00    +0.000 OA
ATOM     22  C   UNL     1      34.273   3.333  15.308  0.00  0.00    +0.000 C 
ENDBRANCH   5  21
BRANCH   4  23
ATOM     23  O   UNL     1      36.776   0.007  15.077  0.00  0.00    +0.000 OA
BRANCH  23  24
ATOM     24  C   UNL     1      37.217  -1.211  15.360  0.00  0.00    +0.000 C 
BRANCH  24  25
ATOM     25  C   UNL     1      37.255  -1.406  16.821  0.00  0.00    +0.000 A 
ATOM     26  C   UNL     1      38.279  -2.142  17.345  0.00  0.00    +0.000 A 
ATOM     27  C   UNL     1      38.383  -2.366  18.687  0.00  0.00    +0.000 A 
ATOM     28  C   UNL     1      37.430  -1.835  19.536  0.00  0.00    +0.000 A 
ATOM     29  C   UNL     1      36.396  -1.090  19.012  0.00  0.00    +0.000 A 
ATOM     30  C   UNL     1      36.304  -0.870  17.638  0.00  0.00    +0.000 A 
ENDBRANCH  24  25
ENDBRANCH  23  24
ENDBRANCH   4  23
TORSDOF 8
ENDMDL
MODEL 9
REMARK VINA RESULT:      -6.4      3.211      8.710
REMARK  Name = 
REMARK  8 active torsions:
REMARK  status: ('A' for Active; 'I' for Inactive)
REMARK    1  A    between atoms: C_2  and  C_3
REMARK    2  A    between atoms: C_3  and  N_4
REMARK    3  A    between atoms: C_5  and  C_6
REMARK    4  A    between atoms: C_6  and  C_8
REMARK    5  A    between atoms: C_11  and  O_12
REMARK    6  A    between atoms: O_12  and  C_13
REMARK    7  A    between atoms: C_13  and  C_14
REMARK    8  A    between atoms: C_20  and  O_21
REMARK                            x       y       z     vdW  Elec       q    Type
REMARK                         _______ _______ _______ _____ _____    ______ ____
ROOT
ATOM      1  C   UNL     1      38.542   5.262  14.978  0.00  0.00    +0.000 A 
ATOM      2  C   UNL     1      39.458   4.311  14.724  0.00  0.00    +0.000 A 
ATOM      3  C   UNL     1      39.060   2.987  14.887  0.00  0.00    +0.000 A 
ATOM      4  C   UNL     1      37.790   2.639  15.290  0.00  0.00    +0.000 A 
ATOM      5  C   UNL     1      36.894   3.658  15.534  0.00  0.00    +0.000 A 
ATOM      6  C   UNL     1      37.280   4.991  15.375  0.00  0.00    +0.000 A 
ENDROOT
BRANCH   1   7
ATOM      7  C   UNL     1      38.939   6.777  14.792  0.00  0.00    +0.000 C 
ATOM      8  O   UNL     1      40.432   6.528  14.857  0.00  0.00    +0.000 OA
BRANCH   7  10
ATOM      9  N   UNL     1      38.109   8.294  16.695  0.00  0.00    +0.000 N 
ATOM     10  C   UNL     1      38.807   7.231  16.296  0.00  0.00    +0.000 A 
ATOM     11  N   UNL     1      39.329   6.677  17.368  0.00  0.00    +0.000 NA
ATOM     12  C   UNL     1      38.985   7.366  18.489  0.00  0.00    +0.000 A 
ATOM     13  C   UNL     1      39.296   7.158  19.820  0.00  0.00    +0.000 A 
ATOM     14  C   UNL     1      38.795   8.037  20.750  0.00  0.00    +0.000 A 
ATOM     15  C   UNL     1      38.011   9.077  20.330  0.00  0.00    +0.000 A 
ATOM     16  C   UNL     1      37.703   9.277  18.982  0.00  0.00    +0.000 A 
ATOM     17  C   UNL     1      38.199   8.407  18.056  0.00  0.00    +0.000 A 
BRANCH   9  18
ATOM     18  C   UNL     1      37.340   9.254  15.932  0.00  0.00    +0.000 C 
BRANCH  18  20
ATOM     19  C   UNL     1      34.972   9.672  16.373  0.00  0.00    +0.000 C 
ATOM     20  C   UNL     1      35.939   8.787  15.644  0.00  0.00    +0.000 C 
ENDBRANCH  18  20
ENDBRANCH   9  18
ENDBRANCH   7  10
ENDBRANCH   1   7
BRANCH   5  21
ATOM     21  O   UNL     1      35.619   3.318  15.938  0.00  0.00    +0.000 OA
ATOM     22  C   UNL     1      34.497   3.400  15.072  0.00  0.00    +0.000 C 
ENDBRANCH   5  21
BRANCH   4  23
ATOM     23  O   UNL     1      37.539   1.336  15.407  0.00  0.00    +0.000 OA
BRANCH  23  24
ATOM     24  C   UNL     1      37.087   0.309  14.699  0.00  0.00    +0.000 C 
BRANCH  24  25
ATOM     25  C   UNL     1      36.178  -0.509  15.523  0.00  0.00    +0.000 A 
ATOM     26  C   UNL     1      36.154  -1.857  15.310  0.00  0.00    +0.000 A 
ATOM     27  C   UNL     1      35.340  -2.680  16.032  0.00  0.00    +0.000 A 
ATOM     28  C   UNL     1      34.520  -2.136  17.003  0.00  0.00    +0.000 A 
ATOM     29  C   UNL     1      34.542  -0.775  17.223  0.00  0.00    +0.000 A 
ATOM     30  C   UNL     1      35.380   0.052  16.476  0.00  0.00    +0.000 A 
ENDBRANCH  24  25
ENDBRANCH  23  24
ENDBRANCH   4  23
TORSDOF 8
ENDMDL
MODEL 10
REMARK VINA RESULT:      -6.2     25.418     28.313
REMARK  Name = 
REMARK  8 active torsions:
REMARK  status: ('A' for Active; 'I' for Inactive)
REMARK    1  A    between atoms: C_2  and  C_3
REMARK    2  A    between atoms: C_3  and  N_4
REMARK    3  A    between atoms: C_5  and  C_6
REMARK    4  A    between atoms: C_6  and  C_8
REMARK    5  A    between atoms: C_11  and  O_12
REMARK    6  A    between atoms: O_12  and  C_13
REMARK    7  A    between atoms: C_13  and  C_14
REMARK    8  A    between atoms: C_20  and  O_21
REMARK                            x       y       z     vdW  Elec       q    Type
REMARK                         _______ _______ _______ _____ _____    ______ ____
ROOT
ATOM      1  C   UNL     1      27.805  14.738  40.737  0.00  0.00    +0.000 A 
ATOM      2  C   UNL     1      26.487  14.531  40.571  0.00  0.00    +0.000 A 
ATOM      3  C   UNL     1      25.955  14.807  39.315  0.00  0.00    +0.000 A 
ATOM      4  C   UNL     1      26.721  15.273  38.270  0.00  0.00    +0.000 A 
ATOM      5  C   UNL     1      28.067  15.465  38.501  0.00  0.00    +0.000 A 
ATOM      6  C   UNL     1      28.615  15.193  39.756  0.00  0.00    +0.000 A 
ENDROOT
BRANCH   1   7
ATOM      7  C   UNL     1      28.459  14.425  42.137  0.00  0.00    +0.000 C 
ATOM      8  O   UNL     1      29.843  14.896  41.742  0.00  0.00    +0.000 OA
BRANCH   7  10
ATOM      9  N   UNL     1      28.061  11.906  42.465  0.00  0.00    +0.000 N 
ATOM     10  C   UNL     1      28.760  12.895  41.910  0.00  0.00    +0.000 A 
ATOM     11  N   UNL     1      29.702  12.346  41.173  0.00  0.00    +0.000 NA
ATOM     12  C   UNL     1      29.638  10.989  41.232  0.00  0.00    +0.000 A 
ATOM     13  C   UNL     1      30.409  10.011  40.631  0.00  0.00    +0.000 A 
ATOM     14  C   UNL     1      30.102   8.695  40.881  0.00  0.00    +0.000 A 
ATOM     15  C   UNL     1      29.052   8.401  41.707  0.00  0.00    +0.000 A 
ATOM     16  C   UNL     1      28.279   9.398  42.309  0.00  0.00    +0.000 A 
ATOM     17  C   UNL     1      28.581  10.705  42.064  0.00  0.00    +0.000 A 
BRANCH   9  18
ATOM     18  C   UNL     1      26.924  11.947  43.359  0.00  0.00    +0.000 C 
BRANCH  18  20
ATOM     19  C   UNL     1      24.527  12.421  43.454  0.00  0.00    +0.000 C 
ATOM     20  C   UNL     1      25.610  11.770  42.647  0.00  0.00    +0.000 C 
ENDBRANCH  18  20
ENDBRANCH   9  18
ENDBRANCH   7  10
ENDBRANCH   1   7
BRANCH   5  21
ATOM     21  O   UNL     1      28.843  15.932  37.459  0.00  0.00    +0.000 OA
ATOM     22  C   UNL     1      29.977  15.227  36.978  0.00  0.00    +0.000 C 
ENDBRANCH   5  21
BRANCH   4  23
ATOM     23  O   UNL     1      26.087  15.497  37.120  0.00  0.00    +0.000 OA
BRANCH  23  24
ATOM     24  C   UNL     1      25.702  16.496  36.338  0.00  0.00    +0.000 C 
BRANCH  24  25
ATOM     25  C   UNL     1      25.521  16.012  34.957  0.00  0.00    +0.000 A 
ATOM     26  C   UNL     1      25.040  16.889  34.026  0.00  0.00    +0.000 A 
ATOM     27  C   UNL     1      24.846  16.516  32.728  0.00  0.00    +0.000 A 
ATOM     28  C   UNL     1      25.142  15.221  32.346  0.00  0.00    +0.000 A 
ATOM     29  C   UNL     1      25.628  14.333  33.282  0.00  0.00    +0.000 A 
ATOM     30  C   UNL     1      25.821  14.730  34.605  0.00  0.00    +0.000 A 
ENDBRANCH  24  25
ENDBRANCH  23  24
ENDBRANCH   4  23
TORSDOF 8
ENDMDL
