MODEL 1
REMARK VINA RESULT:      -6.2      0.000      0.000
REMARK  Name = 
REMARK  4 active torsions:
REMARK  status: ('A' for Active; 'I' for Inactive)
REMARK    1  A    between atoms: C_3  and  C_4
REMARK    2  A    between atoms: C_4  and  O_6
REMARK    3  A    between atoms: O_6  and  C_7
REMARK    4  A    between atoms: C_11  and  C_12
REMARK                            x       y       z     vdW  Elec       q    Type
REMARK                         _______ _______ _______ _____ _____    ______ ____
ROOT
ATOM      1  C   UNL     1      29.339  25.756  23.128  0.00  0.00    +0.000 C 
ATOM      2  C   UNL     1      28.187  24.804  23.248  0.00  0.00    +0.000 C 
ATOM      3  C   UNL     1      27.887  24.319  24.390  0.00  0.00    +0.000 C 
ATOM      4  C   UNL     1      26.735  23.331  24.670  0.00  0.00    +0.000 C 
ATOM      5  N   UNL     1      26.081  23.081  23.367  0.00  0.00    +0.000 NA
ATOM      6  C   UNL     1      26.408  23.601  22.174  0.00  0.00    +0.000 C 
ATOM      7  O   UNL     1      25.719  23.272  21.112  0.00  0.00    +0.000 OA
ATOM      8  N   UNL     1      27.487  24.497  22.039  0.00  0.00    +0.000 NA
ENDROOT
BRANCH   4   9
ATOM      9  C   UNL     1      25.742  24.353  25.394  0.00  0.00    +0.000 A 
ATOM     10  C   UNL     1      25.624  24.124  26.748  0.00  0.00    +0.000 A 
ATOM     11  C   UNL     1      24.773  24.965  27.492  0.00  0.00    +0.000 A 
ATOM     12  C   UNL     1      24.105  25.968  26.850  0.00  0.00    +0.000 A 
ATOM     13  O   UNL     1      23.255  26.814  27.571  0.00  0.00    +0.000 OA
ATOM     14  C   UNL     1      24.252  26.156  25.511  0.00  0.00    +0.000 A 
ATOM     15  C   UNL     1      25.086  25.323  24.815  0.00  0.00    +0.000 A 
ENDBRANCH   4   9
BRANCH   3  16
ATOM     16  C   UNL     1      28.646  24.677  25.565  0.00  0.00    +0.000 C 
ATOM     17  O   UNL     1      28.785  25.846  26.017  0.00  0.00    +0.000 OA
BRANCH  16  18
ATOM     18  O   UNL     1      29.306  23.707  26.310  0.00  0.00    +0.000 OA
BRANCH  18  19
ATOM     19  C   UNL     1      30.593  23.262  26.024  0.00  0.00    +0.000 C 
ATOM     20  C   UNL     1      30.601  22.401  24.793  0.00  0.00    +0.000 C 
ATOM     21  C   UNL     1      31.599  24.375  25.873  0.00  0.00    +0.000 C 
ATOM     22  C   UNL     1      31.050  22.396  27.197  0.00  0.00    +0.000 C 
ENDBRANCH  18  19
ENDBRANCH  16  18
ENDBRANCH   3  16
TORSDOF 4
ENDMDL
MODEL 2
REMARK VINA RESULT:      -5.8     20.154     21.719
REMARK  Name = 
REMARK  4 active torsions:
REMARK  status: ('A' for Active; 'I' for Inactive)
REMARK    1  A    between atoms: C_3  and  C_4
REMARK    2  A    between atoms: C_4  and  O_6
REMARK    3  A    between atoms: O_6  and  C_7
REMARK    4  A    between atoms: C_11  and  C_12
REMARK                            x       y       z     vdW  Elec       q    Type
REMARK                         _______ _______ _______ _____ _____    ______ ____
ROOT
ATOM      1  C   UNL     1      19.738  13.003  38.375  0.00  0.00    +0.000 C 
ATOM      2  C   UNL     1      18.937  11.826  37.904  0.00  0.00    +0.000 C 
ATOM      3  C   UNL     1      19.275  10.649  38.268  0.00  0.00    +0.000 C 
ATOM      4  C   UNL     1      18.553   9.345  37.867  0.00  0.00    +0.000 C 
ATOM      5  N   UNL     1      17.426   9.749  36.998  0.00  0.00    +0.000 NA
ATOM      6  C   UNL     1      17.084  10.992  36.626  0.00  0.00    +0.000 C 
ATOM      7  O   UNL     1      16.048  11.174  35.848  0.00  0.00    +0.000 OA
ATOM      8  N   UNL     1      17.821  12.113  37.057  0.00  0.00    +0.000 NA
ENDROOT
BRANCH   4   9
ATOM      9  C   UNL     1      17.851   9.043  39.270  0.00  0.00    +0.000 A 
ATOM     10  C   UNL     1      18.327   7.901  39.878  0.00  0.00    +0.000 A 
ATOM     11  C   UNL     1      17.780   7.534  41.124  0.00  0.00    +0.000 A 
ATOM     12  C   UNL     1      16.808   8.318  41.677  0.00  0.00    +0.000 A 
ATOM     13  O   UNL     1      16.251   7.970  42.914  0.00  0.00    +0.000 OA
ATOM     14  C   UNL     1      16.368   9.436  41.041  0.00  0.00    +0.000 A 
ATOM     15  C   UNL     1      16.919   9.766  39.832  0.00  0.00    +0.000 A 
ENDBRANCH   4   9
BRANCH   3  16
ATOM     16  C   UNL     1      20.417  10.442  39.126  0.00  0.00    +0.000 C 
ATOM     17  O   UNL     1      20.583  10.964  40.262  0.00  0.00    +0.000 OA
BRANCH  16  18
ATOM     18  O   UNL     1      21.462   9.613  38.734  0.00  0.00    +0.000 OA
BRANCH  18  19
ATOM     19  C   UNL     1      22.449   9.996  37.830  0.00  0.00    +0.000 C 
ATOM     20  C   UNL     1      21.979   9.817  36.415  0.00  0.00    +0.000 C 
ATOM     21  C   UNL     1      22.937  11.409  38.030  0.00  0.00    +0.000 C 
ATOM     22  C   UNL     1      23.646   9.071  38.040  0.00  0.00    +0.000 C 
ENDBRANCH  18  19
ENDBRANCH  16  18
ENDBRANCH   3  16
TORSDOF 4
ENDMDL
MODEL 3
REMARK VINA RESULT:      -5.6      2.567      5.669
REMARK  Name = 
REMARK  4 active torsions:
REMARK  status: ('A' for Active; 'I' for Inactive)
REMARK    1  A    between atoms: C_3  and  C_4
REMARK    2  A    between atoms: C_4  and  O_6
REMARK    3  A    between atoms: O_6  and  C_7
REMARK    4  A    between atoms: C_11  and  C_12
REMARK                            x       y       z     vdW  Elec       q    Type
REMARK                         _______ _______ _______ _____ _____    ______ ____
ROOT
ATOM      1  C   UNL     1      25.452  24.979  26.125  0.00  0.00    +0.000 C 
ATOM      2  C   UNL     1      26.453  23.943  26.539  0.00  0.00    +0.000 C 
ATOM      3  C   UNL     1      27.187  23.387  25.654  0.00  0.00    +0.000 C 
ATOM      4  C   UNL     1      28.258  22.309  25.925  0.00  0.00    +0.000 C 
ATOM      5  N   UNL     1      28.243  22.072  27.385  0.00  0.00    +0.000 NA
ATOM      6  C   UNL     1      27.465  22.666  28.303  0.00  0.00    +0.000 C 
ATOM      7  O   UNL     1      27.583  22.336  29.563  0.00  0.00    +0.000 OA
ATOM      8  N   UNL     1      26.517  23.642  27.936  0.00  0.00    +0.000 NA
ENDROOT
BRANCH   4   9
ATOM      9  C   UNL     1      29.549  23.225  25.711  0.00  0.00    +0.000 A 
ATOM     10  C   UNL     1      30.463  22.674  24.838  0.00  0.00    +0.000 A 
ATOM     11  C   UNL     1      31.645  23.394  24.571  0.00  0.00    +0.000 A 
ATOM     12  C   UNL     1      31.838  24.601  25.182  0.00  0.00    +0.000 A 
ATOM     13  O   UNL     1      33.005  25.332  24.930  0.00  0.00    +0.000 OA
ATOM     14  C   UNL     1      30.908  25.105  26.036  0.00  0.00    +0.000 A 
ATOM     15  C   UNL     1      29.770  24.382  26.275  0.00  0.00    +0.000 A 
ENDBRANCH   4   9
BRANCH   3  16
ATOM     16  C   UNL     1      27.061  23.746  24.262  0.00  0.00    +0.000 C 
ATOM     17  O   UNL     1      26.537  23.029  23.366  0.00  0.00    +0.000 OA
BRANCH  16  18
ATOM     18  O   UNL     1      27.533  24.967  23.795  0.00  0.00    +0.000 OA
BRANCH  18  19
ATOM     19  C   UNL     1      28.214  25.117  22.590  0.00  0.00    +0.000 C 
ATOM     20  C   UNL     1      28.792  23.809  22.133  0.00  0.00    +0.000 C 
ATOM     21  C   UNL     1      27.371  25.713  21.490  0.00  0.00    +0.000 C 
ATOM     22  C   UNL     1      29.377  26.076  22.837  0.00  0.00    +0.000 C 
ENDBRANCH  18  19
ENDBRANCH  16  18
ENDBRANCH   3  16
TORSDOF 4
ENDMDL
MODEL 4
REMARK VINA RESULT:      -5.4      2.214      2.825
REMARK  Name = 
REMARK  4 active torsions:
REMARK  status: ('A' for Active; 'I' for Inactive)
REMARK    1  A    between atoms: C_3  and  C_4
REMARK    2  A    between atoms: C_4  and  O_6
REMARK    3  A    between atoms: O_6  and  C_7
REMARK    4  A    between atoms: C_11  and  C_12
REMARK                            x       y       z     vdW  Elec       q    Type
REMARK                         _______ _______ _______ _____ _____    ______ ____
ROOT
ATOM      1  C   UNL     1      27.941  26.766  24.712  0.00  0.00    +0.000 C 
ATOM      2  C   UNL     1      27.570  25.313  24.746  0.00  0.00    +0.000 C 
ATOM      3  C   UNL     1      28.294  24.494  25.405  0.00  0.00    +0.000 C 
ATOM      4  C   UNL     1      28.043  22.977  25.532  0.00  0.00    +0.000 C 
ATOM      5  N   UNL     1      26.821  22.695  24.748  0.00  0.00    +0.000 NA
ATOM      6  C   UNL     1      26.069  23.569  24.060  0.00  0.00    +0.000 C 
ATOM      7  O   UNL     1      25.012  23.148  23.416  0.00  0.00    +0.000 OA
ATOM      8  N   UNL     1      26.399  24.938  24.015  0.00  0.00    +0.000 NA
ENDROOT
BRANCH   4   9
ATOM      9  C   UNL     1      27.524  22.967  27.043  0.00  0.00    +0.000 A 
ATOM     10  C   UNL     1      26.416  23.765  27.239  0.00  0.00    +0.000 A 
ATOM     11  C   UNL     1      25.869  23.835  28.536  0.00  0.00    +0.000 A 
ATOM     12  C   UNL     1      26.452  23.116  29.541  0.00  0.00    +0.000 A 
ATOM     13  O   UNL     1      25.924  23.173  30.836  0.00  0.00    +0.000 OA
ATOM     14  C   UNL     1      27.544  22.343  29.301  0.00  0.00    +0.000 A 
ATOM     15  C   UNL     1      28.053  22.295  28.031  0.00  0.00    +0.000 A 
ENDBRANCH   4   9
BRANCH   3  16
ATOM     16  C   UNL     1      29.464  24.952  26.116  0.00  0.00    +0.000 C 
ATOM     17  O   UNL     1      29.483  25.355  27.311  0.00  0.00    +0.000 OA
BRANCH  16  18
ATOM     18  O   UNL     1      30.708  24.982  25.497  0.00  0.00    +0.000 OA
BRANCH  18  19
ATOM     19  C   UNL     1      31.626  23.938  25.567  0.00  0.00    +0.000 C 
ATOM     20  C   UNL     1      31.377  22.931  24.480  0.00  0.00    +0.000 C 
ATOM     21  C   UNL     1      33.064  24.391  25.521  0.00  0.00    +0.000 C 
ATOM     22  C   UNL     1      31.417  23.233  26.906  0.00  0.00    +0.000 C 
ENDBRANCH  18  19
ENDBRANCH  16  18
ENDBRANCH   3  16
TORSDOF 4
ENDMDL
MODEL 5
REMARK VINA RESULT:      -5.4      3.129      6.290
REMARK  Name = 
REMARK  4 active torsions:
REMARK  status: ('A' for Active; 'I' for Inactive)
REMARK    1  A    between atoms: C_3  and  C_4
REMARK    2  A    between atoms: C_4  and  O_6
REMARK    3  A    between atoms: O_6  and  C_7
REMARK    4  A    between atoms: C_11  and  C_12
REMARK                            x       y       z     vdW  Elec       q    Type
REMARK                         _______ _______ _______ _____ _____    ______ ____
ROOT
ATOM      1  C   UNL     1      26.173  25.772  28.022  0.00  0.00    +0.000 C 
ATOM      2  C   UNL     1      26.622  24.391  28.394  0.00  0.00    +0.000 C 
ATOM      3  C   UNL     1      27.532  23.818  27.706  0.00  0.00    +0.000 C 
ATOM      4  C   UNL     1      28.096  22.405  27.964  0.00  0.00    +0.000 C 
ATOM      5  N   UNL     1      27.371  21.882  29.141  0.00  0.00    +0.000 NA
ATOM      6  C   UNL     1      26.416  22.497  29.856  0.00  0.00    +0.000 C 
ATOM      7  O   UNL     1      25.875  21.886  30.877  0.00  0.00    +0.000 OA
ATOM      8  N   UNL     1      25.979  23.795  29.525  0.00  0.00    +0.000 NA
ENDROOT
BRANCH   4   9
ATOM      9  C   UNL     1      29.512  22.840  28.562  0.00  0.00    +0.000 A 
ATOM     10  C   UNL     1      30.576  22.431  27.786  0.00  0.00    +0.000 A 
ATOM     11  C   UNL     1      31.877  22.759  28.217  0.00  0.00    +0.000 A 
ATOM     12  C   UNL     1      32.034  23.465  29.376  0.00  0.00    +0.000 A 
ATOM     13  O   UNL     1      33.318  23.800  29.820  0.00  0.00    +0.000 OA
ATOM     14  C   UNL     1      30.954  23.847  30.109  0.00  0.00    +0.000 A 
ATOM     15  C   UNL     1      29.703  23.514  29.665  0.00  0.00    +0.000 A 
ENDBRANCH   4   9
BRANCH   3  16
ATOM     16  C   UNL     1      28.132  24.487  26.576  0.00  0.00    +0.000 C 
ATOM     17  O   UNL     1      28.721  25.602  26.613  0.00  0.00    +0.000 OA
BRANCH  16  18
ATOM     18  O   UNL     1      28.096  23.917  25.309  0.00  0.00    +0.000 OA
BRANCH  18  19
ATOM     19  C   UNL     1      26.968  23.928  24.493  0.00  0.00    +0.000 C 
ATOM     20  C   UNL     1      27.330  23.598  23.073  0.00  0.00    +0.000 C 
ATOM     21  C   UNL     1      25.870  23.009  24.966  0.00  0.00    +0.000 C 
ATOM     22  C   UNL     1      26.406  25.348  24.508  0.00  0.00    +0.000 C 
ENDBRANCH  18  19
ENDBRANCH  16  18
ENDBRANCH   3  16
TORSDOF 4
ENDMDL
MODEL 6
REMARK VINA RESULT:      -5.3      2.143      3.005
REMARK  Name = 
REMARK  4 active torsions:
REMARK  status: ('A' for Active; 'I' for Inactive)
REMARK    1  A    between atoms: C_3  and  C_4
REMARK    2  A    between atoms: C_4  and  O_6
REMARK    3  A    between atoms: O_6  and  C_7
REMARK    4  A    between atoms: C_11  and  C_12
REMARK                            x       y       z     vdW  Elec       q    Type
REMARK                         _______ _______ _______ _____ _____    ______ ____
ROOT
ATOM      1  C   UNL     1      30.651  23.691  25.502  0.00  0.00    +0.000 C 
ATOM      2  C   UNL     1      29.655  23.742  24.382  0.00  0.00    +0.000 C 
ATOM      3  C   UNL     1      28.425  23.503  24.622  0.00  0.00    +0.000 C 
ATOM      4  C   UNL     1      27.287  23.517  23.579  0.00  0.00    +0.000 C 
ATOM      5  N   UNL     1      27.920  23.856  22.286  0.00  0.00    +0.000 NA
ATOM      6  C   UNL     1      29.217  24.107  22.049  0.00  0.00    +0.000 C 
ATOM      7  O   UNL     1      29.611  24.394  20.836  0.00  0.00    +0.000 OA
ATOM      8  N   UNL     1      30.170  24.064  23.086  0.00  0.00    +0.000 NA
ENDROOT
BRANCH   4   9
ATOM      9  C   UNL     1      26.597  24.887  24.025  0.00  0.00    +0.000 A 
ATOM     10  C   UNL     1      25.387  24.701  24.659  0.00  0.00    +0.000 A 
ATOM     11  C   UNL     1      24.685  25.841  25.099  0.00  0.00    +0.000 A 
ATOM     12  C   UNL     1      25.226  27.077  24.883  0.00  0.00    +0.000 A 
ATOM     13  O   UNL     1      24.545  28.222  25.312  0.00  0.00    +0.000 OA
ATOM     14  C   UNL     1      26.424  27.212  24.253  0.00  0.00    +0.000 A 
ATOM     15  C   UNL     1      27.082  26.086  23.837  0.00  0.00    +0.000 A 
ENDBRANCH   4   9
BRANCH   3  16
ATOM     16  C   UNL     1      27.984  23.183  25.959  0.00  0.00    +0.000 C 
ATOM     17  O   UNL     1      27.639  22.039  26.363  0.00  0.00    +0.000 OA
BRANCH  16  18
ATOM     18  O   UNL     1      27.906  24.168  26.938  0.00  0.00    +0.000 OA
BRANCH  18  19
ATOM     19  C   UNL     1      27.887  23.894  28.302  0.00  0.00    +0.000 C 
ATOM     20  C   UNL     1      28.868  22.811  28.646  0.00  0.00    +0.000 C 
ATOM     21  C   UNL     1      28.141  25.105  29.166  0.00  0.00    +0.000 C 
ATOM     22  C   UNL     1      26.490  23.379  28.648  0.00  0.00    +0.000 C 
ENDBRANCH  18  19
ENDBRANCH  16  18
ENDBRANCH   3  16
TORSDOF 4
ENDMDL
MODEL 7
REMARK VINA RESULT:      -5.3     33.495     34.718
REMARK  Name = 
REMARK  4 active torsions:
REMARK  status: ('A' for Active; 'I' for Inactive)
REMARK    1  A    between atoms: C_3  and  C_4
REMARK    2  A    between atoms: C_4  and  O_6
REMARK    3  A    between atoms: O_6  and  C_7
REMARK    4  A    between atoms: C_11  and  C_12
REMARK                            x       y       z     vdW  Elec       q    Type
REMARK                         _______ _______ _______ _____ _____    ______ ____
ROOT
ATOM      1  C   UNL     1      21.571  -7.436  25.245  0.00  0.00    +0.000 C 
ATOM      2  C   UNL     1      20.140  -7.166  25.600  0.00  0.00    +0.000 C 
ATOM      3  C   UNL     1      19.283  -8.109  25.522  0.00  0.00    +0.000 C 
ATOM      4  C   UNL     1      17.781  -7.986  25.853  0.00  0.00    +0.000 C 
ATOM      5  N   UNL     1      17.564  -6.582  26.263  0.00  0.00    +0.000 NA
ATOM      6  C   UNL     1      18.477  -5.601  26.341  0.00  0.00    +0.000 C 
ATOM      7  O   UNL     1      18.112  -4.405  26.727  0.00  0.00    +0.000 OA
ATOM      8  N   UNL     1      19.827  -5.832  26.012  0.00  0.00    +0.000 NA
ENDROOT
BRANCH   4   9
ATOM      9  C   UNL     1      17.796  -8.780  27.239  0.00  0.00    +0.000 A 
ATOM     10  C   UNL     1      16.848  -9.779  27.300  0.00  0.00    +0.000 A 
ATOM     11  C   UNL     1      16.768 -10.548  28.478  0.00  0.00    +0.000 A 
ATOM     12  C   UNL     1      17.626 -10.278  29.506  0.00  0.00    +0.000 A 
ATOM     13  O   UNL     1      17.562 -11.030  30.684  0.00  0.00    +0.000 OA
ATOM     14  C   UNL     1      18.546  -9.282  29.401  0.00  0.00    +0.000 A 
ATOM     15  C   UNL     1      18.599  -8.552  28.244  0.00  0.00    +0.000 A 
ENDBRANCH   4   9
BRANCH   3  16
ATOM     16  C   UNL     1      19.679  -9.430  25.096  0.00  0.00    +0.000 C 
ATOM     17  O   UNL     1      19.391  -9.959  23.987  0.00  0.00    +0.000 OA
BRANCH  16  18
ATOM     18  O   UNL     1      20.441 -10.247  25.922  0.00  0.00    +0.000 OA
BRANCH  18  19
ATOM     19  C   UNL     1      20.174 -11.598  26.126  0.00  0.00    +0.000 C 
ATOM     20  C   UNL     1      20.324 -11.962  27.575  0.00  0.00    +0.000 C 
ATOM     21  C   UNL     1      18.816 -12.027  25.631  0.00  0.00    +0.000 C 
ATOM     22  C   UNL     1      21.214 -12.395  25.339  0.00  0.00    +0.000 C 
ENDBRANCH  18  19
ENDBRANCH  16  18
ENDBRANCH   3  16
TORSDOF 4
ENDMDL
MODEL 8
REMARK VINA RESULT:      -5.2     26.607     29.306
REMARK  Name = 
REMARK  4 active torsions:
REMARK  status: ('A' for Active; 'I' for Inactive)
REMARK    1  A    between atoms: C_3  and  C_4
REMARK    2  A    between atoms: C_4  and  O_6
REMARK    3  A    between atoms: O_6  and  C_7
REMARK    4  A    between atoms: C_11  and  C_12
REMARK                            x       y       z     vdW  Elec       q    Type
REMARK                         _______ _______ _______ _____ _____    ______ ____
ROOT
ATOM      1  C   UNL     1      36.280  -3.749  36.072  0.00  0.00    +0.000 C 
ATOM      2  C   UNL     1      34.971  -3.593  35.359  0.00  0.00    +0.000 C 
ATOM      3  C   UNL     1      34.185  -2.642  35.687  0.00  0.00    +0.000 C 
ATOM      4  C   UNL     1      32.810  -2.353  35.048  0.00  0.00    +0.000 C 
ATOM      5  N   UNL     1      32.614  -3.389  34.010  0.00  0.00    +0.000 NA
ATOM      6  C   UNL     1      33.451  -4.383  33.676  0.00  0.00    +0.000 C 
ATOM      7  O   UNL     1      33.120  -5.218  32.726  0.00  0.00    +0.000 OA
ATOM      8  N   UNL     1      34.687  -4.548  34.333  0.00  0.00    +0.000 NA
ENDROOT
BRANCH   4   9
ATOM      9  C   UNL     1      33.226  -1.059  34.208  0.00  0.00    +0.000 A 
ATOM     10  C   UNL     1      32.577   0.085  34.622  0.00  0.00    +0.000 A 
ATOM     11  C   UNL     1      32.865   1.291  33.952  0.00  0.00    +0.000 A 
ATOM     12  C   UNL     1      33.769   1.281  32.928  0.00  0.00    +0.000 A 
ATOM     13  O   UNL     1      34.069   2.468  32.251  0.00  0.00    +0.000 OA
ATOM     14  C   UNL     1      34.385   0.127  32.554  0.00  0.00    +0.000 A 
ATOM     15  C   UNL     1      34.084  -1.028  33.224  0.00  0.00    +0.000 A 
ENDBRANCH   4   9
BRANCH   3  16
ATOM     16  C   UNL     1      34.544  -1.718  36.736  0.00  0.00    +0.000 C 
ATOM     17  O   UNL     1      35.502  -0.898  36.694  0.00  0.00    +0.000 OA
BRANCH  16  18
ATOM     18  O   UNL     1      33.821  -1.670  37.923  0.00  0.00    +0.000 OA
BRANCH  18  19
ATOM     19  C   UNL     1      34.084  -2.491  39.016  0.00  0.00    +0.000 C 
ATOM     20  C   UNL     1      33.539  -3.872  38.793  0.00  0.00    +0.000 C 
ATOM     21  C   UNL     1      35.547  -2.572  39.374  0.00  0.00    +0.000 C 
ATOM     22  C   UNL     1      33.357  -1.896  40.221  0.00  0.00    +0.000 C 
ENDBRANCH  18  19
ENDBRANCH  16  18
ENDBRANCH   3  16
TORSDOF 4
ENDMDL
MODEL 9
REMARK VINA RESULT:      -5.1     13.517     15.545
REMARK  Name = 
REMARK  4 active torsions:
REMARK  status: ('A' for Active; 'I' for Inactive)
REMARK    1  A    between atoms: C_3  and  C_4
REMARK    2  A    between atoms: C_4  and  O_6
REMARK    3  A    between atoms: O_6  and  C_7
REMARK    4  A    between atoms: C_11  and  C_12
REMARK                            x       y       z     vdW  Elec       q    Type
REMARK                         _______ _______ _______ _____ _____    ______ ____
ROOT
ATOM      1  C   UNL     1      19.356  22.687  40.070  0.00  0.00    +0.000 C 
ATOM      2  C   UNL     1      19.922  22.567  38.687  0.00  0.00    +0.000 C 
ATOM      3  C   UNL     1      19.600  21.568  37.960  0.00  0.00    +0.000 C 
ATOM      4  C   UNL     1      20.099  21.308  36.522  0.00  0.00    +0.000 C 
ATOM      5  N   UNL     1      21.000  22.433  36.190  0.00  0.00    +0.000 NA
ATOM      6  C   UNL     1      21.328  23.477  36.966  0.00  0.00    +0.000 C 
ATOM      7  O   UNL     1      22.146  24.391  36.512  0.00  0.00    +0.000 OA
ATOM      8  N   UNL     1      20.808  23.610  38.269  0.00  0.00    +0.000 NA
ENDROOT
BRANCH   4   9
ATOM      9  C   UNL     1      18.748  21.675  35.752  0.00  0.00    +0.000 A 
ATOM     10  C   UNL     1      18.553  20.922  34.614  0.00  0.00    +0.000 A 
ATOM     11  C   UNL     1      17.392  21.159  33.852  0.00  0.00    +0.000 A 
ATOM     12  C   UNL     1      16.510  22.116  34.266  0.00  0.00    +0.000 A 
ATOM     13  O   UNL     1      15.351  22.367  33.523  0.00  0.00    +0.000 OA
ATOM     14  C   UNL     1      16.744  22.835  35.397  0.00  0.00    +0.000 A 
ATOM     15  C   UNL     1      17.881  22.583  36.116  0.00  0.00    +0.000 A 
ENDBRANCH   4   9
BRANCH   3  16
ATOM     16  C   UNL     1      18.699  20.556  38.456  0.00  0.00    +0.000 C 
ATOM     17  O   UNL     1      17.575  20.771  38.985  0.00  0.00    +0.000 OA
BRANCH  16  18
ATOM     18  O   UNL     1      19.030  19.208  38.378  0.00  0.00    +0.000 OA
BRANCH  18  19
ATOM     19  C   UNL     1      19.907  18.580  39.258  0.00  0.00    +0.000 C 
ATOM     20  C   UNL     1      21.300  18.550  38.699  0.00  0.00    +0.000 C 
ATOM     21  C   UNL     1      19.924  19.194  40.636  0.00  0.00    +0.000 C 
ATOM     22  C   UNL     1      19.441  17.133  39.415  0.00  0.00    +0.000 C 
ENDBRANCH  18  19
ENDBRANCH  16  18
ENDBRANCH   3  16
TORSDOF 4
ENDMDL
MODEL 10
REMARK VINA RESULT:      -5.1     20.218     22.012
REMARK  Name = 
REMARK  4 active torsions:
REMARK  status: ('A' for Active; 'I' for Inactive)
REMARK    1  A    between atoms: C_3  and  C_4
REMARK    2  A    between atoms: C_4  and  O_6
REMARK    3  A    between atoms: O_6  and  C_7
REMARK    4  A    between atoms: C_11  and  C_12
REMARK                            x       y       z     vdW  Elec       q    Type
REMARK                         _______ _______ _______ _____ _____    ______ ____
ROOT
ATOM      1  C   UNL     1      20.188  10.424  41.465  0.00  0.00    +0.000 C 
ATOM      2  C   UNL     1      20.513  10.428  40.001  0.00  0.00    +0.000 C 
ATOM      3  C   UNL     1      19.789   9.755  39.194  0.00  0.00    +0.000 C 
ATOM      4  C   UNL     1      19.996   9.661  37.668  0.00  0.00    +0.000 C 
ATOM      5  N   UNL     1      21.180  10.493  37.362  0.00  0.00    +0.000 NA
ATOM      6  C   UNL     1      21.932  11.197  38.223  0.00  0.00    +0.000 C 
ATOM      7  O   UNL     1      22.952  11.885  37.781  0.00  0.00    +0.000 OA
ATOM      8  N   UNL     1      21.645  11.207  39.602  0.00  0.00    +0.000 NA
ENDROOT
BRANCH   4   9
ATOM      9  C   UNL     1      18.769  10.582  37.223  0.00  0.00    +0.000 A 
ATOM     10  C   UNL     1      17.898   9.945  36.364  0.00  0.00    +0.000 A 
ATOM     11  C   UNL     1      16.776  10.662  35.904  0.00  0.00    +0.000 A 
ATOM     12  C   UNL     1      16.594  11.949  36.323  0.00  0.00    +0.000 A 
ATOM     13  O   UNL     1      15.486  12.678  35.877  0.00  0.00    +0.000 OA
ATOM     14  C   UNL     1      17.480  12.538  37.170  0.00  0.00    +0.000 A 
ATOM     15  C   UNL     1      18.561  11.816  37.600  0.00  0.00    +0.000 A 
ENDBRANCH   4   9
BRANCH   3  16
ATOM     16  C   UNL     1      18.662   8.992  39.677  0.00  0.00    +0.000 C 
ATOM     17  O   UNL     1      17.655   9.467  40.269  0.00  0.00    +0.000 OA
BRANCH  16  18
ATOM     18  O   UNL     1      18.613   7.612  39.511  0.00  0.00    +0.000 OA
BRANCH  18  19
ATOM     19  C   UNL     1      18.576   6.712  40.572  0.00  0.00    +0.000 C 
ATOM     20  C   UNL     1      19.456   7.173  41.698  0.00  0.00    +0.000 C 
ATOM     21  C   UNL     1      17.185   6.445  41.090  0.00  0.00    +0.000 C 
ATOM     22  C   UNL     1      19.131   5.383  40.065  0.00  0.00    +0.000 C 
ENDBRANCH  18  19
ENDBRANCH  16  18
ENDBRANCH   3  16
TORSDOF 4
ENDMDL
