MODEL 1
REMARK VINA RESULT:      -5.6      0.000      0.000
REMARK  Name = 
REMARK  4 active torsions:
REMARK  status: ('A' for Active; 'I' for Inactive)
REMARK    1  A    between atoms: C_5  and  C_6
REMARK    2  A    between atoms: C_13  and  N_14
REMARK    3  A    between atoms: N_14  and  C_15
REMARK    4  A    between atoms: C_15  and  C_16
REMARK                            x       y       z     vdW  Elec       q    Type
REMARK                         _______ _______ _______ _____ _____    ______ ____
ROOT
ATOM      1  C   UNL     1      29.265  23.653  24.595  0.00  0.00    +0.000 A 
ATOM      2  C   UNL     1      30.063  24.053  23.533  0.00  0.00    +0.000 A 
ATOM      3  S   UNL     1      28.995  24.102  22.228  0.00  0.00    +0.000 S 
ATOM      4  C   UNL     1      27.563  23.625  23.018  0.00  0.00    +0.000 A 
ATOM      5  N   UNL     1      26.271  23.445  22.595  0.00  0.00    +0.000 NA
ATOM      6  C   UNL     1      25.303  23.066  23.440  0.00  0.00    +0.000 A 
ATOM      7  N   UNL     1      25.677  22.878  24.704  0.00  0.00    +0.000 NA
ATOM      8  C   UNL     1      26.916  23.033  25.192  0.00  0.00    +0.000 A 
ATOM      9  C   UNL     1      27.958  23.433  24.313  0.00  0.00    +0.000 A 
ENDROOT
BRANCH   1  14
ATOM     10  C   UNL     1      31.703  22.893  29.802  0.00  0.00    +0.000 C 
ATOM     11  C   UNL     1      31.072  23.085  28.451  0.00  0.00    +0.000 A 
ATOM     12  C   UNL     1      30.941  22.037  27.567  0.00  0.00    +0.000 A 
ATOM     13  C   UNL     1      30.359  22.230  26.335  0.00  0.00    +0.000 A 
ATOM     14  C   UNL     1      29.895  23.459  25.944  0.00  0.00    +0.000 A 
ATOM     15  C   UNL     1      30.021  24.505  26.813  0.00  0.00    +0.000 A 
ATOM     16  C   UNL     1      30.602  24.316  28.048  0.00  0.00    +0.000 A 
ENDBRANCH   1  14
BRANCH   8  17
ATOM     17  N   UNL     1      27.197  22.803  26.556  0.00  0.00    +0.000 NA
BRANCH  17  18
ATOM     18  C   UNL     1      26.519  23.528  27.573  0.00  0.00    +0.000 C 
BRANCH  18  19
ATOM     19  C   UNL     1      27.052  23.377  28.944  0.00  0.00    +0.000 C 
ATOM     20  O   UNL     1      27.716  22.190  29.159  0.00  0.00    +0.000 OA
ENDBRANCH  18  19
ENDBRANCH  17  18
ENDBRANCH   8  17
TORSDOF 4
ENDMDL
MODEL 2
REMARK VINA RESULT:      -5.4     20.918     22.917
REMARK  Name = 
REMARK  4 active torsions:
REMARK  status: ('A' for Active; 'I' for Inactive)
REMARK    1  A    between atoms: C_5  and  C_6
REMARK    2  A    between atoms: C_13  and  N_14
REMARK    3  A    between atoms: N_14  and  C_15
REMARK    4  A    between atoms: C_15  and  C_16
REMARK                            x       y       z     vdW  Elec       q    Type
REMARK                         _______ _______ _______ _____ _____    ______ ____
ROOT
ATOM      1  C   UNL     1      34.104   3.479  34.756  0.00  0.00    +0.000 A 
ATOM      2  C   UNL     1      33.837   3.150  33.435  0.00  0.00    +0.000 A 
ATOM      3  S   UNL     1      33.408   1.521  33.509  0.00  0.00    +0.000 S 
ATOM      4  C   UNL     1      33.564   1.263  35.186  0.00  0.00    +0.000 A 
ATOM      5  N   UNL     1      33.370   0.172  35.992  0.00  0.00    +0.000 NA
ATOM      6  C   UNL     1      33.556   0.236  37.317  0.00  0.00    +0.000 A 
ATOM      7  N   UNL     1      33.936   1.421  37.792  0.00  0.00    +0.000 NA
ATOM      8  C   UNL     1      34.146   2.530  37.070  0.00  0.00    +0.000 A 
ATOM      9  C   UNL     1      33.956   2.483  35.663  0.00  0.00    +0.000 A 
ENDROOT
BRANCH   1  14
ATOM     10  C   UNL     1      35.890   8.855  35.998  0.00  0.00    +0.000 C 
ATOM     11  C   UNL     1      35.433   7.460  35.675  0.00  0.00    +0.000 A 
ATOM     12  C   UNL     1      36.331   6.471  35.343  0.00  0.00    +0.000 A 
ATOM     13  C   UNL     1      35.895   5.199  35.051  0.00  0.00    +0.000 A 
ATOM     14  C   UNL     1      34.563   4.872  35.079  0.00  0.00    +0.000 A 
ATOM     15  C   UNL     1      33.664   5.846  35.406  0.00  0.00    +0.000 A 
ATOM     16  C   UNL     1      34.097   7.120  35.699  0.00  0.00    +0.000 A 
ENDBRANCH   1  14
BRANCH   8  17
ATOM     17  N   UNL     1      34.552   3.735  37.685  0.00  0.00    +0.000 NA
BRANCH  17  18
ATOM     18  C   UNL     1      35.726   3.787  38.484  0.00  0.00    +0.000 C 
BRANCH  18  19
ATOM     19  C   UNL     1      36.222   5.139  38.821  0.00  0.00    +0.000 C 
ATOM     20  O   UNL     1      35.232   6.091  38.916  0.00  0.00    +0.000 OA
ENDBRANCH  18  19
ENDBRANCH  17  18
ENDBRANCH   8  17
TORSDOF 4
ENDMDL
MODEL 3
REMARK VINA RESULT:      -5.4      2.612      3.587
REMARK  Name = 
REMARK  4 active torsions:
REMARK  status: ('A' for Active; 'I' for Inactive)
REMARK    1  A    between atoms: C_5  and  C_6
REMARK    2  A    between atoms: C_13  and  N_14
REMARK    3  A    between atoms: N_14  and  C_15
REMARK    4  A    between atoms: C_15  and  C_16
REMARK                            x       y       z     vdW  Elec       q    Type
REMARK                         _______ _______ _______ _____ _____    ______ ____
ROOT
ATOM      1  C   UNL     1      28.288  23.121  25.675  0.00  0.00    +0.000 A 
ATOM      2  C   UNL     1      26.984  22.895  26.095  0.00  0.00    +0.000 A 
ATOM      3  S   UNL     1      26.073  23.090  24.689  0.00  0.00    +0.000 S 
ATOM      4  C   UNL     1      27.324  23.450  23.589  0.00  0.00    +0.000 A 
ATOM      5  N   UNL     1      27.346  23.723  22.246  0.00  0.00    +0.000 NA
ATOM      6  C   UNL     1      28.493  23.969  21.599  0.00  0.00    +0.000 A 
ATOM      7  N   UNL     1      29.597  23.931  22.341  0.00  0.00    +0.000 NA
ATOM      8  C   UNL     1      29.656  23.672  23.655  0.00  0.00    +0.000 A 
ATOM      9  C   UNL     1      28.452  23.410  24.361  0.00  0.00    +0.000 A 
ENDROOT
BRANCH   1  14
ATOM     10  C   UNL     1      32.569  22.910  29.581  0.00  0.00    +0.000 C 
ATOM     11  C   UNL     1      31.460  22.959  28.567  0.00  0.00    +0.000 A 
ATOM     12  C   UNL     1      31.168  21.873  27.773  0.00  0.00    +0.000 A 
ATOM     13  C   UNL     1      30.149  21.935  26.850  0.00  0.00    +0.000 A 
ATOM     14  C   UNL     1      29.396  23.069  26.687  0.00  0.00    +0.000 A 
ATOM     15  C   UNL     1      29.678  24.152  27.469  0.00  0.00    +0.000 A 
ATOM     16  C   UNL     1      30.697  24.093  28.395  0.00  0.00    +0.000 A 
ENDBRANCH   1  14
BRANCH   8  17
ATOM     17  N   UNL     1      30.890  23.660  24.341  0.00  0.00    +0.000 NA
BRANCH  17  18
ATOM     18  C   UNL     1      31.634  24.857  24.529  0.00  0.00    +0.000 C 
BRANCH  18  19
ATOM     19  C   UNL     1      32.909  24.721  25.265  0.00  0.00    +0.000 C 
ATOM     20  O   UNL     1      33.922  24.149  24.528  0.00  0.00    +0.000 OA
ENDBRANCH  18  19
ENDBRANCH  17  18
ENDBRANCH   8  17
TORSDOF 4
ENDMDL
MODEL 4
REMARK VINA RESULT:      -5.3      3.235      4.544
REMARK  Name = 
REMARK  4 active torsions:
REMARK  status: ('A' for Active; 'I' for Inactive)
REMARK    1  A    between atoms: C_5  and  C_6
REMARK    2  A    between atoms: C_13  and  N_14
REMARK    3  A    between atoms: N_14  and  C_15
REMARK    4  A    between atoms: C_15  and  C_16
REMARK                            x       y       z     vdW  Elec       q    Type
REMARK                         _______ _______ _______ _____ _____    ______ ____
ROOT
ATOM      1  C   UNL     1      28.894  23.639  25.554  0.00  0.00    +0.000 A 
ATOM      2  C   UNL     1      28.505  23.482  26.877  0.00  0.00    +0.000 A 
ATOM      3  S   UNL     1      26.851  23.168  26.772  0.00  0.00    +0.000 S 
ATOM      4  C   UNL     1      26.658  23.234  25.080  0.00  0.00    +0.000 A 
ATOM      5  N   UNL     1      25.580  23.068  24.249  0.00  0.00    +0.000 NA
ATOM      6  C   UNL     1      25.700  23.163  22.918  0.00  0.00    +0.000 A 
ATOM      7  N   UNL     1      26.923  23.426  22.463  0.00  0.00    +0.000 NA
ATOM      8  C   UNL     1      28.022  23.601  23.210  0.00  0.00    +0.000 A 
ATOM      9  C   UNL     1      27.918  23.506  24.624  0.00  0.00    +0.000 A 
ENDROOT
BRANCH   1  14
ATOM     10  C   UNL     1      34.423  24.951  24.398  0.00  0.00    +0.000 C 
ATOM     11  C   UNL     1      32.989  24.616  24.699  0.00  0.00    +0.000 A 
ATOM     12  C   UNL     1      32.076  25.597  25.016  0.00  0.00    +0.000 A 
ATOM     13  C   UNL     1      30.766  25.273  25.288  0.00  0.00    +0.000 A 
ATOM     14  C   UNL     1      30.326  23.976  25.254  0.00  0.00    +0.000 A 
ATOM     15  C   UNL     1      31.223  22.995  24.941  0.00  0.00    +0.000 A 
ATOM     16  C   UNL     1      32.534  23.315  24.668  0.00  0.00    +0.000 A 
ENDBRANCH   1  14
BRANCH   8  17
ATOM     17  N   UNL     1      29.272  23.879  22.615  0.00  0.00    +0.000 NA
BRANCH  17  18
ATOM     18  C   UNL     1      29.361  24.677  21.441  0.00  0.00    +0.000 C 
BRANCH  18  19
ATOM     19  C   UNL     1      29.321  26.140  21.646  0.00  0.00    +0.000 C 
ATOM     20  O   UNL     1      29.727  26.870  20.551  0.00  0.00    +0.000 OA
ENDBRANCH  18  19
ENDBRANCH  17  18
ENDBRANCH   8  17
TORSDOF 4
ENDMDL
MODEL 5
REMARK VINA RESULT:      -5.3      2.952      5.473
REMARK  Name = 
REMARK  4 active torsions:
REMARK  status: ('A' for Active; 'I' for Inactive)
REMARK    1  A    between atoms: C_5  and  C_6
REMARK    2  A    between atoms: C_13  and  N_14
REMARK    3  A    between atoms: N_14  and  C_15
REMARK    4  A    between atoms: C_15  and  C_16
REMARK                            x       y       z     vdW  Elec       q    Type
REMARK                         _______ _______ _______ _____ _____    ______ ____
ROOT
ATOM      1  C   UNL     1      26.217  24.689  27.136  0.00  0.00    +0.000 A 
ATOM      2  C   UNL     1      25.359  25.758  27.352  0.00  0.00    +0.000 A 
ATOM      3  S   UNL     1      24.918  25.593  28.972  0.00  0.00    +0.000 S 
ATOM      4  C   UNL     1      25.807  24.194  29.365  0.00  0.00    +0.000 A 
ATOM      5  N   UNL     1      25.951  23.464  30.517  0.00  0.00    +0.000 NA
ATOM      6  C   UNL     1      26.739  22.382  30.568  0.00  0.00    +0.000 A 
ATOM      7  N   UNL     1      27.365  22.067  29.435  0.00  0.00    +0.000 NA
ATOM      8  C   UNL     1      27.274  22.729  28.273  0.00  0.00    +0.000 A 
ATOM      9  C   UNL     1      26.443  23.879  28.197  0.00  0.00    +0.000 A 
ENDROOT
BRANCH   1  14
ATOM     10  C   UNL     1      28.426  23.900  21.832  0.00  0.00    +0.000 C 
ATOM     11  C   UNL     1      27.849  24.101  23.205  0.00  0.00    +0.000 A 
ATOM     12  C   UNL     1      26.735  23.407  23.623  0.00  0.00    +0.000 A 
ATOM     13  C   UNL     1      26.221  23.603  24.884  0.00  0.00    +0.000 A 
ATOM     14  C   UNL     1      26.791  24.487  25.763  0.00  0.00    +0.000 A 
ATOM     15  C   UNL     1      27.896  25.180  25.359  0.00  0.00    +0.000 A 
ATOM     16  C   UNL     1      28.414  24.987  24.097  0.00  0.00    +0.000 A 
ENDBRANCH   1  14
BRANCH   8  17
ATOM     17  N   UNL     1      27.987  22.300  27.132  0.00  0.00    +0.000 NA
BRANCH  17  18
ATOM     18  C   UNL     1      29.408  22.252  27.134  0.00  0.00    +0.000 C 
BRANCH  18  19
ATOM     19  C   UNL     1      30.059  22.230  25.806  0.00  0.00    +0.000 C 
ATOM     20  O   UNL     1      31.246  22.926  25.753  0.00  0.00    +0.000 OA
ENDBRANCH  18  19
ENDBRANCH  17  18
ENDBRANCH   8  17
TORSDOF 4
ENDMDL
MODEL 6
REMARK VINA RESULT:      -5.3     18.857     20.856
REMARK  Name = 
REMARK  4 active torsions:
REMARK  status: ('A' for Active; 'I' for Inactive)
REMARK    1  A    between atoms: C_5  and  C_6
REMARK    2  A    between atoms: C_13  and  N_14
REMARK    3  A    between atoms: N_14  and  C_15
REMARK    4  A    between atoms: C_15  and  C_16
REMARK                            x       y       z     vdW  Elec       q    Type
REMARK                         _______ _______ _______ _____ _____    ______ ____
ROOT
ATOM      1  C   UNL     1      17.384  10.104  39.103  0.00  0.00    +0.000 A 
ATOM      2  C   UNL     1      17.263   9.435  40.313  0.00  0.00    +0.000 A 
ATOM      3  S   UNL     1      15.611   9.502  40.643  0.00  0.00    +0.000 S 
ATOM      4  C   UNL     1      15.084  10.364  39.270  0.00  0.00    +0.000 A 
ATOM      5  N   UNL     1      13.853  10.789  38.842  0.00  0.00    +0.000 NA
ATOM      6  C   UNL     1      13.702  11.455  37.690  0.00  0.00    +0.000 A 
ATOM      7  N   UNL     1      14.818  11.674  36.997  0.00  0.00    +0.000 NA
ATOM      8  C   UNL     1      16.054  11.291  37.349  0.00  0.00    +0.000 A 
ATOM      9  C   UNL     1      16.236  10.584  38.568  0.00  0.00    +0.000 A 
ENDROOT
BRANCH   1  14
ATOM     10  C   UNL     1      22.660  10.789  36.795  0.00  0.00    +0.000 C 
ATOM     11  C   UNL     1      21.293  10.616  37.397  0.00  0.00    +0.000 A 
ATOM     12  C   UNL     1      20.840  11.449  38.395  0.00  0.00    +0.000 A 
ATOM     13  C   UNL     1      19.585  11.276  38.934  0.00  0.00    +0.000 A 
ATOM     14  C   UNL     1      18.749  10.279  38.503  0.00  0.00    +0.000 A 
ATOM     15  C   UNL     1      19.190   9.447  37.514  0.00  0.00    +0.000 A 
ATOM     16  C   UNL     1      20.444   9.617  36.972  0.00  0.00    +0.000 A 
ENDBRANCH   1  14
BRANCH   8  17
ATOM     17  N   UNL     1      17.168  11.582  36.532  0.00  0.00    +0.000 NA
BRANCH  17  18
ATOM     18  C   UNL     1      17.046  11.615  35.116  0.00  0.00    +0.000 C 
BRANCH  18  19
ATOM     19  C   UNL     1      17.447  10.385  34.400  0.00  0.00    +0.000 C 
ATOM     20  O   UNL     1      17.022  10.335  33.091  0.00  0.00    +0.000 OA
ENDBRANCH  18  19
ENDBRANCH  17  18
ENDBRANCH   8  17
TORSDOF 4
ENDMDL
MODEL 7
REMARK VINA RESULT:      -5.1     20.161     21.723
REMARK  Name = 
REMARK  4 active torsions:
REMARK  status: ('A' for Active; 'I' for Inactive)
REMARK    1  A    between atoms: C_5  and  C_6
REMARK    2  A    between atoms: C_13  and  N_14
REMARK    3  A    between atoms: N_14  and  C_15
REMARK    4  A    between atoms: C_15  and  C_16
REMARK                            x       y       z     vdW  Elec       q    Type
REMARK                         _______ _______ _______ _____ _____    ______ ____
ROOT
ATOM      1  C   UNL     1      26.210   5.112  17.902  0.00  0.00    +0.000 A 
ATOM      2  C   UNL     1      26.857   5.464  19.078  0.00  0.00    +0.000 A 
ATOM      3  S   UNL     1      27.956   6.646  18.590  0.00  0.00    +0.000 S 
ATOM      4  C   UNL     1      27.600   6.692  16.924  0.00  0.00    +0.000 A 
ATOM      5  N   UNL     1      28.093   7.426  15.877  0.00  0.00    +0.000 NA
ATOM      6  C   UNL     1      27.623   7.276  14.631  0.00  0.00    +0.000 A 
ATOM      7  N   UNL     1      26.655   6.374  14.482  0.00  0.00    +0.000 NA
ATOM      8  C   UNL     1      26.123   5.619  15.454  0.00  0.00    +0.000 A 
ATOM      9  C   UNL     1      26.608   5.762  16.782  0.00  0.00    +0.000 A 
ENDROOT
BRANCH   1  14
ATOM     10  C   UNL     1      22.170   0.954  18.062  0.00  0.00    +0.000 C 
ATOM     11  C   UNL     1      23.213   2.036  18.021  0.00  0.00    +0.000 A 
ATOM     12  C   UNL     1      22.885   3.355  18.236  0.00  0.00    +0.000 A 
ATOM     13  C   UNL     1      23.853   4.333  18.196  0.00  0.00    +0.000 A 
ATOM     14  C   UNL     1      25.166   4.033  17.943  0.00  0.00    +0.000 A 
ATOM     15  C   UNL     1      25.503   2.727  17.728  0.00  0.00    +0.000 A 
ATOM     16  C   UNL     1      24.537   1.746  17.768  0.00  0.00    +0.000 A 
ENDBRANCH   1  14
BRANCH   8  17
ATOM     17  N   UNL     1      25.097   4.689  15.177  0.00  0.00    +0.000 NA
BRANCH  17  18
ATOM     18  C   UNL     1      25.261   3.699  14.170  0.00  0.00    +0.000 C 
BRANCH  18  19
ATOM     19  C   UNL     1      24.151   2.735  14.020  0.00  0.00    +0.000 C 
ATOM     20  O   UNL     1      22.996   3.106  14.672  0.00  0.00    +0.000 OA
ENDBRANCH  18  19
ENDBRANCH  17  18
ENDBRANCH   8  17
TORSDOF 4
ENDMDL
MODEL 8
REMARK VINA RESULT:      -5.1      1.560      2.543
REMARK  Name = 
REMARK  4 active torsions:
REMARK  status: ('A' for Active; 'I' for Inactive)
REMARK    1  A    between atoms: C_5  and  C_6
REMARK    2  A    between atoms: C_13  and  N_14
REMARK    3  A    between atoms: N_14  and  C_15
REMARK    4  A    between atoms: C_15  and  C_16
REMARK                            x       y       z     vdW  Elec       q    Type
REMARK                         _______ _______ _______ _____ _____    ______ ____
ROOT
ATOM      1  C   UNL     1      30.644  23.181  26.519  0.00  0.00    +0.000 A 
ATOM      2  C   UNL     1      31.563  23.532  25.540  0.00  0.00    +0.000 A 
ATOM      3  S   UNL     1      30.627  23.667  24.144  0.00  0.00    +0.000 S 
ATOM      4  C   UNL     1      29.097  23.286  24.792  0.00  0.00    +0.000 A 
ATOM      5  N   UNL     1      27.841  23.201  24.250  0.00  0.00    +0.000 NA
ATOM      6  C   UNL     1      26.775  22.885  24.997  0.00  0.00    +0.000 A 
ATOM      7  N   UNL     1      27.017  22.660  26.287  0.00  0.00    +0.000 NA
ATOM      8  C   UNL     1      28.213  22.723  26.888  0.00  0.00    +0.000 A 
ATOM      9  C   UNL     1      29.357  23.056  26.114  0.00  0.00    +0.000 A 
ENDROOT
BRANCH   1  14
ATOM     10  C   UNL     1      32.526  22.228  31.921  0.00  0.00    +0.000 C 
ATOM     11  C   UNL     1      32.036  22.480  30.523  0.00  0.00    +0.000 A 
ATOM     12  C   UNL     1      31.463  23.681  30.170  0.00  0.00    +0.000 A 
ATOM     13  C   UNL     1      31.021  23.896  28.885  0.00  0.00    +0.000 A 
ATOM     14  C   UNL     1      31.132  22.931  27.917  0.00  0.00    +0.000 A 
ATOM     15  C   UNL     1      31.699  21.736  28.256  0.00  0.00    +0.000 A 
ATOM     16  C   UNL     1      32.143  21.518  29.542  0.00  0.00    +0.000 A 
ENDBRANCH   1  14
BRANCH   8  17
ATOM     17  N   UNL     1      28.350  22.462  28.269  0.00  0.00    +0.000 NA
BRANCH  17  18
ATOM     18  C   UNL     1      27.282  22.722  29.171  0.00  0.00    +0.000 C 
BRANCH  18  19
ATOM     19  C   UNL     1      26.968  21.645  30.134  0.00  0.00    +0.000 C 
ATOM     20  O   UNL     1      25.799  21.844  30.834  0.00  0.00    +0.000 OA
ENDBRANCH  18  19
ENDBRANCH  17  18
ENDBRANCH   8  17
TORSDOF 4
ENDMDL
MODEL 9
REMARK VINA RESULT:      -5.1      3.597      5.894
REMARK  Name = 
REMARK  4 active torsions:
REMARK  status: ('A' for Active; 'I' for Inactive)
REMARK    1  A    between atoms: C_5  and  C_6
REMARK    2  A    between atoms: C_13  and  N_14
REMARK    3  A    between atoms: N_14  and  C_15
REMARK    4  A    between atoms: C_15  and  C_16
REMARK                            x       y       z     vdW  Elec       q    Type
REMARK                         _______ _______ _______ _____ _____    ______ ____
ROOT
ATOM      1  C   UNL     1      26.933  23.267  27.852  0.00  0.00    +0.000 A 
ATOM      2  C   UNL     1      27.614  22.175  28.372  0.00  0.00    +0.000 A 
ATOM      3  S   UNL     1      27.365  22.306  30.035  0.00  0.00    +0.000 S 
ATOM      4  C   UNL     1      26.414  23.720  30.068  0.00  0.00    +0.000 A 
ATOM      5  N   UNL     1      25.827  24.435  31.080  0.00  0.00    +0.000 NA
ATOM      6  C   UNL     1      25.103  25.535  30.833  0.00  0.00    +0.000 A 
ATOM      7  N   UNL     1      24.993  25.881  29.552  0.00  0.00    +0.000 NA
ATOM      8  C   UNL     1      25.536  25.235  28.511  0.00  0.00    +0.000 A 
ATOM      9  C   UNL     1      26.309  24.067  28.750  0.00  0.00    +0.000 A 
ENDROOT
BRANCH   1  14
ATOM     10  C   UNL     1      27.051  24.175  22.126  0.00  0.00    +0.000 C 
ATOM     11  C   UNL     1      27.016  23.937  23.609  0.00  0.00    +0.000 A 
ATOM     12  C   UNL     1      26.026  23.175  24.189  0.00  0.00    +0.000 A 
ATOM     13  C   UNL     1      26.009  22.966  25.549  0.00  0.00    +0.000 A 
ATOM     14  C   UNL     1      26.967  23.504  26.370  0.00  0.00    +0.000 A 
ATOM     15  C   UNL     1      27.953  24.261  25.805  0.00  0.00    +0.000 A 
ATOM     16  C   UNL     1      27.973  24.472  24.444  0.00  0.00    +0.000 A 
ENDBRANCH   1  14
BRANCH   8  17
ATOM     17  N   UNL     1      25.353  25.697  27.189  0.00  0.00    +0.000 NA
BRANCH  17  18
ATOM     18  C   UNL     1      24.053  25.973  26.686  0.00  0.00    +0.000 C 
BRANCH  18  19
ATOM     19  C   UNL     1      23.970  26.310  25.248  0.00  0.00    +0.000 C 
ATOM     20  O   UNL     1      25.053  27.018  24.776  0.00  0.00    +0.000 OA
ENDBRANCH  18  19
ENDBRANCH  17  18
ENDBRANCH   8  17
TORSDOF 4
ENDMDL
MODEL 10
REMARK VINA RESULT:      -5.0     31.998     32.870
REMARK  Name = 
REMARK  4 active torsions:
REMARK  status: ('A' for Active; 'I' for Inactive)
REMARK    1  A    between atoms: C_5  and  C_6
REMARK    2  A    between atoms: C_13  and  N_14
REMARK    3  A    between atoms: N_14  and  C_15
REMARK    4  A    between atoms: C_15  and  C_16
REMARK                            x       y       z     vdW  Elec       q    Type
REMARK                         _______ _______ _______ _____ _____    ______ ____
ROOT
ATOM      1  C   UNL     1      19.727  -9.006  26.564  0.00  0.00    +0.000 A 
ATOM      2  C   UNL     1      18.787  -9.687  27.324  0.00  0.00    +0.000 A 
ATOM      3  S   UNL     1      17.701  -8.483  27.787  0.00  0.00    +0.000 S 
ATOM      4  C   UNL     1      18.426  -7.141  27.028  0.00  0.00    +0.000 A 
ATOM      5  N   UNL     1      18.100  -5.812  26.955  0.00  0.00    +0.000 NA
ATOM      6  C   UNL     1      18.851  -4.942  26.267  0.00  0.00    +0.000 A 
ATOM      7  N   UNL     1      19.924  -5.451  25.665  0.00  0.00    +0.000 NA
ATOM      8  C   UNL     1      20.308  -6.735  25.691  0.00  0.00    +0.000 A 
ATOM      9  C   UNL     1      19.527  -7.675  26.416  0.00  0.00    +0.000 A 
ENDROOT
BRANCH   1  14
ATOM     10  C   UNL     1      24.243 -11.938  24.408  0.00  0.00    +0.000 C 
ATOM     11  C   UNL     1      23.075 -11.177  24.972  0.00  0.00    +0.000 A 
ATOM     12  C   UNL     1      23.125 -10.619  26.229  0.00  0.00    +0.000 A 
ATOM     13  C   UNL     1      22.047  -9.925  26.730  0.00  0.00    +0.000 A 
ATOM     14  C   UNL     1      20.895  -9.766  26.003  0.00  0.00    +0.000 A 
ATOM     15  C   UNL     1      20.836 -10.316  24.755  0.00  0.00    +0.000 A 
ATOM     16  C   UNL     1      21.913 -11.011  24.250  0.00  0.00    +0.000 A 
ENDBRANCH   1  14
BRANCH   8  17
ATOM     17  N   UNL     1      21.471  -7.163  25.014  0.00  0.00    +0.000 NA
BRANCH  17  18
ATOM     18  C   UNL     1      22.246  -6.250  24.247  0.00  0.00    +0.000 C 
BRANCH  18  19
ATOM     19  C   UNL     1      23.708  -6.475  24.253  0.00  0.00    +0.000 C 
ATOM     20  O   UNL     1      24.071  -7.800  24.168  0.00  0.00    +0.000 OA
ENDBRANCH  18  19
ENDBRANCH  17  18
ENDBRANCH   8  17
TORSDOF 4
ENDMDL
