MODEL 1
REMARK VINA RESULT:      -5.7      0.000      0.000
REMARK  Name = 
REMARK  5 active torsions:
REMARK  status: ('A' for Active; 'I' for Inactive)
REMARK    1  A    between atoms: C_2  and  O_5
REMARK    2  A    between atoms: O_5  and  C_6
REMARK    3  A    between atoms: N_8  and  C_9
REMARK    4  A    between atoms: C_9  and  C_10
REMARK    5  A    between atoms: C_10  and  C_11
REMARK                            x       y       z     vdW  Elec       q    Type
REMARK                         _______ _______ _______ _____ _____    ______ ____
ROOT
ATOM      1  C   UNL     1      33.465  -5.796  32.536  0.00  0.00    +0.000 C 
ENDROOT
BRANCH   1   2
ATOM      2  C   UNL     1      34.994  -6.116  32.012  0.00  0.00    +0.000 C 
ATOM      3  C   UNL     1      34.919  -7.707  32.404  0.00  0.00    +0.000 C 
ATOM      4  N   UNL     1      35.633  -8.162  31.219  0.00  0.00    +0.000 NA
ATOM      5  C   UNL     1      34.994  -7.544  30.091  0.00  0.00    +0.000 A 
ATOM      6  C   UNL     1      34.764  -7.950  28.797  0.00  0.00    +0.000 A 
ATOM      7  C   UNL     1      34.085  -7.096  27.945  0.00  0.00    +0.000 A 
ATOM      8  C   UNL     1      33.643  -5.865  28.369  0.00  0.00    +0.000 A 
ATOM      9  C   UNL     1      33.881  -5.473  29.667  0.00  0.00    +0.000 A 
ATOM     10  C   UNL     1      34.558  -6.336  30.497  0.00  0.00    +0.000 A 
ENDBRANCH   1   2
BRANCH   1  11
ATOM     11  C   UNL     1      33.575  -4.880  33.677  0.00  0.00    +0.000 C 
BRANCH  11  14
ATOM     12  C   UNL     1      32.897  -2.633  34.336  0.00  0.00    +0.000 C 
ATOM     13  O   UNL     1      32.428  -3.111  35.418  0.00  0.00    +0.000 OA
ATOM     14  N   UNL     1      33.515  -3.484  33.367  0.00  0.00    +0.000 NA
BRANCH  12  15
ATOM     15  O   UNL     1      32.769  -1.267  34.170  0.00  0.00    +0.000 OA
BRANCH  15  17
ATOM     16  C   UNL     1      34.321  -0.100  32.840  0.00  0.00    +0.000 C 
ATOM     17  C   UNL     1      33.900  -0.387  34.283  0.00  0.00    +0.000 C 
ATOM     18  C   UNL     1      35.008  -1.038  35.057  0.00  0.00    +0.000 C 
ATOM     19  C   UNL     1      33.431   0.896  34.898  0.00  0.00    +0.000 C 
ENDBRANCH  15  17
ENDBRANCH  12  15
ENDBRANCH  11  14
ENDBRANCH   1  11
TORSDOF 5
ENDMDL
MODEL 2
REMARK VINA RESULT:      -5.7     28.094     29.374
REMARK  Name = 
REMARK  5 active torsions:
REMARK  status: ('A' for Active; 'I' for Inactive)
REMARK    1  A    between atoms: C_2  and  O_5
REMARK    2  A    between atoms: O_5  and  C_6
REMARK    3  A    between atoms: N_8  and  C_9
REMARK    4  A    between atoms: C_9  and  C_10
REMARK    5  A    between atoms: C_10  and  C_11
REMARK                            x       y       z     vdW  Elec       q    Type
REMARK                         _______ _______ _______ _____ _____    ______ ____
ROOT
ATOM      1  C   UNL     1      28.920  23.249  28.482  0.00  0.00    +0.000 C 
ENDROOT
BRANCH   1   2
ATOM      2  C   UNL     1      28.128  22.186  27.503  0.00  0.00    +0.000 C 
ATOM      3  C   UNL     1      26.922  23.238  27.144  0.00  0.00    +0.000 C 
ATOM      4  N   UNL     1      26.829  22.848  25.743  0.00  0.00    +0.000 NA
ATOM      5  C   UNL     1      28.164  22.889  25.215  0.00  0.00    +0.000 A 
ATOM      6  C   UNL     1      28.682  23.210  23.982  0.00  0.00    +0.000 A 
ATOM      7  C   UNL     1      30.054  23.163  23.807  0.00  0.00    +0.000 A 
ATOM      8  C   UNL     1      30.895  22.806  24.835  0.00  0.00    +0.000 A 
ATOM      9  C   UNL     1      30.361  22.488  26.063  0.00  0.00    +0.000 A 
ATOM     10  C   UNL     1      28.995  22.540  26.216  0.00  0.00    +0.000 A 
ENDBRANCH   1   2
BRANCH   1  11
ATOM     11  C   UNL     1      28.522  22.954  29.863  0.00  0.00    +0.000 C 
BRANCH  11  14
ATOM     12  C   UNL     1      26.491  23.838  30.882  0.00  0.00    +0.000 C 
ATOM     13  O   UNL     1      25.879  22.775  30.542  0.00  0.00    +0.000 OA
ATOM     14  N   UNL     1      27.874  24.018  30.569  0.00  0.00    +0.000 NA
BRANCH  12  15
ATOM     15  O   UNL     1      25.741  24.780  31.559  0.00  0.00    +0.000 OA
BRANCH  15  17
ATOM     16  C   UNL     1      26.306  27.010  31.064  0.00  0.00    +0.000 C 
ATOM     17  C   UNL     1      25.221  25.946  30.897  0.00  0.00    +0.000 C 
ATOM     18  C   UNL     1      23.927  26.381  31.518  0.00  0.00    +0.000 C 
ATOM     19  C   UNL     1      25.093  25.632  29.438  0.00  0.00    +0.000 C 
ENDBRANCH  15  17
ENDBRANCH  12  15
ENDBRANCH  11  14
ENDBRANCH   1  11
TORSDOF 5
ENDMDL
MODEL 3
REMARK VINA RESULT:      -5.4     27.861     30.293
REMARK  Name = 
REMARK  5 active torsions:
REMARK  status: ('A' for Active; 'I' for Inactive)
REMARK    1  A    between atoms: C_2  and  O_5
REMARK    2  A    between atoms: O_5  and  C_6
REMARK    3  A    between atoms: N_8  and  C_9
REMARK    4  A    between atoms: C_9  and  C_10
REMARK    5  A    between atoms: C_10  and  C_11
REMARK                            x       y       z     vdW  Elec       q    Type
REMARK                         _______ _______ _______ _____ _____    ______ ____
ROOT
ATOM      1  C   UNL     1      28.742  25.712  22.772  0.00  0.00    +0.000 C 
ENDROOT
BRANCH   1   2
ATOM      2  C   UNL     1      27.174  25.387  22.386  0.00  0.00    +0.000 C 
ATOM      3  C   UNL     1      27.505  23.885  21.816  0.00  0.00    +0.000 C 
ATOM      4  N   UNL     1      26.309  23.271  22.377  0.00  0.00    +0.000 NA
ATOM      5  C   UNL     1      26.261  23.652  23.760  0.00  0.00    +0.000 A 
ATOM      6  C   UNL     1      25.821  23.019  24.899  0.00  0.00    +0.000 A 
ATOM      7  C   UNL     1      25.938  23.677  26.111  0.00  0.00    +0.000 A 
ATOM      8  C   UNL     1      26.482  24.938  26.191  0.00  0.00    +0.000 A 
ATOM      9  C   UNL     1      26.917  25.559  25.042  0.00  0.00    +0.000 A 
ATOM     10  C   UNL     1      26.791  24.887  23.848  0.00  0.00    +0.000 A 
ENDBRANCH   1   2
BRANCH   1  11
ATOM     11  C   UNL     1      29.506  24.473  22.584  0.00  0.00    +0.000 C 
BRANCH  11  14
ATOM     12  C   UNL     1      30.397  23.207  24.467  0.00  0.00    +0.000 C 
ATOM     13  O   UNL     1      29.329  22.515  24.485  0.00  0.00    +0.000 OA
ATOM     14  N   UNL     1      30.577  24.252  23.508  0.00  0.00    +0.000 NA
BRANCH  12  15
ATOM     15  O   UNL     1      31.347  22.882  25.417  0.00  0.00    +0.000 OA
BRANCH  15  17
ATOM     16  C   UNL     1      31.022  22.131  27.624  0.00  0.00    +0.000 C 
ATOM     17  C   UNL     1      31.261  23.374  26.766  0.00  0.00    +0.000 C 
ATOM     18  C   UNL     1      30.137  24.359  26.904  0.00  0.00    +0.000 C 
ATOM     19  C   UNL     1      32.592  23.952  27.136  0.00  0.00    +0.000 C 
ENDBRANCH  15  17
ENDBRANCH  12  15
ENDBRANCH  11  14
ENDBRANCH   1  11
TORSDOF 5
ENDMDL
MODEL 4
REMARK VINA RESULT:      -5.4     27.317     29.463
REMARK  Name = 
REMARK  5 active torsions:
REMARK  status: ('A' for Active; 'I' for Inactive)
REMARK    1  A    between atoms: C_2  and  O_5
REMARK    2  A    between atoms: O_5  and  C_6
REMARK    3  A    between atoms: N_8  and  C_9
REMARK    4  A    between atoms: C_9  and  C_10
REMARK    5  A    between atoms: C_10  and  C_11
REMARK                            x       y       z     vdW  Elec       q    Type
REMARK                         _______ _______ _______ _____ _____    ______ ____
ROOT
ATOM      1  C   UNL     1      26.340  24.352  25.852  0.00  0.00    +0.000 C 
ENDROOT
BRANCH   1   2
ATOM      2  C   UNL     1      26.583  23.024  24.907  0.00  0.00    +0.000 C 
ATOM      3  C   UNL     1      25.357  23.387  23.881  0.00  0.00    +0.000 C 
ATOM      4  N   UNL     1      26.069  22.972  22.681  0.00  0.00    +0.000 NA
ATOM      5  C   UNL     1      27.351  23.618  22.719  0.00  0.00    +0.000 A 
ATOM      6  C   UNL     1      28.186  24.119  21.747  0.00  0.00    +0.000 A 
ATOM      7  C   UNL     1      29.374  24.712  22.135  0.00  0.00    +0.000 A 
ATOM      8  C   UNL     1      29.727  24.807  23.461  0.00  0.00    +0.000 A 
ATOM      9  C   UNL     1      28.882  24.301  24.422  0.00  0.00    +0.000 A 
ATOM     10  C   UNL     1      27.706  23.715  24.015  0.00  0.00    +0.000 A 
ENDBRANCH   1   2
BRANCH   1  11
ATOM     11  C   UNL     1      26.449  23.921  27.250  0.00  0.00    +0.000 C 
BRANCH  11  14
ATOM     12  C   UNL     1      28.394  22.822  28.226  0.00  0.00    +0.000 C 
ATOM     13  O   UNL     1      27.828  21.697  28.043  0.00  0.00    +0.000 OA
ATOM     14  N   UNL     1      27.748  24.038  27.842  0.00  0.00    +0.000 NA
BRANCH  12  15
ATOM     15  O   UNL     1      29.647  22.784  28.808  0.00  0.00    +0.000 OA
BRANCH  15  17
ATOM     16  C   UNL     1      31.310  24.166  27.880  0.00  0.00    +0.000 C 
ATOM     17  C   UNL     1      30.844  22.716  28.013  0.00  0.00    +0.000 C 
ATOM     18  C   UNL     1      30.560  22.106  26.672  0.00  0.00    +0.000 C 
ATOM     19  C   UNL     1      31.876  21.960  28.792  0.00  0.00    +0.000 C 
ENDBRANCH  15  17
ENDBRANCH  12  15
ENDBRANCH  11  14
ENDBRANCH   1  11
TORSDOF 5
ENDMDL
MODEL 5
REMARK VINA RESULT:      -5.4     28.615     31.870
REMARK  Name = 
REMARK  5 active torsions:
REMARK  status: ('A' for Active; 'I' for Inactive)
REMARK    1  A    between atoms: C_2  and  O_5
REMARK    2  A    between atoms: O_5  and  C_6
REMARK    3  A    between atoms: N_8  and  C_9
REMARK    4  A    between atoms: C_9  and  C_10
REMARK    5  A    between atoms: C_10  and  C_11
REMARK                            x       y       z     vdW  Elec       q    Type
REMARK                         _______ _______ _______ _____ _____    ______ ____
ROOT
ATOM      1  C   UNL     1      27.903  24.885  23.231  0.00  0.00    +0.000 C 
ENDROOT
BRANCH   1   2
ATOM      2  C   UNL     1      28.710  23.456  23.093  0.00  0.00    +0.000 C 
ATOM      3  C   UNL     1      30.182  24.130  23.353  0.00  0.00    +0.000 C 
ATOM      4  N   UNL     1      30.681  23.032  24.171  0.00  0.00    +0.000 NA
ATOM      5  C   UNL     1      29.684  22.780  25.172  0.00  0.00    +0.000 A 
ATOM      6  C   UNL     1      29.745  22.369  26.484  0.00  0.00    +0.000 A 
ATOM      7  C   UNL     1      28.565  22.238  27.194  0.00  0.00    +0.000 A 
ATOM      8  C   UNL     1      27.348  22.511  26.615  0.00  0.00    +0.000 A 
ATOM      9  C   UNL     1      27.302  22.921  25.302  0.00  0.00    +0.000 A 
ATOM     10  C   UNL     1      28.487  23.044  24.614  0.00  0.00    +0.000 A 
ENDBRANCH   1   2
BRANCH   1  11
ATOM     11  C   UNL     1      27.627  25.366  21.873  0.00  0.00    +0.000 C 
BRANCH  11  14
ATOM     12  C   UNL     1      29.386  26.416  20.551  0.00  0.00    +0.000 C 
ATOM     13  O   UNL     1      29.707  25.269  20.101  0.00  0.00    +0.000 OA
ATOM     14  N   UNL     1      28.311  26.562  21.481  0.00  0.00    +0.000 NA
BRANCH  12  15
ATOM     15  O   UNL     1      30.133  27.481  20.085  0.00  0.00    +0.000 OA
BRANCH  15  17
ATOM     16  C   UNL     1      30.701  29.388  18.828  0.00  0.00    +0.000 C 
ATOM     17  C   UNL     1      29.807  28.146  18.853  0.00  0.00    +0.000 C 
ATOM     18  C   UNL     1      28.354  28.517  18.814  0.00  0.00    +0.000 C 
ATOM     19  C   UNL     1      30.214  27.253  17.721  0.00  0.00    +0.000 C 
ENDBRANCH  15  17
ENDBRANCH  12  15
ENDBRANCH  11  14
ENDBRANCH   1  11
TORSDOF 5
ENDMDL
MODEL 6
REMARK VINA RESULT:      -5.3     18.837     21.941
REMARK  Name = 
REMARK  5 active torsions:
REMARK  status: ('A' for Active; 'I' for Inactive)
REMARK    1  A    between atoms: C_2  and  O_5
REMARK    2  A    between atoms: O_5  and  C_6
REMARK    3  A    between atoms: N_8  and  C_9
REMARK    4  A    between atoms: C_9  and  C_10
REMARK    5  A    between atoms: C_10  and  C_11
REMARK                            x       y       z     vdW  Elec       q    Type
REMARK                         _______ _______ _______ _____ _____    ______ ____
ROOT
ATOM      1  C   UNL     1      20.829  10.502  38.976  0.00  0.00    +0.000 C 
ENDROOT
BRANCH   1   2
ATOM      2  C   UNL     1      21.332  11.796  38.090  0.00  0.00    +0.000 C 
ATOM      3  C   UNL     1      22.268  12.402  39.292  0.00  0.00    +0.000 C 
ATOM      4  N   UNL     1      23.353  12.813  38.412  0.00  0.00    +0.000 NA
ATOM      5  C   UNL     1      23.670  11.678  37.592  0.00  0.00    +0.000 A 
ATOM      6  C   UNL     1      24.841  11.203  37.049  0.00  0.00    +0.000 A 
ATOM      7  C   UNL     1      24.802  10.038  36.302  0.00  0.00    +0.000 A 
ATOM      8  C   UNL     1      23.623   9.358  36.099  0.00  0.00    +0.000 A 
ATOM      9  C   UNL     1      22.460   9.846  36.648  0.00  0.00    +0.000 A 
ATOM     10  C   UNL     1      22.521  11.005  37.387  0.00  0.00    +0.000 A 
ENDBRANCH   1   2
BRANCH   1  11
ATOM     11  C   UNL     1      19.384  10.646  39.183  0.00  0.00    +0.000 C 
BRANCH  11  14
ATOM     12  C   UNL     1      18.008  10.412  37.184  0.00  0.00    +0.000 C 
ATOM     13  O   UNL     1      18.079   9.147  37.305  0.00  0.00    +0.000 OA
ATOM     14  N   UNL     1      18.659  11.275  38.120  0.00  0.00    +0.000 NA
BRANCH  12  15
ATOM     15  O   UNL     1      17.274  10.879  36.110  0.00  0.00    +0.000 OA
BRANCH  15  17
ATOM     16  C   UNL     1      15.369  11.046  37.483  0.00  0.00    +0.000 C 
ATOM     17  C   UNL     1      16.095  11.682  36.297  0.00  0.00    +0.000 C 
ATOM     18  C   UNL     1      15.242  11.672  35.063  0.00  0.00    +0.000 C 
ATOM     19  C   UNL     1      16.529  13.059  36.696  0.00  0.00    +0.000 C 
ENDBRANCH  15  17
ENDBRANCH  12  15
ENDBRANCH  11  14
ENDBRANCH   1  11
TORSDOF 5
ENDMDL
MODEL 7
REMARK VINA RESULT:      -5.3     28.555     29.942
REMARK  Name = 
REMARK  5 active torsions:
REMARK  status: ('A' for Active; 'I' for Inactive)
REMARK    1  A    between atoms: C_2  and  O_5
REMARK    2  A    between atoms: O_5  and  C_6
REMARK    3  A    between atoms: N_8  and  C_9
REMARK    4  A    between atoms: C_9  and  C_10
REMARK    5  A    between atoms: C_10  and  C_11
REMARK                            x       y       z     vdW  Elec       q    Type
REMARK                         _______ _______ _______ _____ _____    ______ ____
ROOT
ATOM      1  C   UNL     1      26.527  24.907  25.105  0.00  0.00    +0.000 C 
ENDROOT
BRANCH   1   2
ATOM      2  C   UNL     1      26.705  23.477  24.307  0.00  0.00    +0.000 C 
ATOM      3  C   UNL     1      27.358  24.172  22.973  0.00  0.00    +0.000 C 
ATOM      4  N   UNL     1      28.340  23.118  22.750  0.00  0.00    +0.000 NA
ATOM      5  C   UNL     1      29.010  22.910  24.003  0.00  0.00    +0.000 A 
ATOM      6  C   UNL     1      30.299  22.564  24.338  0.00  0.00    +0.000 A 
ATOM      7  C   UNL     1      30.631  22.462  25.677  0.00  0.00    +0.000 A 
ATOM      8  C   UNL     1      29.703  22.699  26.665  0.00  0.00    +0.000 A 
ATOM      9  C   UNL     1      28.418  23.044  26.314  0.00  0.00    +0.000 A 
ATOM     10  C   UNL     1      28.109  23.139  24.977  0.00  0.00    +0.000 A 
ENDBRANCH   1   2
BRANCH   1  11
ATOM     11  C   UNL     1      25.220  24.878  25.772  0.00  0.00    +0.000 C 
BRANCH  11  14
ATOM     12  C   UNL     1      25.241  25.289  28.175  0.00  0.00    +0.000 C 
ATOM     13  O   UNL     1      25.280  26.540  27.943  0.00  0.00    +0.000 OA
ATOM     14  N   UNL     1      25.207  24.346  27.101  0.00  0.00    +0.000 NA
BRANCH  12  15
ATOM     15  O   UNL     1      25.233  24.919  29.506  0.00  0.00    +0.000 OA
BRANCH  15  17
ATOM     16  C   UNL     1      26.374  22.961  30.142  0.00  0.00    +0.000 C 
ATOM     17  C   UNL     1      26.431  24.489  30.175  0.00  0.00    +0.000 C 
ATOM     18  C   UNL     1      26.471  25.005  31.584  0.00  0.00    +0.000 C 
ATOM     19  C   UNL     1      27.605  24.932  29.357  0.00  0.00    +0.000 C 
ENDBRANCH  15  17
ENDBRANCH  12  15
ENDBRANCH  11  14
ENDBRANCH   1  11
TORSDOF 5
ENDMDL
MODEL 8
REMARK VINA RESULT:      -5.3     15.310     17.111
REMARK  Name = 
REMARK  5 active torsions:
REMARK  status: ('A' for Active; 'I' for Inactive)
REMARK    1  A    between atoms: C_2  and  O_5
REMARK    2  A    between atoms: O_5  and  C_6
REMARK    3  A    between atoms: N_8  and  C_9
REMARK    4  A    between atoms: C_9  and  C_10
REMARK    5  A    between atoms: C_10  and  C_11
REMARK                            x       y       z     vdW  Elec       q    Type
REMARK                         _______ _______ _______ _____ _____    ______ ____
ROOT
ATOM      1  C   UNL     1      19.538  -8.828  27.165  0.00  0.00    +0.000 C 
ENDROOT
BRANCH   1   2
ATOM      2  C   UNL     1      18.343  -7.923  27.851  0.00  0.00    +0.000 C 
ATOM      3  C   UNL     1      18.391  -6.769  26.686  0.00  0.00    +0.000 C 
ATOM      4  N   UNL     1      16.947  -6.582  26.635  0.00  0.00    +0.000 NA
ATOM      5  C   UNL     1      16.368  -7.889  26.499  0.00  0.00    +0.000 A 
ATOM      6  C   UNL     1      15.253  -8.364  25.848  0.00  0.00    +0.000 A 
ATOM      7  C   UNL     1      14.982  -9.720  25.902  0.00  0.00    +0.000 A 
ATOM      8  C   UNL     1      15.801 -10.587  26.587  0.00  0.00    +0.000 A 
ATOM      9  C   UNL     1      16.912 -10.096  27.234  0.00  0.00    +0.000 A 
ATOM     10  C   UNL     1      17.163  -8.745  27.168  0.00  0.00    +0.000 A 
ENDBRANCH   1   2
BRANCH   1  11
ATOM     11  C   UNL     1      20.031  -8.090  25.997  0.00  0.00    +0.000 C 
BRANCH  11  14
ATOM     12  C   UNL     1      22.007  -6.964  25.120  0.00  0.00    +0.000 C 
ATOM     13  O   UNL     1      21.261  -6.027  24.690  0.00  0.00    +0.000 OA
ATOM     14  N   UNL     1      21.451  -8.083  25.815  0.00  0.00    +0.000 NA
BRANCH  12  15
ATOM     15  O   UNL     1      23.360  -6.825  24.872  0.00  0.00    +0.000 OA
BRANCH  15  17
ATOM     16  C   UNL     1      23.075  -7.480  22.630  0.00  0.00    +0.000 C 
ATOM     17  C   UNL     1      24.015  -7.571  23.832  0.00  0.00    +0.000 C 
ATOM     18  C   UNL     1      24.231  -8.996  24.252  0.00  0.00    +0.000 C 
ATOM     19  C   UNL     1      25.290  -6.865  23.486  0.00  0.00    +0.000 C 
ENDBRANCH  15  17
ENDBRANCH  12  15
ENDBRANCH  11  14
ENDBRANCH   1  11
TORSDOF 5
ENDMDL
MODEL 9
REMARK VINA RESULT:      -5.2      2.165      7.192
REMARK  Name = 
REMARK  5 active torsions:
REMARK  status: ('A' for Active; 'I' for Inactive)
REMARK    1  A    between atoms: C_2  and  O_5
REMARK    2  A    between atoms: O_5  and  C_6
REMARK    3  A    between atoms: N_8  and  C_9
REMARK    4  A    between atoms: C_9  and  C_10
REMARK    5  A    between atoms: C_10  and  C_11
REMARK                            x       y       z     vdW  Elec       q    Type
REMARK                         _______ _______ _______ _____ _____    ______ ____
ROOT
ATOM      1  C   UNL     1      34.290  -2.765  34.484  0.00  0.00    +0.000 C 
ENDROOT
BRANCH   1   2
ATOM      2  C   UNL     1      32.841  -2.000  34.663  0.00  0.00    +0.000 C 
ATOM      3  C   UNL     1      33.145  -1.540  36.207  0.00  0.00    +0.000 C 
ATOM      4  N   UNL     1      32.539  -0.222  36.067  0.00  0.00    +0.000 NA
ATOM      5  C   UNL     1      33.108   0.368  34.888  0.00  0.00    +0.000 A 
ATOM      6  C   UNL     1      33.431   1.659  34.539  0.00  0.00    +0.000 A 
ATOM      7  C   UNL     1      33.997   1.889  33.298  0.00  0.00    +0.000 A 
ATOM      8  C   UNL     1      34.237   0.859  32.419  0.00  0.00    +0.000 A 
ATOM      9  C   UNL     1      33.907  -0.428  32.781  0.00  0.00    +0.000 A 
ATOM     10  C   UNL     1      33.346  -0.634  34.020  0.00  0.00    +0.000 A 
ENDBRANCH   1   2
BRANCH   1  11
ATOM     11  C   UNL     1      34.009  -4.150  34.091  0.00  0.00    +0.000 C 
BRANCH  11  14
ATOM     12  C   UNL     1      33.228  -5.657  32.341  0.00  0.00    +0.000 C 
ATOM     13  O   UNL     1      33.089  -6.572  33.215  0.00  0.00    +0.000 OA
ATOM     14  N   UNL     1      33.703  -4.360  32.708  0.00  0.00    +0.000 NA
BRANCH  12  15
ATOM     15  O   UNL     1      32.895  -6.001  31.045  0.00  0.00    +0.000 OA
BRANCH  15  17
ATOM     16  C   UNL     1      33.162  -7.750  29.494  0.00  0.00    +0.000 C 
ATOM     17  C   UNL     1      33.865  -6.556  30.140  0.00  0.00    +0.000 C 
ATOM     18  C   UNL     1      35.100  -6.982  30.878  0.00  0.00    +0.000 C 
ATOM     19  C   UNL     1      34.141  -5.541  29.074  0.00  0.00    +0.000 C 
ENDBRANCH  15  17
ENDBRANCH  12  15
ENDBRANCH  11  14
ENDBRANCH   1  11
TORSDOF 5
ENDMDL
MODEL 10
REMARK VINA RESULT:      -5.2     27.828     30.059
REMARK  Name = 
REMARK  5 active torsions:
REMARK  status: ('A' for Active; 'I' for Inactive)
REMARK    1  A    between atoms: C_2  and  O_5
REMARK    2  A    between atoms: O_5  and  C_6
REMARK    3  A    between atoms: N_8  and  C_9
REMARK    4  A    between atoms: C_9  and  C_10
REMARK    5  A    between atoms: C_10  and  C_11
REMARK                            x       y       z     vdW  Elec       q    Type
REMARK                         _______ _______ _______ _____ _____    ______ ____
ROOT
ATOM      1  C   UNL     1      28.112  24.069  29.675  0.00  0.00    +0.000 C 
ENDROOT
BRANCH   1   2
ATOM      2  C   UNL     1      26.674  23.717  30.399  0.00  0.00    +0.000 C 
ATOM      3  C   UNL     1      26.778  24.958  31.467  0.00  0.00    +0.000 C 
ATOM      4  N   UNL     1      25.365  25.303  31.396  0.00  0.00    +0.000 NA
ATOM      5  C   UNL     1      25.040  25.420  30.003  0.00  0.00    +0.000 A 
ATOM      6  C   UNL     1      24.172  26.223  29.300  0.00  0.00    +0.000 A 
ATOM      7  C   UNL     1      24.113  26.091  27.924  0.00  0.00    +0.000 A 
ATOM      8  C   UNL     1      24.899  25.180  27.258  0.00  0.00    +0.000 A 
ATOM      9  C   UNL     1      25.762  24.383  27.975  0.00  0.00    +0.000 A 
ATOM     10  C   UNL     1      25.805  24.531  29.342  0.00  0.00    +0.000 A 
ENDBRANCH   1   2
BRANCH   1  11
ATOM     11  C   UNL     1      28.838  22.806  29.505  0.00  0.00    +0.000 C 
BRANCH  11  14
ATOM     12  C   UNL     1      29.150  22.232  27.156  0.00  0.00    +0.000 C 
ATOM     13  O   UNL     1      27.931  21.873  27.100  0.00  0.00    +0.000 OA
ATOM     14  N   UNL     1      29.711  22.732  28.372  0.00  0.00    +0.000 NA
BRANCH  12  15
ATOM     15  O   UNL     1      29.875  22.107  25.986  0.00  0.00    +0.000 OA
BRANCH  15  17
ATOM     16  C   UNL     1      31.494  23.140  24.625  0.00  0.00    +0.000 C 
ATOM     17  C   UNL     1      30.035  23.210  25.078  0.00  0.00    +0.000 C 
ATOM     18  C   UNL     1      29.736  24.512  25.762  0.00  0.00    +0.000 C 
ATOM     19  C   UNL     1      29.161  22.962  23.887  0.00  0.00    +0.000 C 
ENDBRANCH  15  17
ENDBRANCH  12  15
ENDBRANCH  11  14
ENDBRANCH   1  11
TORSDOF 5
ENDMDL
