MODEL 1
REMARK VINA RESULT:      -6.8      0.000      0.000
REMARK  Name = 
REMARK  3 active torsions:
REMARK  status: ('A' for Active; 'I' for Inactive)
REMARK    1  A    between atoms: C_4  and  N_5
REMARK    2  A    between atoms: C_6  and  C_8
REMARK    3  A    between atoms: C_12  and  N_13
REMARK                            x       y       z     vdW  Elec       q    Type
REMARK                         _______ _______ _______ _____ _____    ______ ____
ROOT
ATOM      1  N   UNL     1      28.104  23.711  25.612  0.00  0.00    +0.000 NA
ATOM      2  C   UNL     1      28.940  22.857  26.388  0.00  0.00    +0.000 C 
ATOM      3  O   UNL     1      29.690  22.089  25.729  0.00  0.00    +0.000 OA
ENDROOT
BRANCH   1   7
ATOM      4  C   UNL     1      28.860  25.953  24.889  0.00  0.00    +0.000 C 
ATOM      5  C   UNL     1      28.974  25.034  23.828  0.00  0.00    +0.000 C 
ATOM      6  C   UNL     1      30.412  24.668  23.488  0.00  0.00    +0.000 C 
ATOM      7  C   UNL     1      28.258  23.584  24.044  0.00  0.00    +0.000 C 
ATOM      8  C   UNL     1      26.754  24.183  23.705  0.00  0.00    +0.000 C 
ATOM      9  C   UNL     1      25.786  23.151  23.983  0.00  0.00    +0.000 C 
ATOM     10  C   UNL     1      26.642  25.498  24.275  0.00  0.00    +0.000 C 
ATOM     11  C   UNL     1      27.093  26.432  23.199  0.00  0.00    +0.000 C 
ATOM     12  C   UNL     1      28.266  25.513  22.446  0.00  0.00    +0.000 C 
ATOM     13  C   UNL     1      27.223  24.240  22.292  0.00  0.00    +0.000 C 
ENDBRANCH   1   7
BRANCH   2  14
ATOM     14  C   UNL     1      28.989  22.806  27.819  0.00  0.00    +0.000 A 
ATOM     15  C   UNL     1      30.128  22.785  28.607  0.00  0.00    +0.000 A 
ATOM     16  C   UNL     1      30.077  22.697  29.997  0.00  0.00    +0.000 A 
ATOM     17  C   UNL     1      28.858  22.630  30.617  0.00  0.00    +0.000 A 
ATOM     18  C   UNL     1      27.670  22.649  29.878  0.00  0.00    +0.000 A 
ATOM     19  C   UNL     1      27.803  22.737  28.551  0.00  0.00    +0.000 A 
BRANCH  18  20
ATOM     20  N   UNL     1      26.406  22.585  30.537  0.00  0.00    +0.000 N 
ATOM     21  O   UNL     1      25.843  23.657  30.797  0.00  0.00    +0.000 OA
ATOM     22  O   UNL     1      25.797  21.415  30.905  0.00  0.00    +0.000 OA
ENDBRANCH  18  20
ENDBRANCH   2  14
TORSDOF 3
ENDMDL
MODEL 2
REMARK VINA RESULT:      -6.7     19.499     22.691
REMARK  Name = 
REMARK  3 active torsions:
REMARK  status: ('A' for Active; 'I' for Inactive)
REMARK    1  A    between atoms: C_4  and  N_5
REMARK    2  A    between atoms: C_6  and  C_8
REMARK    3  A    between atoms: C_12  and  N_13
REMARK                            x       y       z     vdW  Elec       q    Type
REMARK                         _______ _______ _______ _____ _____    ______ ____
ROOT
ATOM      1  N   UNL     1      17.734   8.849  39.493  0.00  0.00    +0.000 NA
ATOM      2  C   UNL     1      18.128   9.880  38.592  0.00  0.00    +0.000 C 
ATOM      3  O   UNL     1      18.874  10.770  39.080  0.00  0.00    +0.000 OA
ENDROOT
BRANCH   1   7
ATOM      4  C   UNL     1      18.655   6.602  39.964  0.00  0.00    +0.000 C 
ATOM      5  C   UNL     1      19.054   7.512  40.962  0.00  0.00    +0.000 C 
ATOM      6  C   UNL     1      20.531   7.878  40.901  0.00  0.00    +0.000 C 
ATOM      7  C   UNL     1      18.308   8.962  40.961  0.00  0.00    +0.000 C 
ATOM      8  C   UNL     1      16.952   8.358  41.691  0.00  0.00    +0.000 C 
ATOM      9  C   UNL     1      15.946   9.391  41.695  0.00  0.00    +0.000 C 
ATOM     10  C   UNL     1      16.688   7.048  41.161  0.00  0.00    +0.000 C 
ATOM     11  C   UNL     1      17.414   6.105  42.066  0.00  0.00    +0.000 C 
ATOM     12  C   UNL     1      18.748   7.019  42.480  0.00  0.00    +0.000 C 
ATOM     13  C   UNL     1      17.787   8.290  42.923  0.00  0.00    +0.000 C 
ENDBRANCH   1   7
BRANCH   2  14
ATOM     14  C   UNL     1      17.750   9.979  37.213  0.00  0.00    +0.000 A 
ATOM     15  C   UNL     1      18.343   9.329  36.144  0.00  0.00    +0.000 A 
ATOM     16  C   UNL     1      17.929   9.517  34.828  0.00  0.00    +0.000 A 
ATOM     17  C   UNL     1      16.894  10.376  34.570  0.00  0.00    +0.000 A 
ATOM     18  C   UNL     1      16.250  11.062  35.606  0.00  0.00    +0.000 A 
ATOM     19  C   UNL     1      16.706  10.826  36.840  0.00  0.00    +0.000 A 
BRANCH  18  20
ATOM     20  N   UNL     1      15.168  11.949  35.325  0.00  0.00    +0.000 N 
ATOM     21  O   UNL     1      14.956  12.230  34.138  0.00  0.00    +0.000 OA
ATOM     22  O   UNL     1      14.371  12.507  36.288  0.00  0.00    +0.000 OA
ENDBRANCH  18  20
ENDBRANCH   2  14
TORSDOF 3
ENDMDL
MODEL 3
REMARK VINA RESULT:      -6.5      2.274      3.464
REMARK  Name = 
REMARK  3 active torsions:
REMARK  status: ('A' for Active; 'I' for Inactive)
REMARK    1  A    between atoms: C_4  and  N_5
REMARK    2  A    between atoms: C_6  and  C_8
REMARK    3  A    between atoms: C_12  and  N_13
REMARK                            x       y       z     vdW  Elec       q    Type
REMARK                         _______ _______ _______ _____ _____    ______ ____
ROOT
ATOM      1  N   UNL     1      26.851  25.168  25.357  0.00  0.00    +0.000 NA
ATOM      2  C   UNL     1      25.696  25.245  26.188  0.00  0.00    +0.000 C 
ATOM      3  O   UNL     1      24.609  25.459  25.588  0.00  0.00    +0.000 OA
ENDROOT
BRANCH   1   7
ATOM      4  C   UNL     1      27.765  23.101  24.352  0.00  0.00    +0.000 C 
ATOM      5  C   UNL     1      27.027  23.823  23.395  0.00  0.00    +0.000 C 
ATOM      6  C   UNL     1      25.702  23.170  23.024  0.00  0.00    +0.000 C 
ATOM      7  C   UNL     1      26.595  25.341  23.807  0.00  0.00    +0.000 C 
ATOM      8  C   UNL     1      28.099  25.946  23.482  0.00  0.00    +0.000 C 
ATOM      9  C   UNL     1      28.136  27.319  23.922  0.00  0.00    +0.000 C 
ATOM     10  C   UNL     1      29.084  24.989  23.907  0.00  0.00    +0.000 C 
ATOM     11  C   UNL     1      29.336  24.127  22.713  0.00  0.00    +0.000 C 
ATOM     12  C   UNL     1      27.823  24.106  22.007  0.00  0.00    +0.000 C 
ATOM     13  C   UNL     1      27.739  25.756  22.048  0.00  0.00    +0.000 C 
ENDBRANCH   1   7
BRANCH   2  14
ATOM     14  C   UNL     1      25.678  25.100  27.614  0.00  0.00    +0.000 A 
ATOM     15  C   UNL     1      25.362  26.080  28.540  0.00  0.00    +0.000 A 
ATOM     16  C   UNL     1      25.408  25.855  29.915  0.00  0.00    +0.000 A 
ATOM     17  C   UNL     1      25.779  24.621  30.377  0.00  0.00    +0.000 A 
ATOM     18  C   UNL     1      26.109  23.588  29.492  0.00  0.00    +0.000 A 
ATOM     19  C   UNL     1      26.038  23.882  28.191  0.00  0.00    +0.000 A 
BRANCH  18  20
ATOM     20  N   UNL     1      26.486  22.304  29.988  0.00  0.00    +0.000 N 
ATOM     21  O   UNL     1      27.544  21.818  29.566  0.00  0.00    +0.000 OA
ATOM     22  O   UNL     1      25.742  21.585  30.884  0.00  0.00    +0.000 OA
ENDBRANCH  18  20
ENDBRANCH   2  14
TORSDOF 3
ENDMDL
MODEL 4
REMARK VINA RESULT:      -6.5     27.283     29.295
REMARK  Name = 
REMARK  3 active torsions:
REMARK  status: ('A' for Active; 'I' for Inactive)
REMARK    1  A    between atoms: C_4  and  N_5
REMARK    2  A    between atoms: C_6  and  C_8
REMARK    3  A    between atoms: C_12  and  N_13
REMARK                            x       y       z     vdW  Elec       q    Type
REMARK                         _______ _______ _______ _____ _____    ______ ____
ROOT
ATOM      1  N   UNL     1      32.957  -5.028  33.008  0.00  0.00    +0.000 NA
ATOM      2  C   UNL     1      33.632  -4.178  33.932  0.00  0.00    +0.000 C 
ATOM      3  O   UNL     1      34.675  -4.659  34.449  0.00  0.00    +0.000 OA
ENDROOT
BRANCH   1   7
ATOM      4  C   UNL     1      33.404  -5.061  30.575  0.00  0.00    +0.000 C 
ATOM      5  C   UNL     1      34.046  -6.145  31.204  0.00  0.00    +0.000 C 
ATOM      6  C   UNL     1      35.561  -6.004  31.270  0.00  0.00    +0.000 C 
ATOM      7  C   UNL     1      33.628  -6.435  32.754  0.00  0.00    +0.000 C 
ATOM      8  C   UNL     1      32.220  -7.187  32.320  0.00  0.00    +0.000 C 
ATOM      9  C   UNL     1      31.460  -7.443  33.518  0.00  0.00    +0.000 C 
ATOM     10  C   UNL     1      31.652  -6.490  31.198  0.00  0.00    +0.000 C 
ATOM     11  C   UNL     1      32.211  -7.168  29.990  0.00  0.00    +0.000 C 
ATOM     12  C   UNL     1      33.732  -7.591  30.533  0.00  0.00    +0.000 C 
ATOM     13  C   UNL     1      33.092  -8.311  31.877  0.00  0.00    +0.000 C 
ENDBRANCH   1   7
BRANCH   2  14
ATOM     14  C   UNL     1      33.225  -2.855  34.306  0.00  0.00    +0.000 A 
ATOM     15  C   UNL     1      32.368  -2.515  35.338  0.00  0.00    +0.000 A 
ATOM     16  C   UNL     1      32.000  -1.197  35.604  0.00  0.00    +0.000 A 
ATOM     17  C   UNL     1      32.500  -0.193  34.819  0.00  0.00    +0.000 A 
ATOM     18  C   UNL     1      33.372  -0.471  33.760  0.00  0.00    +0.000 A 
ATOM     19  C   UNL     1      33.679  -1.758  33.573  0.00  0.00    +0.000 A 
BRANCH  18  20
ATOM     20  N   UNL     1      33.893   0.586  32.955  0.00  0.00    +0.000 N 
ATOM     21  O   UNL     1      34.661   0.277  32.035  0.00  0.00    +0.000 OA
ATOM     22  O   UNL     1      33.599   1.909  33.153  0.00  0.00    +0.000 OA
ENDBRANCH  18  20
ENDBRANCH   2  14
TORSDOF 3
ENDMDL
MODEL 5
REMARK VINA RESULT:      -6.5     20.233     21.708
REMARK  Name = 
REMARK  3 active torsions:
REMARK  status: ('A' for Active; 'I' for Inactive)
REMARK    1  A    between atoms: C_4  and  N_5
REMARK    2  A    between atoms: C_6  and  C_8
REMARK    3  A    between atoms: C_12  and  N_13
REMARK                            x       y       z     vdW  Elec       q    Type
REMARK                         _______ _______ _______ _____ _____    ______ ____
ROOT
ATOM      1  N   UNL     1      25.323   4.539  16.951  0.00  0.00    +0.000 NA
ATOM      2  C   UNL     1      24.721   3.391  17.540  0.00  0.00    +0.000 C 
ATOM      3  O   UNL     1      25.521   2.512  17.958  0.00  0.00    +0.000 OA
ENDROOT
BRANCH   1   7
ATOM      4  C   UNL     1      25.923   6.898  17.394  0.00  0.00    +0.000 C 
ATOM      5  C   UNL     1      27.068   6.081  17.470  0.00  0.00    +0.000 C 
ATOM      6  C   UNL     1      27.596   5.898  18.887  0.00  0.00    +0.000 C 
ATOM      7  C   UNL     1      26.903   4.551  16.929  0.00  0.00    +0.000 C 
ATOM      8  C   UNL     1      27.019   5.011  15.345  0.00  0.00    +0.000 C 
ATOM      9  C   UNL     1      26.729   3.863  14.522  0.00  0.00    +0.000 C 
ATOM     10  C   UNL     1      26.326   6.258  15.174  0.00  0.00    +0.000 C 
ATOM     11  C   UNL     1      27.358   7.315  15.401  0.00  0.00    +0.000 C 
ATOM     12  C   UNL     1      28.315   6.588  16.559  0.00  0.00    +0.000 C 
ATOM     13  C   UNL     1      28.465   5.226  15.633  0.00  0.00    +0.000 C 
ENDBRANCH   1   7
BRANCH   2  14
ATOM     14  C   UNL     1      23.313   3.165  17.690  0.00  0.00    +0.000 A 
ATOM     15  C   UNL     1      22.568   2.162  17.093  0.00  0.00    +0.000 A 
ATOM     16  C   UNL     1      21.191   2.044  17.269  0.00  0.00    +0.000 A 
ATOM     17  C   UNL     1      20.539   2.952  18.061  0.00  0.00    +0.000 A 
ATOM     18  C   UNL     1      21.235   3.989  18.693  0.00  0.00    +0.000 A 
ATOM     19  C   UNL     1      22.553   4.031  18.476  0.00  0.00    +0.000 A 
BRANCH  18  20
ATOM     20  N   UNL     1      20.545   4.924  19.521  0.00  0.00    +0.000 N 
ATOM     21  O   UNL     1      21.157   5.943  19.864  0.00  0.00    +0.000 OA
ATOM     22  O   UNL     1      19.260   4.747  19.962  0.00  0.00    +0.000 OA
ENDBRANCH  18  20
ENDBRANCH   2  14
TORSDOF 3
ENDMDL
MODEL 6
REMARK VINA RESULT:      -6.5      1.630      2.139
REMARK  Name = 
REMARK  3 active torsions:
REMARK  status: ('A' for Active; 'I' for Inactive)
REMARK    1  A    between atoms: C_4  and  N_5
REMARK    2  A    between atoms: C_6  and  C_8
REMARK    3  A    between atoms: C_12  and  N_13
REMARK                            x       y       z     vdW  Elec       q    Type
REMARK                         _______ _______ _______ _____ _____    ______ ____
ROOT
ATOM      1  N   UNL     1      27.633  24.303  24.809  0.00  0.00    +0.000 NA
ATOM      2  C   UNL     1      27.627  23.468  25.963  0.00  0.00    +0.000 C 
ATOM      3  O   UNL     1      28.278  22.395  25.859  0.00  0.00    +0.000 OA
ENDROOT
BRANCH   1   7
ATOM      4  C   UNL     1      29.084  26.208  24.188  0.00  0.00    +0.000 C 
ATOM      5  C   UNL     1      29.487  25.044  23.505  0.00  0.00    +0.000 C 
ATOM      6  C   UNL     1      30.807  24.469  24.002  0.00  0.00    +0.000 C 
ATOM      7  C   UNL     1      28.471  23.771  23.580  0.00  0.00    +0.000 C 
ATOM      8  C   UNL     1      27.460  24.404  22.434  0.00  0.00    +0.000 C 
ATOM      9  C   UNL     1      26.284  23.572  22.363  0.00  0.00    +0.000 C 
ATOM     10  C   UNL     1      27.370  25.825  22.633  0.00  0.00    +0.000 C 
ATOM     11  C   UNL     1      28.453  26.410  21.786  0.00  0.00    +0.000 C 
ATOM     12  C   UNL     1      29.623  25.224  21.896  0.00  0.00    +0.000 C 
ATOM     13  C   UNL     1      28.535  24.058  21.461  0.00  0.00    +0.000 C 
ENDBRANCH   1   7
BRANCH   2  14
ATOM     14  C   UNL     1      26.956  23.749  27.198  0.00  0.00    +0.000 A 
ATOM     15  C   UNL     1      26.204  24.873  27.494  0.00  0.00    +0.000 A 
ATOM     16  C   UNL     1      25.618  25.077  28.742  0.00  0.00    +0.000 A 
ATOM     17  C   UNL     1      25.786  24.133  29.720  0.00  0.00    +0.000 A 
ATOM     18  C   UNL     1      26.534  22.974  29.484  0.00  0.00    +0.000 A 
ATOM     19  C   UNL     1      27.061  22.852  28.262  0.00  0.00    +0.000 A 
BRANCH  18  20
ATOM     20  N   UNL     1      26.695  21.995  30.510  0.00  0.00    +0.000 N 
ATOM     21  O   UNL     1      27.844  21.773  30.912  0.00  0.00    +0.000 OA
ATOM     22  O   UNL     1      25.657  21.289  31.058  0.00  0.00    +0.000 OA
ENDBRANCH  18  20
ENDBRANCH   2  14
TORSDOF 3
ENDMDL
MODEL 7
REMARK VINA RESULT:      -6.4      4.599      8.590
REMARK  Name = 
REMARK  3 active torsions:
REMARK  status: ('A' for Active; 'I' for Inactive)
REMARK    1  A    between atoms: C_4  and  N_5
REMARK    2  A    between atoms: C_6  and  C_8
REMARK    3  A    between atoms: C_12  and  N_13
REMARK                            x       y       z     vdW  Elec       q    Type
REMARK                         _______ _______ _______ _____ _____    ______ ____
ROOT
ATOM      1  N   UNL     1      28.751  25.224  22.734  0.00  0.00    +0.000 NA
ATOM      2  C   UNL     1      29.290  25.355  21.422  0.00  0.00    +0.000 C 
ATOM      3  O   UNL     1      29.612  24.275  20.858  0.00  0.00    +0.000 OA
ENDROOT
BRANCH   1   7
ATOM      4  C   UNL     1      26.911  25.347  24.383  0.00  0.00    +0.000 C 
ATOM      5  C   UNL     1      27.242  24.003  24.121  0.00  0.00    +0.000 C 
ATOM      6  C   UNL     1      26.188  23.260  23.310  0.00  0.00    +0.000 C 
ATOM      7  C   UNL     1      28.615  23.747  23.277  0.00  0.00    +0.000 C 
ATOM      8  C   UNL     1      29.573  23.994  24.602  0.00  0.00    +0.000 C 
ATOM      9  C   UNL     1      30.947  24.015  24.165  0.00  0.00    +0.000 C 
ATOM     10  C   UNL     1      29.013  25.062  25.384  0.00  0.00    +0.000 C 
ATOM     11  C   UNL     1      28.095  24.396  26.358  0.00  0.00    +0.000 C 
ATOM     12  C   UNL     1      27.536  23.113  25.448  0.00  0.00    +0.000 C 
ATOM     13  C   UNL     1      29.080  22.665  25.063  0.00  0.00    +0.000 C 
ENDBRANCH   1   7
BRANCH   2  14
ATOM     14  C   UNL     1      29.490  26.586  20.715  0.00  0.00    +0.000 A 
ATOM     15  C   UNL     1      29.202  27.860  21.176  0.00  0.00    +0.000 A 
ATOM     16  C   UNL     1      29.396  29.000  20.399  0.00  0.00    +0.000 A 
ATOM     17  C   UNL     1      29.891  28.866  19.129  0.00  0.00    +0.000 A 
ATOM     18  C   UNL     1      30.203  27.606  18.605  0.00  0.00    +0.000 A 
ATOM     19  C   UNL     1      29.991  26.564  19.414  0.00  0.00    +0.000 A 
BRANCH  18  20
ATOM     20  N   UNL     1      30.725  27.482  17.283  0.00  0.00    +0.000 N 
ATOM     21  O   UNL     1      31.854  27.941  17.069  0.00  0.00    +0.000 OA
ATOM     22  O   UNL     1      30.043  26.900  16.247  0.00  0.00    +0.000 OA
ENDBRANCH  18  20
ENDBRANCH   2  14
TORSDOF 3
ENDMDL
MODEL 8
REMARK VINA RESULT:      -6.4     19.812     23.555
REMARK  Name = 
REMARK  3 active torsions:
REMARK  status: ('A' for Active; 'I' for Inactive)
REMARK    1  A    between atoms: C_4  and  N_5
REMARK    2  A    between atoms: C_6  and  C_8
REMARK    3  A    between atoms: C_12  and  N_13
REMARK                            x       y       z     vdW  Elec       q    Type
REMARK                         _______ _______ _______ _____ _____    ______ ____
ROOT
ATOM      1  N   UNL     1      17.392   9.434  40.719  0.00  0.00    +0.000 NA
ATOM      2  C   UNL     1      17.750   9.571  39.346  0.00  0.00    +0.000 C 
ATOM      3  O   UNL     1      18.661   8.800  38.944  0.00  0.00    +0.000 OA
ENDROOT
BRANCH   1   7
ATOM      4  C   UNL     1      15.612   8.031  41.709  0.00  0.00    +0.000 C 
ATOM      5  C   UNL     1      16.866   7.410  41.865  0.00  0.00    +0.000 C 
ATOM      6  C   UNL     1      17.055   6.182  40.983  0.00  0.00    +0.000 C 
ATOM      7  C   UNL     1      18.174   8.322  41.525  0.00  0.00    +0.000 C 
ATOM      8  C   UNL     1      18.099   9.118  42.973  0.00  0.00    +0.000 C 
ATOM      9  C   UNL     1      19.065  10.188  42.948  0.00  0.00    +0.000 C 
ATOM     10  C   UNL     1      16.719   9.353  43.300  0.00  0.00    +0.000 C 
ATOM     11  C   UNL     1      16.297   8.164  44.101  0.00  0.00    +0.000 C 
ATOM     12  C   UNL     1      17.205   6.957  43.389  0.00  0.00    +0.000 C 
ATOM     13  C   UNL     1      18.590   7.843  43.567  0.00  0.00    +0.000 C 
ENDBRANCH   1   7
BRANCH   2  14
ATOM     14  C   UNL     1      17.169  10.494  38.416  0.00  0.00    +0.000 A 
ATOM     15  C   UNL     1      17.847  11.328  37.545  0.00  0.00    +0.000 A 
ATOM     16  C   UNL     1      17.194  12.222  36.700  0.00  0.00    +0.000 A 
ATOM     17  C   UNL     1      15.826  12.286  36.724  0.00  0.00    +0.000 A 
ATOM     18  C   UNL     1      15.081  11.468  37.582  0.00  0.00    +0.000 A 
ATOM     19  C   UNL     1      15.782  10.636  38.358  0.00  0.00    +0.000 A 
BRANCH  18  20
ATOM     20  N   UNL     1      13.656  11.539  37.592  0.00  0.00    +0.000 N 
ATOM     21  O   UNL     1      13.056  10.848  38.426  0.00  0.00    +0.000 OA
ATOM     22  O   UNL     1      12.926  12.313  36.729  0.00  0.00    +0.000 OA
ENDBRANCH  18  20
ENDBRANCH   2  14
TORSDOF 3
ENDMDL
MODEL 9
REMARK VINA RESULT:      -6.4     20.682     22.134
REMARK  Name = 
REMARK  3 active torsions:
REMARK  status: ('A' for Active; 'I' for Inactive)
REMARK    1  A    between atoms: C_4  and  N_5
REMARK    2  A    between atoms: C_6  and  C_8
REMARK    3  A    between atoms: C_12  and  N_13
REMARK                            x       y       z     vdW  Elec       q    Type
REMARK                         _______ _______ _______ _____ _____    ______ ____
ROOT
ATOM      1  N   UNL     1      26.135   4.678  17.196  0.00  0.00    +0.000 NA
ATOM      2  C   UNL     1      24.826   4.394  17.680  0.00  0.00    +0.000 C 
ATOM      3  O   UNL     1      24.179   5.386  18.110  0.00  0.00    +0.000 OA
ENDROOT
BRANCH   1   7
ATOM      4  C   UNL     1      27.686   4.934  15.285  0.00  0.00    +0.000 C 
ATOM      5  C   UNL     1      27.355   6.195  15.818  0.00  0.00    +0.000 C 
ATOM      6  C   UNL     1      26.442   7.019  14.919  0.00  0.00    +0.000 C 
ATOM      7  C   UNL     1      26.573   6.195  17.249  0.00  0.00    +0.000 C 
ATOM      8  C   UNL     1      27.961   5.912  18.102  0.00  0.00    +0.000 C 
ATOM      9  C   UNL     1      27.602   5.668  19.477  0.00  0.00    +0.000 C 
ATOM     10  C   UNL     1      28.780   4.992  17.360  0.00  0.00    +0.000 C 
ATOM     11  C   UNL     1      29.657   5.849  16.505  0.00  0.00    +0.000 C 
ATOM     12  C   UNL     1      28.636   7.129  16.177  0.00  0.00    +0.000 C 
ATOM     13  C   UNL     1      28.307   7.327  17.785  0.00  0.00    +0.000 C 
ENDBRANCH   1   7
BRANCH   2  14
ATOM     14  C   UNL     1      24.206   3.101  17.713  0.00  0.00    +0.000 A 
ATOM     15  C   UNL     1      24.850   1.876  17.741  0.00  0.00    +0.000 A 
ATOM     16  C   UNL     1      24.160   0.666  17.735  0.00  0.00    +0.000 A 
ATOM     17  C   UNL     1      22.791   0.678  17.701  0.00  0.00    +0.000 A 
ATOM     18  C   UNL     1      22.080   1.883  17.673  0.00  0.00    +0.000 A 
ATOM     19  C   UNL     1      22.815   3.000  17.683  0.00  0.00    +0.000 A 
BRANCH  18  20
ATOM     20  N   UNL     1      20.654   1.882  17.645  0.00  0.00    +0.000 N 
ATOM     21  O   UNL     1      20.097   0.995  16.985  0.00  0.00    +0.000 OA
ATOM     22  O   UNL     1      19.879   2.808  18.291  0.00  0.00    +0.000 OA
ENDBRANCH  18  20
ENDBRANCH   2  14
TORSDOF 3
ENDMDL
MODEL 10
REMARK VINA RESULT:      -6.4     18.537     20.516
REMARK  Name = 
REMARK  3 active torsions:
REMARK  status: ('A' for Active; 'I' for Inactive)
REMARK    1  A    between atoms: C_4  and  N_5
REMARK    2  A    between atoms: C_6  and  C_8
REMARK    3  A    between atoms: C_12  and  N_13
REMARK                            x       y       z     vdW  Elec       q    Type
REMARK                         _______ _______ _______ _____ _____    ______ ____
ROOT
ATOM      1  N   UNL     1      19.548  10.878  38.109  0.00  0.00    +0.000 NA
ATOM      2  C   UNL     1      18.208  10.397  38.055  0.00  0.00    +0.000 C 
ATOM      3  O   UNL     1      18.031   9.236  38.510  0.00  0.00    +0.000 OA
ENDROOT
BRANCH   1   7
ATOM      4  C   UNL     1      20.783  12.281  39.730  0.00  0.00    +0.000 C 
ATOM      5  C   UNL     1      21.110  10.924  39.911  0.00  0.00    +0.000 C 
ATOM      6  C   UNL     1      20.534  10.321  41.186  0.00  0.00    +0.000 C 
ATOM      7  C   UNL     1      20.606   9.895  38.750  0.00  0.00    +0.000 C 
ATOM      8  C   UNL     1      21.834  10.320  37.726  0.00  0.00    +0.000 C 
ATOM      9  C   UNL     1      21.593   9.691  36.450  0.00  0.00    +0.000 C 
ATOM     10  C   UNL     1      22.061  11.735  37.840  0.00  0.00    +0.000 C 
ATOM     11  C   UNL     1      23.100  11.881  38.905  0.00  0.00    +0.000 C 
ATOM     12  C   UNL     1      22.705  10.612  39.916  0.00  0.00    +0.000 C 
ATOM     13  C   UNL     1      22.715   9.550  38.649  0.00  0.00    +0.000 C 
ENDBRANCH   1   7
BRANCH   2  14
ATOM     14  C   UNL     1      17.080  11.113  37.537  0.00  0.00    +0.000 A 
ATOM     15  C   UNL     1      17.110  12.168  36.640  0.00  0.00    +0.000 A 
ATOM     16  C   UNL     1      15.958  12.829  36.221  0.00  0.00    +0.000 A 
ATOM     17  C   UNL     1      14.743  12.428  36.709  0.00  0.00    +0.000 A 
ATOM     18  C   UNL     1      14.644  11.368  37.617  0.00  0.00    +0.000 A 
ATOM     19  C   UNL     1      15.795  10.784  37.968  0.00  0.00    +0.000 A 
BRANCH  18  20
ATOM     20  N   UNL     1      13.371  10.955  38.112  0.00  0.00    +0.000 N 
ATOM     21  O   UNL     1      13.313  10.569  39.286  0.00  0.00    +0.000 OA
ATOM     22  O   UNL     1      12.227  10.952  37.360  0.00  0.00    +0.000 OA
ENDBRANCH  18  20
ENDBRANCH   2  14
TORSDOF 3
ENDMDL
