MODEL 1
REMARK VINA RESULT:      -5.8      0.000      0.000
REMARK  Name = 
REMARK  6 active torsions:
REMARK  status: ('A' for Active; 'I' for Inactive)
REMARK    1  A    between atoms: C_2  and  O_5
REMARK    2  A    between atoms: O_5  and  C_6
REMARK    3  A    between atoms: N_8  and  CA_9
REMARK    4  A    between atoms: CA_9  and  C_10
REMARK    5  A    between atoms: CA_9  and  CB_12
REMARK    6  A    between atoms: CB_12  and  CG_13
REMARK                            x       y       z     vdW  Elec       q    Type
REMARK                         _______ _______ _______ _____ _____    ______ ____
ROOT
ATOM      1  CA  TRP A   1      18.377   9.601  38.209  0.00  0.00    +0.000 C 
ENDROOT
BRANCH   1   4
ATOM      2  C   UNK A   0      18.074   8.449  40.434  0.00  0.00    +0.000 C 
ATOM      3  O   UNK A   0      18.374   7.424  39.810  0.00  0.00    +0.000 OA
ATOM      4  N   TRP A   1      18.022   9.719  39.747  0.00  0.00    +0.000 NA
BRANCH   2   5
ATOM      5  O   UNK A   0      17.794   8.332  41.793  0.00  0.00    +0.000 OA
BRANCH   5   7
ATOM      6  C   UNK A   0      16.402   9.775  43.018  0.00  0.00    +0.000 C 
ATOM      7  C   UNK A   0      16.470   8.411  42.312  0.00  0.00    +0.000 C 
ATOM      8  C   UNK A   0      15.409   8.262  41.265  0.00  0.00    +0.000 C 
ATOM      9  C   UNK A   0      16.317   7.386  43.423  0.00  0.00    +0.000 C 
ENDBRANCH   5   7
ENDBRANCH   2   5
ENDBRANCH   1   4
BRANCH   1  10
ATOM     10  C   TRP A   1      19.407  10.819  38.159  0.00  0.00    +0.000 C 
ATOM     11  O   TRP A   1      20.439  10.626  37.581  0.00  0.00    +0.000 OA
ENDBRANCH   1  10
BRANCH   1  12
ATOM     12  CB  TRP A   1      17.036  10.419  37.717  0.00  0.00    +0.000 C 
BRANCH  12  13
ATOM     13  CG  TRP A   1      16.954  10.396  36.271  0.00  0.00    +0.000 A 
ATOM     14  CD1 TRP A   1      17.564   9.638  35.312  0.00  0.00    +0.000 A 
ATOM     15  NE1 TRP A   1      17.111  10.005  34.100  0.00  0.00    +0.000 NA
ATOM     16  CE2 TRP A   1      16.210  10.992  34.207  0.00  0.00    +0.000 A 
ATOM     17  CZ2 TRP A   1      15.487  11.695  33.271  0.00  0.00    +0.000 A 
ATOM     18  CH2 TRP A   1      14.628  12.684  33.685  0.00  0.00    +0.000 A 
ATOM     19  CZ3 TRP A   1      14.484  12.979  35.020  0.00  0.00    +0.000 A 
ATOM     20  CE3 TRP A   1      15.220  12.256  35.911  0.00  0.00    +0.000 A 
ATOM     21  CD2 TRP A   1      16.099  11.252  35.567  0.00  0.00    +0.000 A 
ENDBRANCH  12  13
ENDBRANCH   1  12
TORSDOF 6
ENDMDL
MODEL 2
REMARK VINA RESULT:      -5.8     18.656     20.940
REMARK  Name = 
REMARK  6 active torsions:
REMARK  status: ('A' for Active; 'I' for Inactive)
REMARK    1  A    between atoms: C_2  and  O_5
REMARK    2  A    between atoms: O_5  and  C_6
REMARK    3  A    between atoms: N_8  and  CA_9
REMARK    4  A    between atoms: CA_9  and  C_10
REMARK    5  A    between atoms: CA_9  and  CB_12
REMARK    6  A    between atoms: CB_12  and  CG_13
REMARK                            x       y       z     vdW  Elec       q    Type
REMARK                         _______ _______ _______ _____ _____    ______ ____
ROOT
ATOM      1  CA  TRP A   1      27.766  23.142  29.090  0.00  0.00    +0.000 C 
ENDROOT
BRANCH   1   4
ATOM      2  C   UNK A   0      30.111  23.507  29.947  0.00  0.00    +0.000 C 
ATOM      3  O   UNK A   0      30.122  24.464  29.162  0.00  0.00    +0.000 OA
ATOM      4  N   TRP A   1      28.934  22.677  30.052  0.00  0.00    +0.000 NA
BRANCH   2   5
ATOM      5  O   UNK A   0      31.254  23.269  30.706  0.00  0.00    +0.000 OA
BRANCH   5   7
ATOM      6  C   UNK A   0      31.936  21.143  31.438  0.00  0.00    +0.000 C 
ATOM      7  C   UNK A   0      32.184  22.239  30.389  0.00  0.00    +0.000 C 
ATOM      8  C   UNK A   0      32.048  21.724  28.989  0.00  0.00    +0.000 C 
ATOM      9  C   UNK A   0      33.589  22.742  30.673  0.00  0.00    +0.000 C 
ENDBRANCH   5   7
ENDBRANCH   2   5
ENDBRANCH   1   4
BRANCH   1  10
ATOM     10  C   TRP A   1      26.573  22.452  29.894  0.00  0.00    +0.000 C 
ATOM     11  O   TRP A   1      25.955  23.154  30.643  0.00  0.00    +0.000 OA
ENDBRANCH   1  10
BRANCH   1  12
ATOM     12  CB  TRP A   1      28.028  21.938  27.998  0.00  0.00    +0.000 C 
BRANCH  12  13
ATOM     13  CG  TRP A   1      27.901  22.462  26.654  0.00  0.00    +0.000 A 
ATOM     14  CD1 TRP A   1      26.827  22.764  25.865  0.00  0.00    +0.000 A 
ATOM     15  NE1 TRP A   1      27.260  23.256  24.692  0.00  0.00    +0.000 NA
ATOM     16  CE2 TRP A   1      28.600  23.298  24.658  0.00  0.00    +0.000 A 
ATOM     17  CZ2 TRP A   1      29.493  23.704  23.693  0.00  0.00    +0.000 A 
ATOM     18  CH2 TRP A   1      30.841  23.617  23.942  0.00  0.00    +0.000 A 
ATOM     19  CZ3 TRP A   1      31.307  23.132  25.141  0.00  0.00    +0.000 A 
ATOM     20  CE3 TRP A   1      30.386  22.743  26.068  0.00  0.00    +0.000 A 
ATOM     21  CD2 TRP A   1      29.021  22.802  25.886  0.00  0.00    +0.000 A 
ENDBRANCH  12  13
ENDBRANCH   1  12
TORSDOF 6
ENDMDL
MODEL 3
REMARK VINA RESULT:      -5.7     18.012     20.974
REMARK  Name = 
REMARK  6 active torsions:
REMARK  status: ('A' for Active; 'I' for Inactive)
REMARK    1  A    between atoms: C_2  and  O_5
REMARK    2  A    between atoms: O_5  and  C_6
REMARK    3  A    between atoms: N_8  and  CA_9
REMARK    4  A    between atoms: CA_9  and  C_10
REMARK    5  A    between atoms: CA_9  and  CB_12
REMARK    6  A    between atoms: CB_12  and  CG_13
REMARK                            x       y       z     vdW  Elec       q    Type
REMARK                         _______ _______ _______ _____ _____    ______ ____
ROOT
ATOM      1  CA  TRP A   1      27.761  22.283  29.659  0.00  0.00    +0.000 C 
ENDROOT
BRANCH   1   4
ATOM      2  C   UNK A   0      28.263  23.144  27.341  0.00  0.00    +0.000 C 
ATOM      3  O   UNK A   0      28.871  22.076  27.204  0.00  0.00    +0.000 OA
ATOM      4  N   TRP A   1      27.600  23.439  28.590  0.00  0.00    +0.000 NA
BRANCH   2   5
ATOM      5  O   UNK A   0      28.245  24.031  26.268  0.00  0.00    +0.000 OA
BRANCH   5   7
ATOM      6  C   UNK A   0      27.002  25.099  24.584  0.00  0.00    +0.000 C 
ATOM      7  C   UNK A   0      27.566  23.747  25.049  0.00  0.00    +0.000 C 
ATOM      8  C   UNK A   0      28.442  23.112  24.013  0.00  0.00    +0.000 C 
ATOM      9  C   UNK A   0      26.344  22.897  25.355  0.00  0.00    +0.000 C 
ENDBRANCH   5   7
ENDBRANCH   2   5
ENDBRANCH   1   4
BRANCH   1  10
ATOM     10  C   TRP A   1      26.342  22.475  30.361  0.00  0.00    +0.000 C 
ATOM     11  O   TRP A   1      25.864  21.506  30.880  0.00  0.00    +0.000 OA
ENDBRANCH   1  10
BRANCH   1  12
ATOM     12  CB  TRP A   1      28.651  23.203  30.693  0.00  0.00    +0.000 C 
BRANCH  12  13
ATOM     13  CG  TRP A   1      29.771  22.432  31.192  0.00  0.00    +0.000 A 
ATOM     14  CD1 TRP A   1      29.953  21.657  32.302  0.00  0.00    +0.000 A 
ATOM     15  NE1 TRP A   1      31.190  21.130  32.280  0.00  0.00    +0.000 NA
ATOM     16  CE2 TRP A   1      31.856  21.525  31.186  0.00  0.00    +0.000 A 
ATOM     17  CZ2 TRP A   1      33.129  21.268  30.730  0.00  0.00    +0.000 A 
ATOM     18  CH2 TRP A   1      33.551  21.836  29.552  0.00  0.00    +0.000 A 
ATOM     19  CZ3 TRP A   1      32.720  22.656  28.826  0.00  0.00    +0.000 A 
ATOM     20  CE3 TRP A   1      31.468  22.881  29.316  0.00  0.00    +0.000 A 
ATOM     21  CD2 TRP A   1      30.978  22.346  30.488  0.00  0.00    +0.000 A 
ENDBRANCH  12  13
ENDBRANCH   1  12
TORSDOF 6
ENDMDL
MODEL 4
REMARK VINA RESULT:      -5.7     20.912     23.395
REMARK  Name = 
REMARK  6 active torsions:
REMARK  status: ('A' for Active; 'I' for Inactive)
REMARK    1  A    between atoms: C_2  and  O_5
REMARK    2  A    between atoms: O_5  and  C_6
REMARK    3  A    between atoms: N_8  and  CA_9
REMARK    4  A    between atoms: CA_9  and  C_10
REMARK    5  A    between atoms: CA_9  and  CB_12
REMARK    6  A    between atoms: CB_12  and  CG_13
REMARK                            x       y       z     vdW  Elec       q    Type
REMARK                         _______ _______ _______ _____ _____    ______ ____
ROOT
ATOM      1  CA  TRP A   1      29.230  25.460  22.832  0.00  0.00    +0.000 C 
ENDROOT
BRANCH   1   4
ATOM      2  C   UNK A   0      27.502  25.793  24.640  0.00  0.00    +0.000 C 
ATOM      3  O   UNK A   0      28.146  26.816  24.902  0.00  0.00    +0.000 OA
ATOM      4  N   TRP A   1      27.927  24.934  23.560  0.00  0.00    +0.000 NA
BRANCH   2   5
ATOM      5  O   UNK A   0      26.378  25.510  25.411  0.00  0.00    +0.000 OA
BRANCH   5   7
ATOM      6  C   UNK A   0      25.088  24.675  27.188  0.00  0.00    +0.000 C 
ATOM      7  C   UNK A   0      26.325  24.412  26.315  0.00  0.00    +0.000 C 
ATOM      8  C   UNK A   0      26.264  23.080  25.632  0.00  0.00    +0.000 C 
ATOM      9  C   UNK A   0      27.504  24.505  27.270  0.00  0.00    +0.000 C 
ENDBRANCH   5   7
ENDBRANCH   2   5
ENDBRANCH   1   4
BRANCH   1  10
ATOM     10  C   TRP A   1      28.827  24.993  21.360  0.00  0.00    +0.000 C 
ATOM     11  O   TRP A   1      29.723  24.654  20.640  0.00  0.00    +0.000 OA
ENDBRANCH   1  10
BRANCH   1  12
ATOM     12  CB  TRP A   1      30.133  24.147  23.245  0.00  0.00    +0.000 C 
BRANCH  12  13
ATOM     13  CG  TRP A   1      30.883  24.432  24.451  0.00  0.00    +0.000 A 
ATOM     14  CD1 TRP A   1      31.724  25.446  24.813  0.00  0.00    +0.000 A 
ATOM     15  NE1 TRP A   1      32.143  25.249  26.075  0.00  0.00    +0.000 NA
ATOM     16  CE2 TRP A   1      31.612  24.128  26.584  0.00  0.00    +0.000 A 
ATOM     17  CZ2 TRP A   1      31.744  23.509  27.805  0.00  0.00    +0.000 A 
ATOM     18  CH2 TRP A   1      31.072  22.333  28.043  0.00  0.00    +0.000 A 
ATOM     19  CZ3 TRP A   1      30.273  21.771  27.076  0.00  0.00    +0.000 A 
ATOM     20  CE3 TRP A   1      30.172  22.420  25.881  0.00  0.00    +0.000 A 
ATOM     21  CD2 TRP A   1      30.816  23.599  25.575  0.00  0.00    +0.000 A 
ENDBRANCH  12  13
ENDBRANCH   1  12
TORSDOF 6
ENDMDL
MODEL 5
REMARK VINA RESULT:      -5.7     18.405     20.328
REMARK  Name = 
REMARK  6 active torsions:
REMARK  status: ('A' for Active; 'I' for Inactive)
REMARK    1  A    between atoms: C_2  and  O_5
REMARK    2  A    between atoms: O_5  and  C_6
REMARK    3  A    between atoms: N_8  and  CA_9
REMARK    4  A    between atoms: CA_9  and  C_10
REMARK    5  A    between atoms: CA_9  and  CB_12
REMARK    6  A    between atoms: CB_12  and  CG_13
REMARK                            x       y       z     vdW  Elec       q    Type
REMARK                         _______ _______ _______ _____ _____    ______ ____
ROOT
ATOM      1  CA  TRP A   1      27.645  23.696  29.119  0.00  0.00    +0.000 C 
ENDROOT
BRANCH   1   4
ATOM      2  C   UNK A   0      29.610  23.872  30.691  0.00  0.00    +0.000 C 
ATOM      3  O   UNK A   0      30.058  24.666  29.854  0.00  0.00    +0.000 OA
ATOM      4  N   TRP A   1      28.327  23.246  30.475  0.00  0.00    +0.000 NA
BRANCH   2   5
ATOM      5  O   UNK A   0      30.377  23.612  31.824  0.00  0.00    +0.000 OA
BRANCH   5   7
ATOM      6  C   UNK A   0      30.406  21.479  32.810  0.00  0.00    +0.000 C 
ATOM      7  C   UNK A   0      31.207  22.460  31.939  0.00  0.00    +0.000 C 
ATOM      8  C   UNK A   0      31.588  21.865  30.619  0.00  0.00    +0.000 C 
ATOM      9  C   UNK A   0      32.427  22.816  32.773  0.00  0.00    +0.000 C 
ENDBRANCH   5   7
ENDBRANCH   2   5
ENDBRANCH   1   4
BRANCH   1  10
ATOM     10  C   TRP A   1      26.134  23.504  29.594  0.00  0.00    +0.000 C 
ATOM     11  O   TRP A   1      25.966  22.928  30.631  0.00  0.00    +0.000 OA
ENDBRANCH   1  10
BRANCH   1  12
ATOM     12  CB  TRP A   1      27.842  22.229  28.398  0.00  0.00    +0.000 C 
BRANCH  12  13
ATOM     13  CG  TRP A   1      28.755  22.355  27.280  0.00  0.00    +0.000 A 
ATOM     14  CD1 TRP A   1      30.105  22.185  27.150  0.00  0.00    +0.000 A 
ATOM     15  NE1 TRP A   1      30.460  22.400  25.872  0.00  0.00    +0.000 NA
ATOM     16  CE2 TRP A   1      29.391  22.713  25.126  0.00  0.00    +0.000 A 
ATOM     17  CZ2 TRP A   1      29.247  23.023  23.794  0.00  0.00    +0.000 A 
ATOM     18  CH2 TRP A   1      27.999  23.321  23.301  0.00  0.00    +0.000 A 
ATOM     19  CZ3 TRP A   1      26.896  23.312  24.122  0.00  0.00    +0.000 A 
ATOM     20  CE3 TRP A   1      27.087  22.997  25.435  0.00  0.00    +0.000 A 
ATOM     21  CD2 TRP A   1      28.308  22.689  25.996  0.00  0.00    +0.000 A 
ENDBRANCH  12  13
ENDBRANCH   1  12
TORSDOF 6
ENDMDL
MODEL 6
REMARK VINA RESULT:      -5.6     22.332     23.905
REMARK  Name = 
REMARK  6 active torsions:
REMARK  status: ('A' for Active; 'I' for Inactive)
REMARK    1  A    between atoms: C_2  and  O_5
REMARK    2  A    between atoms: O_5  and  C_6
REMARK    3  A    between atoms: N_8  and  CA_9
REMARK    4  A    between atoms: CA_9  and  C_10
REMARK    5  A    between atoms: CA_9  and  CB_12
REMARK    6  A    between atoms: CB_12  and  CG_13
REMARK                            x       y       z     vdW  Elec       q    Type
REMARK                         _______ _______ _______ _____ _____    ______ ____
ROOT
ATOM      1  CA  TRP A   1      33.179  -4.780  34.053  0.00  0.00    +0.000 C 
ENDROOT
BRANCH   1   4
ATOM      2  C   UNK A   0      31.420  -6.569  33.784  0.00  0.00    +0.000 C 
ATOM      3  O   UNK A   0      32.148  -7.231  34.534  0.00  0.00    +0.000 OA
ATOM      4  N   TRP A   1      31.804  -5.228  33.410  0.00  0.00    +0.000 NA
BRANCH   2   5
ATOM      5  O   UNK A   0      30.244  -7.156  33.324  0.00  0.00    +0.000 OA
BRANCH   5   7
ATOM      6  C   UNK A   0      31.511  -8.274  31.691  0.00  0.00    +0.000 C 
ATOM      7  C   UNK A   0      30.121  -7.703  32.015  0.00  0.00    +0.000 C 
ATOM      8  C   UNK A   0      29.044  -8.737  31.900  0.00  0.00    +0.000 C 
ATOM      9  C   UNK A   0      29.924  -6.568  31.025  0.00  0.00    +0.000 C 
ENDBRANCH   5   7
ENDBRANCH   2   5
ENDBRANCH   1   4
BRANCH   1  10
ATOM     10  C   TRP A   1      32.713  -3.321  34.500  0.00  0.00    +0.000 C 
ATOM     11  O   TRP A   1      33.143  -2.401  33.863  0.00  0.00    +0.000 OA
ENDBRANCH   1  10
BRANCH   1  12
ATOM     12  CB  TRP A   1      33.854  -4.369  32.610  0.00  0.00    +0.000 C 
BRANCH  12  13
ATOM     13  CG  TRP A   1      34.479  -5.532  32.015  0.00  0.00    +0.000 A 
ATOM     14  CD1 TRP A   1      35.344  -6.476  32.492  0.00  0.00    +0.000 A 
ATOM     15  NE1 TRP A   1      35.599  -7.375  31.525  0.00  0.00    +0.000 NA
ATOM     16  CE2 TRP A   1      34.934  -7.070  30.402  0.00  0.00    +0.000 A 
ATOM     17  CZ2 TRP A   1      34.878  -7.666  29.164  0.00  0.00    +0.000 A 
ATOM     18  CH2 TRP A   1      34.100  -7.106  28.179  0.00  0.00    +0.000 A 
ATOM     19  CZ3 TRP A   1      33.379  -5.961  28.416  0.00  0.00    +0.000 A 
ATOM     20  CE3 TRP A   1      33.464  -5.406  29.659  0.00  0.00    +0.000 A 
ATOM     21  CD2 TRP A   1      34.222  -5.912  30.692  0.00  0.00    +0.000 A 
ENDBRANCH  12  13
ENDBRANCH   1  12
TORSDOF 6
ENDMDL
MODEL 7
REMARK VINA RESULT:      -5.6     21.195     23.623
REMARK  Name = 
REMARK  6 active torsions:
REMARK  status: ('A' for Active; 'I' for Inactive)
REMARK    1  A    between atoms: C_2  and  O_5
REMARK    2  A    between atoms: O_5  and  C_6
REMARK    3  A    between atoms: N_8  and  CA_9
REMARK    4  A    between atoms: CA_9  and  C_10
REMARK    5  A    between atoms: CA_9  and  CB_12
REMARK    6  A    between atoms: CB_12  and  CG_13
REMARK                            x       y       z     vdW  Elec       q    Type
REMARK                         _______ _______ _______ _____ _____    ______ ____
ROOT
ATOM      1  CA  TRP A   1      28.759  25.319  22.666  0.00  0.00    +0.000 C 
ENDROOT
BRANCH   1   4
ATOM      2  C   UNK A   0      27.243  27.148  23.517  0.00  0.00    +0.000 C 
ATOM      3  O   UNK A   0      28.149  27.355  24.335  0.00  0.00    +0.000 OA
ATOM      4  N   TRP A   1      27.385  26.096  22.538  0.00  0.00    +0.000 NA
BRANCH   2   5
ATOM      5  O   UNK A   0      26.108  27.951  23.580  0.00  0.00    +0.000 OA
BRANCH   5   7
ATOM      6  C   UNK A   0      23.860  28.457  24.043  0.00  0.00    +0.000 C 
ATOM      7  C   UNK A   0      25.142  27.834  24.619  0.00  0.00    +0.000 C 
ATOM      8  C   UNK A   0      24.930  26.424  25.079  0.00  0.00    +0.000 C 
ATOM      9  C   UNK A   0      25.541  28.750  25.765  0.00  0.00    +0.000 C 
ENDBRANCH   5   7
ENDBRANCH   2   5
ENDBRANCH   1   4
BRANCH   1  10
ATOM     10  C   TRP A   1      29.202  25.468  21.140  0.00  0.00    +0.000 C 
ATOM     11  O   TRP A   1      29.678  24.497  20.622  0.00  0.00    +0.000 OA
ENDBRANCH   1  10
BRANCH   1  12
ATOM     12  CB  TRP A   1      28.062  23.832  22.554  0.00  0.00    +0.000 C 
BRANCH  12  13
ATOM     13  CG  TRP A   1      27.671  23.376  23.872  0.00  0.00    +0.000 A 
ATOM     14  CD1 TRP A   1      26.460  23.191  24.477  0.00  0.00    +0.000 A 
ATOM     15  NE1 TRP A   1      26.651  22.717  25.720  0.00  0.00    +0.000 NA
ATOM     16  CE2 TRP A   1      27.958  22.575  25.981  0.00  0.00    +0.000 A 
ATOM     17  CZ2 TRP A   1      28.642  22.145  27.094  0.00  0.00    +0.000 A 
ATOM     18  CH2 TRP A   1      30.016  22.118  27.074  0.00  0.00    +0.000 A 
ATOM     19  CZ3 TRP A   1      30.713  22.515  25.957  0.00  0.00    +0.000 A 
ATOM     20  CE3 TRP A   1      29.992  22.933  24.878  0.00  0.00    +0.000 A 
ATOM     21  CD2 TRP A   1      28.616  22.986  24.828  0.00  0.00    +0.000 A 
ENDBRANCH  12  13
ENDBRANCH   1  12
TORSDOF 6
ENDMDL
MODEL 8
REMARK VINA RESULT:      -5.5     20.698     22.618
REMARK  Name = 
REMARK  6 active torsions:
REMARK  status: ('A' for Active; 'I' for Inactive)
REMARK    1  A    between atoms: C_2  and  O_5
REMARK    2  A    between atoms: O_5  and  C_6
REMARK    3  A    between atoms: N_8  and  CA_9
REMARK    4  A    between atoms: CA_9  and  C_10
REMARK    5  A    between atoms: CA_9  and  CB_12
REMARK    6  A    between atoms: CB_12  and  CG_13
REMARK                            x       y       z     vdW  Elec       q    Type
REMARK                         _______ _______ _______ _____ _____    ______ ____
ROOT
ATOM      1  CA  TRP A   1      16.629  -9.924  26.195  0.00  0.00    +0.000 C 
ENDROOT
BRANCH   1   4
ATOM      2  C   UNK A   0      14.399  -8.769  25.950  0.00  0.00    +0.000 C 
ATOM      3  O   UNK A   0      14.916  -8.238  24.960  0.00  0.00    +0.000 OA
ATOM      4  N   TRP A   1      15.161  -9.705  26.744  0.00  0.00    +0.000 NA
BRANCH   2   5
ATOM      5  O   UNK A   0      13.085  -8.434  26.263  0.00  0.00    +0.000 OA
BRANCH   5   7
ATOM      6  C   UNK A   0      10.863  -9.044  26.724  0.00  0.00    +0.000 C 
ATOM      7  C   UNK A   0      11.966  -9.069  25.653  0.00  0.00    +0.000 C 
ATOM      8  C   UNK A   0      11.532  -8.415  24.377  0.00  0.00    +0.000 C 
ATOM      9  C   UNK A   0      12.285 -10.542  25.455  0.00  0.00    +0.000 C 
ENDBRANCH   5   7
ENDBRANCH   2   5
ENDBRANCH   1   4
BRANCH   1  10
ATOM     10  C   TRP A   1      16.804 -11.423  26.712  0.00  0.00    +0.000 C 
ATOM     11  O   TRP A   1      15.968 -11.831  27.468  0.00  0.00    +0.000 OA
ENDBRANCH   1  10
BRANCH   1  12
ATOM     12  CB  TRP A   1      17.344  -9.162  27.467  0.00  0.00    +0.000 C 
BRANCH  12  13
ATOM     13  CG  TRP A   1      17.790  -7.846  27.059  0.00  0.00    +0.000 A 
ATOM     14  CD1 TRP A   1      17.232  -6.602  27.140  0.00  0.00    +0.000 A 
ATOM     15  NE1 TRP A   1      18.085  -5.696  26.632  0.00  0.00    +0.000 NA
ATOM     16  CE2 TRP A   1      19.210  -6.288  26.205  0.00  0.00    +0.000 A 
ATOM     17  CZ2 TRP A   1      20.350  -5.798  25.612  0.00  0.00    +0.000 A 
ATOM     18  CH2 TRP A   1      21.357  -6.666  25.264  0.00  0.00    +0.000 A 
ATOM     19  CZ3 TRP A   1      21.238  -8.015  25.500  0.00  0.00    +0.000 A 
ATOM     20  CE3 TRP A   1      20.090  -8.455  26.091  0.00  0.00    +0.000 A 
ATOM     21  CD2 TRP A   1      19.042  -7.643  26.466  0.00  0.00    +0.000 A 
ENDBRANCH  12  13
ENDBRANCH   1  12
TORSDOF 6
ENDMDL
MODEL 9
REMARK VINA RESULT:      -5.4     19.414     21.218
REMARK  Name = 
REMARK  6 active torsions:
REMARK  status: ('A' for Active; 'I' for Inactive)
REMARK    1  A    between atoms: C_2  and  O_5
REMARK    2  A    between atoms: O_5  and  C_6
REMARK    3  A    between atoms: N_8  and  CA_9
REMARK    4  A    between atoms: CA_9  and  C_10
REMARK    5  A    between atoms: CA_9  and  CB_12
REMARK    6  A    between atoms: CB_12  and  CG_13
REMARK                            x       y       z     vdW  Elec       q    Type
REMARK                         _______ _______ _______ _____ _____    ______ ____
ROOT
ATOM      1  CA  TRP A   1      28.547  23.673  28.406  0.00  0.00    +0.000 C 
ENDROOT
BRANCH   1   4
ATOM      2  C   UNK A   0      30.886  23.647  29.352  0.00  0.00    +0.000 C 
ATOM      3  O   UNK A   0      31.137  24.443  28.438  0.00  0.00    +0.000 OA
ATOM      4  N   TRP A   1      29.549  23.120  29.499  0.00  0.00    +0.000 NA
BRANCH   2   5
ATOM      5  O   UNK A   0      31.921  23.286  30.210  0.00  0.00    +0.000 OA
BRANCH   5   7
ATOM      6  C   UNK A   0      34.040  22.271  30.178  0.00  0.00    +0.000 C 
ATOM      7  C   UNK A   0      32.527  21.998  30.181  0.00  0.00    +0.000 C 
ATOM      8  C   UNK A   0      32.113  21.119  31.321  0.00  0.00    +0.000 C 
ATOM      9  C   UNK A   0      32.243  21.352  28.836  0.00  0.00    +0.000 C 
ENDBRANCH   5   7
ENDBRANCH   2   5
ENDBRANCH   1   4
BRANCH   1  10
ATOM     10  C   TRP A   1      27.209  23.451  29.246  0.00  0.00    +0.000 C 
ATOM     11  O   TRP A   1      26.256  23.047  28.642  0.00  0.00    +0.000 OA
ENDBRANCH   1  10
BRANCH   1  12
ATOM     12  CB  TRP A   1      28.515  22.265  27.554  0.00  0.00    +0.000 C 
BRANCH  12  13
ATOM     13  CG  TRP A   1      29.053  22.485  26.227  0.00  0.00    +0.000 A 
ATOM     14  CD1 TRP A   1      30.300  22.338  25.688  0.00  0.00    +0.000 A 
ATOM     15  NE1 TRP A   1      30.260  22.655  24.382  0.00  0.00    +0.000 NA
ATOM     16  CE2 TRP A   1      29.021  23.016  24.016  0.00  0.00    +0.000 A 
ATOM     17  CZ2 TRP A   1      28.489  23.427  22.817  0.00  0.00    +0.000 A 
ATOM     18  CH2 TRP A   1      27.155  23.751  22.745  0.00  0.00    +0.000 A 
ATOM     19  CZ3 TRP A   1      26.349  23.668  23.855  0.00  0.00    +0.000 A 
ATOM     20  CE3 TRP A   1      26.920  23.254  25.022  0.00  0.00    +0.000 A 
ATOM     21  CD2 TRP A   1      28.247  22.914  25.167  0.00  0.00    +0.000 A 
ENDBRANCH  12  13
ENDBRANCH   1  12
TORSDOF 6
ENDMDL
MODEL 10
REMARK VINA RESULT:      -5.2     19.042     20.852
REMARK  Name = 
REMARK  6 active torsions:
REMARK  status: ('A' for Active; 'I' for Inactive)
REMARK    1  A    between atoms: C_2  and  O_5
REMARK    2  A    between atoms: O_5  and  C_6
REMARK    3  A    between atoms: N_8  and  CA_9
REMARK    4  A    between atoms: CA_9  and  C_10
REMARK    5  A    between atoms: CA_9  and  CB_12
REMARK    6  A    between atoms: CB_12  and  CG_13
REMARK                            x       y       z     vdW  Elec       q    Type
REMARK                         _______ _______ _______ _____ _____    ______ ____
ROOT
ATOM      1  CA  TRP A   1      34.785  -0.917  35.565  0.00  0.00    +0.000 C 
ENDROOT
BRANCH   1   4
ATOM      2  C   UNK A   0      33.515  -2.495  34.060  0.00  0.00    +0.000 C 
ATOM      3  O   UNK A   0      33.787  -1.678  33.171  0.00  0.00    +0.000 OA
ATOM      4  N   TRP A   1      33.963  -2.262  35.413  0.00  0.00    +0.000 NA
BRANCH   2   5
ATOM      5  O   UNK A   0      32.773  -3.621  33.711  0.00  0.00    +0.000 OA
BRANCH   5   7
ATOM      6  C   UNK A   0      32.445  -5.947  33.672  0.00  0.00    +0.000 C 
ATOM      7  C   UNK A   0      33.375  -4.812  33.215  0.00  0.00    +0.000 C 
ATOM      8  C   UNK A   0      33.574  -4.805  31.731  0.00  0.00    +0.000 C 
ATOM      9  C   UNK A   0      34.678  -5.050  33.960  0.00  0.00    +0.000 C 
ENDBRANCH   5   7
ENDBRANCH   2   5
ENDBRANCH   1   4
BRANCH   1  10
ATOM     10  C   TRP A   1      35.695  -1.389  36.788  0.00  0.00    +0.000 C 
ATOM     11  O   TRP A   1      36.500  -2.247  36.558  0.00  0.00    +0.000 OA
ENDBRANCH   1  10
BRANCH   1  12
ATOM     12  CB  TRP A   1      33.611  -0.161  36.437  0.00  0.00    +0.000 C 
BRANCH  12  13
ATOM     13  CG  TRP A   1      33.931   1.245  36.569  0.00  0.00    +0.000 A 
ATOM     14  CD1 TRP A   1      34.401   2.004  37.603  0.00  0.00    +0.000 A 
ATOM     15  NE1 TRP A   1      34.557   3.274  37.189  0.00  0.00    +0.000 NA
ATOM     16  CE2 TRP A   1      34.207   3.401  35.901  0.00  0.00    +0.000 A 
ATOM     17  CZ2 TRP A   1      34.181   4.480  35.048  0.00  0.00    +0.000 A 
ATOM     18  CH2 TRP A   1      33.752   4.308  33.754  0.00  0.00    +0.000 A 
ATOM     19  CZ3 TRP A   1      33.348   3.073  33.304  0.00  0.00    +0.000 A 
ATOM     20  CE3 TRP A   1      33.391   2.033  34.185  0.00  0.00    +0.000 A 
ATOM     21  CD2 TRP A   1      33.810   2.133  35.494  0.00  0.00    +0.000 A 
ENDBRANCH  12  13
ENDBRANCH   1  12
TORSDOF 6
ENDMDL
