MODEL 1
REMARK VINA RESULT:      -6.4      0.000      0.000
REMARK  Name = 
REMARK  2 active torsions:
REMARK  status: ('A' for Active; 'I' for Inactive)
REMARK    1  A    between atoms: C_10  and  N_11
REMARK    2  A    between atoms: N_11  and  C_12
REMARK                            x       y       z     vdW  Elec       q    Type
REMARK                         _______ _______ _______ _____ _____    ______ ____
ROOT
ATOM      1  C   UNL     1      27.167  22.256  29.907  0.00  0.00    +0.000 C 
ATOM      2  C   UNL     1      26.427  23.339  29.199  0.00  0.00    +0.000 A 
ATOM      3  C   UNL     1      25.801  24.364  29.897  0.00  0.00    +0.000 A 
ATOM      4  C   UNL     1      25.112  25.379  29.300  0.00  0.00    +0.000 A 
ATOM      5  C   UNL     1      25.025  25.396  27.911  0.00  0.00    +0.000 A 
ATOM      6  N   UNL     1      24.368  26.355  27.249  0.00  0.00    +0.000 NA
ATOM      7  C   UNL     1      24.290  26.364  25.912  0.00  0.00    +0.000 A 
ATOM      8  C   UNL     1      23.562  27.425  25.157  0.00  0.00    +0.000 C 
ATOM      9  C   UNL     1      24.889  25.375  25.169  0.00  0.00    +0.000 A 
ATOM     10  C   UNL     1      25.574  24.370  25.790  0.00  0.00    +0.000 A 
ATOM     11  C   UNL     1      25.635  24.392  27.168  0.00  0.00    +0.000 A 
ATOM     12  C   UNL     1      26.319  23.390  27.825  0.00  0.00    +0.000 A 
ENDROOT
BRANCH  10  13
ATOM     13  N   UNL     1      26.200  23.339  25.024  0.00  0.00    +0.000 NA
BRANCH  13  14
ATOM     14  C   UNL     1      27.213  23.609  24.079  0.00  0.00    +0.000 A 
ATOM     15  C   UNL     1      28.454  23.997  24.556  0.00  0.00    +0.000 A 
ATOM     16  C   UNL     1      29.487  24.275  23.701  0.00  0.00    +0.000 A 
ATOM     17  C   UNL     1      29.267  24.161  22.326  0.00  0.00    +0.000 A 
ATOM     18  C   UNL     1      28.029  23.775  21.849  0.00  0.00    +0.000 A 
ATOM     19  C   UNL     1      26.986  23.493  22.726  0.00  0.00    +0.000 A 
ATOM     20  O   UNL     1      25.729  23.102  22.272  0.00  0.00    +0.000 OA
ENDBRANCH  13  14
ENDBRANCH  10  13
TORSDOF 2
ENDMDL
MODEL 2
REMARK VINA RESULT:      -6.3     31.776     33.712
REMARK  Name = 
REMARK  2 active torsions:
REMARK  status: ('A' for Active; 'I' for Inactive)
REMARK    1  A    between atoms: C_10  and  N_11
REMARK    2  A    between atoms: N_11  and  C_12
REMARK                            x       y       z     vdW  Elec       q    Type
REMARK                         _______ _______ _______ _____ _____    ______ ____
ROOT
ATOM      1  C   UNL     1      24.145 -10.033  24.429  0.00  0.00    +0.000 C 
ATOM      2  C   UNL     1      23.221  -8.892  24.688  0.00  0.00    +0.000 A 
ATOM      3  C   UNL     1      23.490  -7.618  24.202  0.00  0.00    +0.000 A 
ATOM      4  C   UNL     1      22.680  -6.541  24.409  0.00  0.00    +0.000 A 
ATOM      5  C   UNL     1      21.515  -6.718  25.149  0.00  0.00    +0.000 A 
ATOM      6  N   UNL     1      20.667  -5.712  25.397  0.00  0.00    +0.000 NA
ATOM      7  C   UNL     1      19.547  -5.892  26.110  0.00  0.00    +0.000 A 
ATOM      8  C   UNL     1      18.592  -4.783  26.396  0.00  0.00    +0.000 C 
ATOM      9  C   UNL     1      19.230  -7.130  26.616  0.00  0.00    +0.000 A 
ATOM     10  C   UNL     1      20.058  -8.193  26.394  0.00  0.00    +0.000 A 
ATOM     11  C   UNL     1      21.201  -7.973  25.656  0.00  0.00    +0.000 A 
ATOM     12  C   UNL     1      22.058  -9.029  25.416  0.00  0.00    +0.000 A 
ENDROOT
BRANCH  10  13
ATOM     13  N   UNL     1      19.734  -9.484  26.917  0.00  0.00    +0.000 NA
BRANCH  13  14
ATOM     14  C   UNL     1      19.268  -9.670  28.236  0.00  0.00    +0.000 A 
ATOM     15  C   UNL     1      20.209  -9.757  29.248  0.00  0.00    +0.000 A 
ATOM     16  C   UNL     1      19.834  -9.936  30.553  0.00  0.00    +0.000 A 
ATOM     17  C   UNL     1      18.472 -10.033  30.850  0.00  0.00    +0.000 A 
ATOM     18  C   UNL     1      17.532  -9.948  29.841  0.00  0.00    +0.000 A 
ATOM     19  C   UNL     1      17.923  -9.764  28.519  0.00  0.00    +0.000 A 
ATOM     20  O   UNL     1      16.996  -9.675  27.483  0.00  0.00    +0.000 OA
ENDBRANCH  13  14
ENDBRANCH  10  13
TORSDOF 2
ENDMDL
MODEL 3
REMARK VINA RESULT:      -6.2     17.405     18.852
REMARK  Name = 
REMARK  2 active torsions:
REMARK  status: ('A' for Active; 'I' for Inactive)
REMARK    1  A    between atoms: C_10  and  N_11
REMARK    2  A    between atoms: N_11  and  C_12
REMARK                            x       y       z     vdW  Elec       q    Type
REMARK                         _______ _______ _______ _____ _____    ______ ____
ROOT
ATOM      1  C   UNL     1      20.062  15.379  39.731  0.00  0.00    +0.000 C 
ATOM      2  C   UNL     1      20.903  14.292  39.157  0.00  0.00    +0.000 A 
ATOM      3  C   UNL     1      22.280  14.432  39.031  0.00  0.00    +0.000 A 
ATOM      4  C   UNL     1      23.097  13.470  38.513  0.00  0.00    +0.000 A 
ATOM      5  C   UNL     1      22.526  12.276  38.082  0.00  0.00    +0.000 A 
ATOM      6  N   UNL     1      23.258  11.283  37.563  0.00  0.00    +0.000 NA
ATOM      7  C   UNL     1      22.700  10.137  37.151  0.00  0.00    +0.000 A 
ATOM      8  C   UNL     1      23.499   9.020  36.569  0.00  0.00    +0.000 C 
ATOM      9  C   UNL     1      21.343   9.942  37.249  0.00  0.00    +0.000 A 
ATOM     10  C   UNL     1      20.547  10.921  37.772  0.00  0.00    +0.000 A 
ATOM     11  C   UNL     1      21.153  12.088  38.187  0.00  0.00    +0.000 A 
ATOM     12  C   UNL     1      20.375  13.096  38.719  0.00  0.00    +0.000 A 
ENDROOT
BRANCH  10  13
ATOM     13  N   UNL     1      19.135  10.725  37.879  0.00  0.00    +0.000 NA
BRANCH  13  14
ATOM     14  C   UNL     1      18.301  10.600  36.747  0.00  0.00    +0.000 A 
ATOM     15  C   UNL     1      18.388   9.432  36.008  0.00  0.00    +0.000 A 
ATOM     16  C   UNL     1      17.611   9.237  34.897  0.00  0.00    +0.000 A 
ATOM     17  C   UNL     1      16.721  10.246  34.517  0.00  0.00    +0.000 A 
ATOM     18  C   UNL     1      16.635  11.411  35.253  0.00  0.00    +0.000 A 
ATOM     19  C   UNL     1      17.428  11.600  36.381  0.00  0.00    +0.000 A 
ATOM     20  O   UNL     1      17.361  12.765  37.141  0.00  0.00    +0.000 OA
ENDBRANCH  13  14
ENDBRANCH  10  13
TORSDOF 2
ENDMDL
MODEL 4
REMARK VINA RESULT:      -6.1      2.902      5.898
REMARK  Name = 
REMARK  2 active torsions:
REMARK  status: ('A' for Active; 'I' for Inactive)
REMARK    1  A    between atoms: C_10  and  N_11
REMARK    2  A    between atoms: N_11  and  C_12
REMARK                            x       y       z     vdW  Elec       q    Type
REMARK                         _______ _______ _______ _____ _____    ______ ____
ROOT
ATOM      1  C   UNL     1      32.225  23.068  28.520  0.00  0.00    +0.000 C 
ATOM      2  C   UNL     1      31.693  23.302  27.147  0.00  0.00    +0.000 A 
ATOM      3  C   UNL     1      32.495  23.828  26.141  0.00  0.00    +0.000 A 
ATOM      4  C   UNL     1      32.060  24.062  24.870  0.00  0.00    +0.000 A 
ATOM      5  C   UNL     1      30.739  23.760  24.552  0.00  0.00    +0.000 A 
ATOM      6  N   UNL     1      30.236  23.959  23.328  0.00  0.00    +0.000 NA
ATOM      7  C   UNL     1      28.963  23.664  23.032  0.00  0.00    +0.000 A 
ATOM      8  C   UNL     1      28.385  23.880  21.674  0.00  0.00    +0.000 C 
ATOM      9  C   UNL     1      28.124  23.142  23.987  0.00  0.00    +0.000 A 
ATOM     10  C   UNL     1      28.583  22.916  25.253  0.00  0.00    +0.000 A 
ATOM     11  C   UNL     1      29.898  23.230  25.524  0.00  0.00    +0.000 A 
ATOM     12  C   UNL     1      30.391  23.014  26.795  0.00  0.00    +0.000 A 
ENDROOT
BRANCH  10  13
ATOM     13  N   UNL     1      27.716  22.373  26.252  0.00  0.00    +0.000 NA
BRANCH  13  14
ATOM     14  C   UNL     1      26.893  23.184  27.061  0.00  0.00    +0.000 A 
ATOM     15  C   UNL     1      26.000  24.033  26.429  0.00  0.00    +0.000 A 
ATOM     16  C   UNL     1      25.168  24.850  27.147  0.00  0.00    +0.000 A 
ATOM     17  C   UNL     1      25.237  24.815  28.543  0.00  0.00    +0.000 A 
ATOM     18  C   UNL     1      26.128  23.969  29.174  0.00  0.00    +0.000 A 
ATOM     19  C   UNL     1      26.968  23.142  28.436  0.00  0.00    +0.000 A 
ATOM     20  O   UNL     1      27.876  22.281  29.048  0.00  0.00    +0.000 OA
ENDBRANCH  13  14
ENDBRANCH  10  13
TORSDOF 2
ENDMDL
MODEL 5
REMARK VINA RESULT:      -6.1      2.895      6.627
REMARK  Name = 
REMARK  2 active torsions:
REMARK  status: ('A' for Active; 'I' for Inactive)
REMARK    1  A    between atoms: C_10  and  N_11
REMARK    2  A    between atoms: N_11  and  C_12
REMARK                            x       y       z     vdW  Elec       q    Type
REMARK                         _______ _______ _______ _____ _____    ______ ____
ROOT
ATOM      1  C   UNL     1      26.375  23.446  22.849  0.00  0.00    +0.000 C 
ATOM      2  C   UNL     1      27.520  23.249  23.783  0.00  0.00    +0.000 A 
ATOM      3  C   UNL     1      28.834  23.261  23.330  0.00  0.00    +0.000 A 
ATOM      4  C   UNL     1      29.917  23.086  24.140  0.00  0.00    +0.000 A 
ATOM      5  C   UNL     1      29.704  22.883  25.501  0.00  0.00    +0.000 A 
ATOM      6  N   UNL     1      30.712  22.705  26.362  0.00  0.00    +0.000 NA
ATOM      7  C   UNL     1      30.497  22.511  27.670  0.00  0.00    +0.000 A 
ATOM      8  C   UNL     1      31.609  22.310  28.645  0.00  0.00    +0.000 C 
ATOM      9  C   UNL     1      29.219  22.490  28.175  0.00  0.00    +0.000 A 
ATOM     10  C   UNL     1      28.151  22.668  27.343  0.00  0.00    +0.000 A 
ATOM     11  C   UNL     1      28.408  22.865  26.003  0.00  0.00    +0.000 A 
ATOM     12  C   UNL     1      27.348  23.047  25.137  0.00  0.00    +0.000 A 
ENDROOT
BRANCH  10  13
ATOM     13  N   UNL     1      26.818  22.647  27.861  0.00  0.00    +0.000 NA
BRANCH  13  14
ATOM     14  C   UNL     1      26.251  23.753  28.530  0.00  0.00    +0.000 A 
ATOM     15  C   UNL     1      25.729  24.777  27.758  0.00  0.00    +0.000 A 
ATOM     16  C   UNL     1      25.161  25.882  28.334  0.00  0.00    +0.000 A 
ATOM     17  C   UNL     1      25.117  25.960  29.729  0.00  0.00    +0.000 A 
ATOM     18  C   UNL     1      25.639  24.940  30.500  0.00  0.00    +0.000 A 
ATOM     19  C   UNL     1      26.213  23.821  29.905  0.00  0.00    +0.000 A 
ATOM     20  O   UNL     1      26.746  22.779  30.659  0.00  0.00    +0.000 OA
ENDBRANCH  13  14
ENDBRANCH  10  13
TORSDOF 2
ENDMDL
MODEL 6
REMARK VINA RESULT:      -6.1      3.693      5.862
REMARK  Name = 
REMARK  2 active torsions:
REMARK  status: ('A' for Active; 'I' for Inactive)
REMARK    1  A    between atoms: C_10  and  N_11
REMARK    2  A    between atoms: N_11  and  C_12
REMARK                            x       y       z     vdW  Elec       q    Type
REMARK                         _______ _______ _______ _____ _____    ______ ____
ROOT
ATOM      1  C   UNL     1      34.890  25.345  24.856  0.00  0.00    +0.000 C 
ATOM      2  C   UNL     1      33.717  24.737  25.547  0.00  0.00    +0.000 A 
ATOM      3  C   UNL     1      33.728  24.496  26.915  0.00  0.00    +0.000 A 
ATOM      4  C   UNL     1      32.684  23.944  27.597  0.00  0.00    +0.000 A 
ATOM      5  C   UNL     1      31.537  23.597  26.889  0.00  0.00    +0.000 A 
ATOM      6  N   UNL     1      30.469  23.052  27.483  0.00  0.00    +0.000 NA
ATOM      7  C   UNL     1      29.369  22.722  26.793  0.00  0.00    +0.000 A 
ATOM      8  C   UNL     1      28.170  22.112  27.438  0.00  0.00    +0.000 C 
ATOM      9  C   UNL     1      29.301  22.937  25.437  0.00  0.00    +0.000 A 
ATOM     10  C   UNL     1      30.360  23.492  24.778  0.00  0.00    +0.000 A 
ATOM     11  C   UNL     1      31.476  23.819  25.518  0.00  0.00    +0.000 A 
ATOM     12  C   UNL     1      32.563  24.382  24.879  0.00  0.00    +0.000 A 
ENDROOT
BRANCH  10  13
ATOM     13  N   UNL     1      30.297  23.719  23.368  0.00  0.00    +0.000 NA
BRANCH  13  14
ATOM     14  C   UNL     1      29.444  24.687  22.796  0.00  0.00    +0.000 A 
ATOM     15  C   UNL     1      29.813  26.018  22.902  0.00  0.00    +0.000 A 
ATOM     16  C   UNL     1      29.037  27.014  22.372  0.00  0.00    +0.000 A 
ATOM     17  C   UNL     1      27.854  26.663  21.716  0.00  0.00    +0.000 A 
ATOM     18  C   UNL     1      27.484  25.336  21.611  0.00  0.00    +0.000 A 
ATOM     19  C   UNL     1      28.279  24.331  22.152  0.00  0.00    +0.000 A 
ATOM     20  O   UNL     1      27.929  22.987  22.060  0.00  0.00    +0.000 OA
ENDBRANCH  13  14
ENDBRANCH  10  13
TORSDOF 2
ENDMDL
MODEL 7
REMARK VINA RESULT:      -5.9      2.005      3.634
REMARK  Name = 
REMARK  2 active torsions:
REMARK  status: ('A' for Active; 'I' for Inactive)
REMARK    1  A    between atoms: C_10  and  N_11
REMARK    2  A    between atoms: N_11  and  C_12
REMARK                            x       y       z     vdW  Elec       q    Type
REMARK                         _______ _______ _______ _____ _____    ______ ____
ROOT
ATOM      1  C   UNL     1      23.338  26.051  27.235  0.00  0.00    +0.000 C 
ATOM      2  C   UNL     1      24.601  25.275  27.382  0.00  0.00    +0.000 A 
ATOM      3  C   UNL     1      25.107  24.947  28.635  0.00  0.00    +0.000 A 
ATOM      4  C   UNL     1      26.257  24.239  28.827  0.00  0.00    +0.000 A 
ATOM      5  C   UNL     1      26.972  23.816  27.711  0.00  0.00    +0.000 A 
ATOM      6  N   UNL     1      28.108  23.117  27.814  0.00  0.00    +0.000 NA
ATOM      7  C   UNL     1      28.789  22.713  26.733  0.00  0.00    +0.000 A 
ATOM      8  C   UNL     1      30.057  21.934  26.828  0.00  0.00    +0.000 C 
ATOM      9  C   UNL     1      28.337  23.008  25.469  0.00  0.00    +0.000 A 
ATOM     10  C   UNL     1      27.182  23.719  25.303  0.00  0.00    +0.000 A 
ATOM     11  C   UNL     1      26.506  24.118  26.436  0.00  0.00    +0.000 A 
ATOM     12  C   UNL     1      25.336  24.838  26.300  0.00  0.00    +0.000 A 
ENDROOT
BRANCH  10  13
ATOM     13  N   UNL     1      26.706  24.028  23.991  0.00  0.00    +0.000 NA
BRANCH  13  14
ATOM     14  C   UNL     1      27.391  24.907  23.126  0.00  0.00    +0.000 A 
ATOM     15  C   UNL     1      27.305  26.265  23.383  0.00  0.00    +0.000 A 
ATOM     16  C   UNL     1      27.943  27.180  22.588  0.00  0.00    +0.000 A 
ATOM     17  C   UNL     1      28.690  26.716  21.501  0.00  0.00    +0.000 A 
ATOM     18  C   UNL     1      28.776  25.362  21.244  0.00  0.00    +0.000 A 
ATOM     19  C   UNL     1      28.125  24.440  22.057  0.00  0.00    +0.000 A 
ATOM     20  O   UNL     1      28.195  23.070  21.820  0.00  0.00    +0.000 OA
ENDBRANCH  13  14
ENDBRANCH  10  13
TORSDOF 2
ENDMDL
MODEL 8
REMARK VINA RESULT:      -5.9      3.516      5.626
REMARK  Name = 
REMARK  2 active torsions:
REMARK  status: ('A' for Active; 'I' for Inactive)
REMARK    1  A    between atoms: C_10  and  N_11
REMARK    2  A    between atoms: N_11  and  C_12
REMARK                            x       y       z     vdW  Elec       q    Type
REMARK                         _______ _______ _______ _____ _____    ______ ____
ROOT
ATOM      1  C   UNL     1      28.058  23.539  22.305  0.00  0.00    +0.000 C 
ATOM      2  C   UNL     1      27.556  23.531  23.708  0.00  0.00    +0.000 A 
ATOM      3  C   UNL     1      26.297  24.024  24.029  0.00  0.00    +0.000 A 
ATOM      4  C   UNL     1      25.788  24.041  25.295  0.00  0.00    +0.000 A 
ATOM      5  C   UNL     1      26.568  23.537  26.331  0.00  0.00    +0.000 A 
ATOM      6  N   UNL     1      26.142  23.516  27.599  0.00  0.00    +0.000 NA
ATOM      7  C   UNL     1      26.900  23.028  28.591  0.00  0.00    +0.000 A 
ATOM      8  C   UNL     1      26.442  22.997  30.010  0.00  0.00    +0.000 C 
ATOM      9  C   UNL     1      28.154  22.527  28.333  0.00  0.00    +0.000 A 
ATOM     10  C   UNL     1      28.640  22.521  27.057  0.00  0.00    +0.000 A 
ATOM     11  C   UNL     1      27.834  23.031  26.061  0.00  0.00    +0.000 A 
ATOM     12  C   UNL     1      28.299  23.039  24.761  0.00  0.00    +0.000 A 
ENDROOT
BRANCH  10  13
ATOM     13  N   UNL     1      29.943  22.001  26.781  0.00  0.00    +0.000 NA
BRANCH  13  14
ATOM     14  C   UNL     1      31.098  22.466  27.446  0.00  0.00    +0.000 A 
ATOM     15  C   UNL     1      31.584  21.713  28.501  0.00  0.00    +0.000 A 
ATOM     16  C   UNL     1      32.700  22.099  29.194  0.00  0.00    +0.000 A 
ATOM     17  C   UNL     1      33.348  23.278  28.815  0.00  0.00    +0.000 A 
ATOM     18  C   UNL     1      32.864  24.030  27.762  0.00  0.00    +0.000 A 
ATOM     19  C   UNL     1      31.730  23.629  27.064  0.00  0.00    +0.000 A 
ATOM     20  O   UNL     1      31.221  24.369  26.000  0.00  0.00    +0.000 OA
ENDBRANCH  13  14
ENDBRANCH  10  13
TORSDOF 2
ENDMDL
MODEL 9
REMARK VINA RESULT:      -5.8      2.953      4.227
REMARK  Name = 
REMARK  2 active torsions:
REMARK  status: ('A' for Active; 'I' for Inactive)
REMARK    1  A    between atoms: C_10  and  N_11
REMARK    2  A    between atoms: N_11  and  C_12
REMARK                            x       y       z     vdW  Elec       q    Type
REMARK                         _______ _______ _______ _____ _____    ______ ____
ROOT
ATOM      1  C   UNL     1      25.439  25.492  30.763  0.00  0.00    +0.000 C 
ATOM      2  C   UNL     1      25.365  25.229  29.298  0.00  0.00    +0.000 A 
ATOM      3  C   UNL     1      24.507  25.950  28.476  0.00  0.00    +0.000 A 
ATOM      4  C   UNL     1      24.399  25.751  27.131  0.00  0.00    +0.000 A 
ATOM      5  C   UNL     1      25.190  24.771  26.538  0.00  0.00    +0.000 A 
ATOM      6  N   UNL     1      25.145  24.515  25.226  0.00  0.00    +0.000 NA
ATOM      7  C   UNL     1      25.910  23.569  24.664  0.00  0.00    +0.000 A 
ATOM      8  C   UNL     1      25.872  23.269  23.204  0.00  0.00    +0.000 C 
ATOM      9  C   UNL     1      26.777  22.824  25.428  0.00  0.00    +0.000 A 
ATOM     10  C   UNL     1      26.866  23.043  26.773  0.00  0.00    +0.000 A 
ATOM     11  C   UNL     1      26.065  24.023  27.318  0.00  0.00    +0.000 A 
ATOM     12  C   UNL     1      26.133  24.267  28.675  0.00  0.00    +0.000 A 
ENDROOT
BRANCH  10  13
ATOM     13  N   UNL     1      27.767  22.273  27.573  0.00  0.00    +0.000 NA
BRANCH  13  14
ATOM     14  C   UNL     1      29.143  22.571  27.662  0.00  0.00    +0.000 A 
ATOM     15  C   UNL     1      29.861  22.664  26.482  0.00  0.00    +0.000 A 
ATOM     16  C   UNL     1      31.201  22.951  26.487  0.00  0.00    +0.000 A 
ATOM     17  C   UNL     1      31.838  23.148  27.715  0.00  0.00    +0.000 A 
ATOM     18  C   UNL     1      31.122  23.053  28.893  0.00  0.00    +0.000 A 
ATOM     19  C   UNL     1      29.762  22.763  28.877  0.00  0.00    +0.000 A 
ATOM     20  O   UNL     1      29.017  22.662  30.050  0.00  0.00    +0.000 OA
ENDBRANCH  13  14
ENDBRANCH  10  13
TORSDOF 2
ENDMDL
MODEL 10
REMARK VINA RESULT:      -5.8     22.304     25.365
REMARK  Name = 
REMARK  2 active torsions:
REMARK  status: ('A' for Active; 'I' for Inactive)
REMARK    1  A    between atoms: C_10  and  N_11
REMARK    2  A    between atoms: N_11  and  C_12
REMARK                            x       y       z     vdW  Elec       q    Type
REMARK                         _______ _______ _______ _____ _____    ______ ____
ROOT
ATOM      1  C   UNL     1      17.929   9.844  38.584  0.00  0.00    +0.000 C 
ATOM      2  C   UNL     1      17.547   9.070  39.799  0.00  0.00    +0.000 A 
ATOM      3  C   UNL     1      16.742   9.624  40.787  0.00  0.00    +0.000 A 
ATOM      4  C   UNL     1      16.363   8.961  41.917  0.00  0.00    +0.000 A 
ATOM      5  C   UNL     1      16.802   7.654  42.100  0.00  0.00    +0.000 A 
ATOM      6  N   UNL     1      16.474   6.935  43.180  0.00  0.00    +0.000 NA
ATOM      7  C   UNL     1      16.902   5.676  43.347  0.00  0.00    +0.000 A 
ATOM      8  C   UNL     1      16.547   4.861  44.544  0.00  0.00    +0.000 C 
ATOM      9  C   UNL     1      17.701   5.076  42.403  0.00  0.00    +0.000 A 
ATOM     10  C   UNL     1      18.067   5.761  41.280  0.00  0.00    +0.000 A 
ATOM     11  C   UNL     1      17.609   7.054  41.139  0.00  0.00    +0.000 A 
ATOM     12  C   UNL     1      17.963   7.772  40.014  0.00  0.00    +0.000 A 
ENDROOT
BRANCH  10  13
ATOM     13  N   UNL     1      18.897   5.143  40.293  0.00  0.00    +0.000 NA
BRANCH  13  14
ATOM     14  C   UNL     1      20.233   4.773  40.554  0.00  0.00    +0.000 A 
ATOM     15  C   UNL     1      21.159   5.786  40.740  0.00  0.00    +0.000 A 
ATOM     16  C   UNL     1      22.475   5.506  40.997  0.00  0.00    +0.000 A 
ATOM     17  C   UNL     1      22.872   4.167  41.070  0.00  0.00    +0.000 A 
ATOM     18  C   UNL     1      21.949   3.157  40.885  0.00  0.00    +0.000 A 
ATOM     19  C   UNL     1      20.615   3.452  40.624  0.00  0.00    +0.000 A 
ATOM     20  O   UNL     1      19.664   2.452  40.433  0.00  0.00    +0.000 OA
ENDBRANCH  13  14
ENDBRANCH  10  13
TORSDOF 2
ENDMDL
