MODEL 1
REMARK VINA RESULT:      -7.9      0.000      0.000
REMARK  Name = 
REMARK  8 active torsions:
REMARK  status: ('A' for Active; 'I' for Inactive)
REMARK    1  A    between atoms: C_2  and  O_3
REMARK    2  A    between atoms: O_3  and  C_4
REMARK    3  A    between atoms: C_7  and  N_8
REMARK    4  A    between atoms: N_8  and  C_9
REMARK    5  A    between atoms: C_10  and  S_11
REMARK    6  A    between atoms: S_11  and  C_12
REMARK    7  A    between atoms: N_20  and  C_21
REMARK    8  A    between atoms: C_26  and  O_27
REMARK                            x       y       z     vdW  Elec       q    Type
REMARK                         _______ _______ _______ _____ _____    ______ ____
ROOT
ATOM      1  C   UNL     1      37.390   4.049  15.951  0.00  0.00    +0.000 C 
ATOM      2  C   UNL     1      37.121   3.725  14.696  0.00  0.00    +0.000 C 
ATOM      3  C   UNL     1      36.622   2.362  14.619  0.00  0.00    +0.000 C 
ATOM      4  O   UNL     1      36.271   1.744  13.563  0.00  0.00    +0.000 OA
ATOM      5  N   UNL     1      36.585   1.815  15.942  0.00  0.00    +0.000 N 
ATOM      6  C   UNL     1      37.075   2.901  16.758  0.00  0.00    +0.000 C 
ATOM      7  O   UNL     1      37.175   2.760  17.997  0.00  0.00    +0.000 OA
ENDROOT
BRANCH   5   8
ATOM      8  C   UNL     1      36.174   0.533  16.361  0.00  0.00    +0.000 A 
ATOM      9  C   UNL     1      34.897   0.299  16.804  0.00  0.00    +0.000 A 
ATOM     10  C   UNL     1      34.497  -0.979  17.218  0.00  0.00    +0.000 A 
ATOM     11  C   UNL     1      35.384  -2.008  17.186  0.00  0.00    +0.000 A 
ATOM     12  C   UNL     1      36.674  -1.764  16.738  0.00  0.00    +0.000 A 
ATOM     13  C   UNL     1      37.060  -0.506  16.332  0.00  0.00    +0.000 A 
BRANCH  13  14
ATOM     14  O   UNL     1      38.345  -0.294  15.892  0.00  0.00    +0.000 OA
ATOM     15  C   UNL     1      38.822  -0.736  14.635  0.00  0.00    +0.000 C 
ENDBRANCH  13  14
ENDBRANCH   5   8
BRANCH   1  16
ATOM     16  N   UNL     1      37.884   5.294  16.330  0.00  0.00    +0.000 NA
BRANCH  16  20
ATOM     17  C   UNL     1      41.260   6.330  18.561  0.00  0.00    +0.000 A 
ATOM     18  C   UNL     1      41.286   6.284  17.185  0.00  0.00    +0.000 A 
ATOM     19  C   UNL     1      40.148   5.938  16.503  0.00  0.00    +0.000 A 
ATOM     20  C   UNL     1      38.946   5.626  17.162  0.00  0.00    +0.000 A 
ATOM     21  C   UNL     1      38.980   5.687  18.517  0.00  0.00    +0.000 A 
ATOM     22  C   UNL     1      40.100   6.031  19.237  0.00  0.00    +0.000 A 
BRANCH  17  23
ATOM     23  O   UNL     1      42.421   6.684  19.272  0.00  0.00    +0.000 OA
BRANCH  23  25
ATOM     24  C   UNL     1      43.287   5.916  21.399  0.00  0.00    +0.000 C 
ATOM     25  C   UNL     1      42.409   6.883  20.655  0.00  0.00    +0.000 C 
ENDBRANCH  23  25
ENDBRANCH  17  23
ENDBRANCH  16  20
ENDBRANCH   1  16
BRANCH   2  26
ATOM     26  S   UNL     1      37.346   4.825  13.281  0.00  0.00    +0.000 S 
BRANCH  26  27
ATOM     27  C   UNL     1      35.859   5.746  12.966  0.00  0.00    +0.000 A 
ATOM     28  C   UNL     1      34.929   6.028  13.942  0.00  0.00    +0.000 A 
ATOM     29  C   UNL     1      33.783   6.756  13.626  0.00  0.00    +0.000 A 
ATOM     30  C   UNL     1      33.558   7.205  12.349  0.00  0.00    +0.000 A 
ATOM     31  C   UNL     1      34.486   6.924  11.377  0.00  0.00    +0.000 A 
ATOM     32  C   UNL     1      35.620   6.202  11.689  0.00  0.00    +0.000 A 
ENDBRANCH  26  27
ENDBRANCH   2  26
TORSDOF 8
ENDMDL
MODEL 2
REMARK VINA RESULT:      -7.8      0.549      1.004
REMARK  Name = 
REMARK  8 active torsions:
REMARK  status: ('A' for Active; 'I' for Inactive)
REMARK    1  A    between atoms: C_2  and  O_3
REMARK    2  A    between atoms: O_3  and  C_4
REMARK    3  A    between atoms: C_7  and  N_8
REMARK    4  A    between atoms: N_8  and  C_9
REMARK    5  A    between atoms: C_10  and  S_11
REMARK    6  A    between atoms: S_11  and  C_12
REMARK    7  A    between atoms: N_20  and  C_21
REMARK    8  A    between atoms: C_26  and  O_27
REMARK                            x       y       z     vdW  Elec       q    Type
REMARK                         _______ _______ _______ _____ _____    ______ ____
ROOT
ATOM      1  C   UNL     1      37.612   4.550  16.115  0.00  0.00    +0.000 C 
ATOM      2  C   UNL     1      37.288   4.348  14.848  0.00  0.00    +0.000 C 
ATOM      3  C   UNL     1      36.733   3.016  14.673  0.00  0.00    +0.000 C 
ATOM      4  O   UNL     1      36.321   2.507  13.581  0.00  0.00    +0.000 OA
ATOM      5  N   UNL     1      36.721   2.356  15.943  0.00  0.00    +0.000 N 
ATOM      6  C   UNL     1      37.281   3.348  16.831  0.00  0.00    +0.000 C 
ATOM      7  O   UNL     1      37.417   3.094  18.048  0.00  0.00    +0.000 OA
ENDROOT
BRANCH   5   8
ATOM      8  C   UNL     1      36.274   1.058  16.265  0.00  0.00    +0.000 A 
ATOM      9  C   UNL     1      35.022   0.838  16.780  0.00  0.00    +0.000 A 
ATOM     10  C   UNL     1      34.586  -0.456  17.097  0.00  0.00    +0.000 A 
ATOM     11  C   UNL     1      35.413  -1.515  16.895  0.00  0.00    +0.000 A 
ATOM     12  C   UNL     1      36.678  -1.286  16.374  0.00  0.00    +0.000 A 
ATOM     13  C   UNL     1      37.099  -0.011  16.065  0.00  0.00    +0.000 A 
BRANCH  13  14
ATOM     14  O   UNL     1      38.358   0.186  15.549  0.00  0.00    +0.000 OA
ATOM     15  C   UNL     1      38.815  -0.419  14.354  0.00  0.00    +0.000 C 
ENDBRANCH  13  14
ENDBRANCH   5   8
BRANCH   1  16
ATOM     16  N   UNL     1      38.168   5.738  16.582  0.00  0.00    +0.000 NA
BRANCH  16  20
ATOM     17  C   UNL     1      41.488   6.414  19.025  0.00  0.00    +0.000 A 
ATOM     18  C   UNL     1      41.593   6.378  17.652  0.00  0.00    +0.000 A 
ATOM     19  C   UNL     1      40.470   6.153  16.898  0.00  0.00    +0.000 A 
ATOM     20  C   UNL     1      39.205   5.955  17.480  0.00  0.00    +0.000 A 
ATOM     21  C   UNL     1      39.164   6.000  18.835  0.00  0.00    +0.000 A 
ATOM     22  C   UNL     1      40.266   6.224  19.626  0.00  0.00    +0.000 A 
BRANCH  17  23
ATOM     23  O   UNL     1      42.634   6.644  19.808  0.00  0.00    +0.000 OA
BRANCH  23  25
ATOM     24  C   UNL     1      44.124   5.719  21.478  0.00  0.00    +0.000 C 
ATOM     25  C   UNL     1      42.737   6.176  21.121  0.00  0.00    +0.000 C 
ENDBRANCH  23  25
ENDBRANCH  17  23
ENDBRANCH  16  20
ENDBRANCH   1  16
BRANCH   2  26
ATOM     26  S   UNL     1      37.507   5.560  13.526  0.00  0.00    +0.000 S 
BRANCH  26  27
ATOM     27  C   UNL     1      35.933   6.185  12.988  0.00  0.00    +0.000 A 
ATOM     28  C   UNL     1      35.652   6.483  11.674  0.00  0.00    +0.000 A 
ATOM     29  C   UNL     1      34.395   6.971  11.320  0.00  0.00    +0.000 A 
ATOM     30  C   UNL     1      33.418   7.162  12.264  0.00  0.00    +0.000 A 
ATOM     31  C   UNL     1      33.698   6.864  13.574  0.00  0.00    +0.000 A 
ATOM     32  C   UNL     1      34.943   6.383  13.925  0.00  0.00    +0.000 A 
ENDBRANCH  26  27
ENDBRANCH   2  26
TORSDOF 8
ENDMDL
MODEL 3
REMARK VINA RESULT:      -7.7      2.035      6.920
REMARK  Name = 
REMARK  8 active torsions:
REMARK  status: ('A' for Active; 'I' for Inactive)
REMARK    1  A    between atoms: C_2  and  O_3
REMARK    2  A    between atoms: O_3  and  C_4
REMARK    3  A    between atoms: C_7  and  N_8
REMARK    4  A    between atoms: N_8  and  C_9
REMARK    5  A    between atoms: C_10  and  S_11
REMARK    6  A    between atoms: S_11  and  C_12
REMARK    7  A    between atoms: N_20  and  C_21
REMARK    8  A    between atoms: C_26  and  O_27
REMARK                            x       y       z     vdW  Elec       q    Type
REMARK                         _______ _______ _______ _____ _____    ______ ____
ROOT
ATOM      1  C   UNL     1      36.529   4.176  14.703  0.00  0.00    +0.000 C 
ATOM      2  C   UNL     1      37.843   4.075  14.831  0.00  0.00    +0.000 C 
ATOM      3  C   UNL     1      38.237   2.680  14.936  0.00  0.00    +0.000 C 
ATOM      4  O   UNL     1      39.424   2.238  15.068  0.00  0.00    +0.000 OA
ATOM      5  N   UNL     1      37.060   1.867  14.866  0.00  0.00    +0.000 N 
ATOM      6  C   UNL     1      36.001   2.839  14.719  0.00  0.00    +0.000 C 
ATOM      7  O   UNL     1      34.813   2.461  14.627  0.00  0.00    +0.000 OA
ENDROOT
BRANCH   5   8
ATOM      8  C   UNL     1      36.946   0.463  14.923  0.00  0.00    +0.000 A 
ATOM      9  C   UNL     1      37.029  -0.309  13.792  0.00  0.00    +0.000 A 
ATOM     10  C   UNL     1      36.915  -1.705  13.858  0.00  0.00    +0.000 A 
ATOM     11  C   UNL     1      36.718  -2.310  15.059  0.00  0.00    +0.000 A 
ATOM     12  C   UNL     1      36.635  -1.524  16.198  0.00  0.00    +0.000 A 
ATOM     13  C   UNL     1      36.749  -0.153  16.125  0.00  0.00    +0.000 A 
BRANCH  13  14
ATOM     14  O   UNL     1      36.663   0.602  17.272  0.00  0.00    +0.000 OA
ATOM     15  C   UNL     1      35.662   0.417  18.254  0.00  0.00    +0.000 C 
ENDBRANCH  13  14
ENDBRANCH   5   8
BRANCH   1  16
ATOM     16  N   UNL     1      35.864   5.393  14.582  0.00  0.00    +0.000 NA
BRANCH  16  20
ATOM     17  C   UNL     1      34.199   7.017  11.113  0.00  0.00    +0.000 A 
ATOM     18  C   UNL     1      35.409   6.359  11.098  0.00  0.00    +0.000 A 
ATOM     19  C   UNL     1      35.909   5.845  12.267  0.00  0.00    +0.000 A 
ATOM     20  C   UNL     1      35.225   5.965  13.490  0.00  0.00    +0.000 A 
ATOM     21  C   UNL     1      34.040   6.624  13.444  0.00  0.00    +0.000 A 
ATOM     22  C   UNL     1      33.505   7.153  12.293  0.00  0.00    +0.000 A 
BRANCH  17  23
ATOM     23  O   UNL     1      33.676   7.549   9.920  0.00  0.00    +0.000 OA
BRANCH  23  25
ATOM     24  C   UNL     1      33.496   6.426   7.783  0.00  0.00    +0.000 C 
ATOM     25  C   UNL     1      34.288   7.333   8.684  0.00  0.00    +0.000 C 
ENDBRANCH  23  25
ENDBRANCH  17  23
ENDBRANCH  16  20
ENDBRANCH   1  16
BRANCH   2  26
ATOM     26  S   UNL     1      38.981   5.477  14.869  0.00  0.00    +0.000 S 
BRANCH  26  27
ATOM     27  C   UNL     1      39.588   5.742  16.518  0.00  0.00    +0.000 A 
ATOM     28  C   UNL     1      40.830   6.271  16.786  0.00  0.00    +0.000 A 
ATOM     29  C   UNL     1      41.244   6.452  18.105  0.00  0.00    +0.000 A 
ATOM     30  C   UNL     1      40.430   6.112  19.156  0.00  0.00    +0.000 A 
ATOM     31  C   UNL     1      39.191   5.585  18.888  0.00  0.00    +0.000 A 
ATOM     32  C   UNL     1      38.782   5.404  17.583  0.00  0.00    +0.000 A 
ENDBRANCH  26  27
ENDBRANCH   2  26
TORSDOF 8
ENDMDL
MODEL 4
REMARK VINA RESULT:      -7.5      2.837      8.301
REMARK  Name = 
REMARK  8 active torsions:
REMARK  status: ('A' for Active; 'I' for Inactive)
REMARK    1  A    between atoms: C_2  and  O_3
REMARK    2  A    between atoms: O_3  and  C_4
REMARK    3  A    between atoms: C_7  and  N_8
REMARK    4  A    between atoms: N_8  and  C_9
REMARK    5  A    between atoms: C_10  and  S_11
REMARK    6  A    between atoms: S_11  and  C_12
REMARK    7  A    between atoms: N_20  and  C_21
REMARK    8  A    between atoms: C_26  and  O_27
REMARK                            x       y       z     vdW  Elec       q    Type
REMARK                         _______ _______ _______ _____ _____    ______ ____
ROOT
ATOM      1  C   UNL     1      37.403   2.534  14.850  0.00  0.00    +0.000 C 
ATOM      2  C   UNL     1      38.528   2.892  14.251  0.00  0.00    +0.000 C 
ATOM      3  C   UNL     1      39.158   3.988  14.969  0.00  0.00    +0.000 C 
ATOM      4  O   UNL     1      40.249   4.566  14.660  0.00  0.00    +0.000 OA
ATOM      5  N   UNL     1      38.343   4.321  16.099  0.00  0.00    +0.000 N 
ATOM      6  C   UNL     1      37.245   3.388  15.996  0.00  0.00    +0.000 C 
ATOM      7  O   UNL     1      36.328   3.404  16.846  0.00  0.00    +0.000 OA
ENDROOT
BRANCH   5   8
ATOM      8  C   UNL     1      38.549   5.313  17.080  0.00  0.00    +0.000 A 
ATOM      9  C   UNL     1      39.153   5.022  18.277  0.00  0.00    +0.000 A 
ATOM     10  C   UNL     1      39.354   6.014  19.247  0.00  0.00    +0.000 A 
ATOM     11  C   UNL     1      38.945   7.288  19.005  0.00  0.00    +0.000 A 
ATOM     12  C   UNL     1      38.334   7.575  17.793  0.00  0.00    +0.000 A 
ATOM     13  C   UNL     1      38.141   6.594  16.845  0.00  0.00    +0.000 A 
BRANCH  13  14
ATOM     14  O   UNL     1      37.534   6.908  15.651  0.00  0.00    +0.000 OA
ATOM     15  C   UNL     1      38.181   7.614  14.610  0.00  0.00    +0.000 C 
ENDBRANCH  13  14
ENDBRANCH   5   8
BRANCH   1  16
ATOM     16  N   UNL     1      36.583   1.509  14.386  0.00  0.00    +0.000 NA
BRANCH  16  20
ATOM     17  C   UNL     1      35.677  -2.267  15.925  0.00  0.00    +0.000 A 
ATOM     18  C   UNL     1      36.447  -2.110  14.793  0.00  0.00    +0.000 A 
ATOM     19  C   UNL     1      36.714  -0.846  14.332  0.00  0.00    +0.000 A 
ATOM     20  C   UNL     1      36.226   0.304  14.977  0.00  0.00    +0.000 A 
ATOM     21  C   UNL     1      35.473   0.088  16.085  0.00  0.00    +0.000 A 
ATOM     22  C   UNL     1      35.184  -1.162  16.579  0.00  0.00    +0.000 A 
BRANCH  17  23
ATOM     23  O   UNL     1      35.396  -3.558  16.407  0.00  0.00    +0.000 OA
BRANCH  23  25
ATOM     24  C   UNL     1      33.636  -4.400  14.972  0.00  0.00    +0.000 C 
ATOM     25  C   UNL     1      35.008  -4.596  15.557  0.00  0.00    +0.000 C 
ENDBRANCH  23  25
ENDBRANCH  17  23
ENDBRANCH  16  20
ENDBRANCH   1  16
BRANCH   2  26
ATOM     26  S   UNL     1      39.183   2.125  12.753  0.00  0.00    +0.000 S 
BRANCH  26  27
ATOM     27  C   UNL     1      39.704   0.459  13.085  0.00  0.00    +0.000 A 
ATOM     28  C   UNL     1      39.632  -0.551  12.152  0.00  0.00    +0.000 A 
ATOM     29  C   UNL     1      40.058  -1.837  12.477  0.00  0.00    +0.000 A 
ATOM     30  C   UNL     1      40.557  -2.123  13.724  0.00  0.00    +0.000 A 
ATOM     31  C   UNL     1      40.630  -1.116  14.653  0.00  0.00    +0.000 A 
ATOM     32  C   UNL     1      40.206   0.156  14.331  0.00  0.00    +0.000 A 
ENDBRANCH  26  27
ENDBRANCH   2  26
TORSDOF 8
ENDMDL
MODEL 5
REMARK VINA RESULT:      -7.3      1.894      6.779
REMARK  Name = 
REMARK  8 active torsions:
REMARK  status: ('A' for Active; 'I' for Inactive)
REMARK    1  A    between atoms: C_2  and  O_3
REMARK    2  A    between atoms: O_3  and  C_4
REMARK    3  A    between atoms: C_7  and  N_8
REMARK    4  A    between atoms: N_8  and  C_9
REMARK    5  A    between atoms: C_10  and  S_11
REMARK    6  A    between atoms: S_11  and  C_12
REMARK    7  A    between atoms: N_20  and  C_21
REMARK    8  A    between atoms: C_26  and  O_27
REMARK                            x       y       z     vdW  Elec       q    Type
REMARK                         _______ _______ _______ _____ _____    ______ ____
ROOT
ATOM      1  C   UNL     1      37.468   4.203  15.800  0.00  0.00    +0.000 C 
ATOM      2  C   UNL     1      37.867   5.159  14.975  0.00  0.00    +0.000 C 
ATOM      3  C   UNL     1      38.719   6.108  15.674  0.00  0.00    +0.000 C 
ATOM      4  O   UNL     1      39.268   7.141  15.172  0.00  0.00    +0.000 OA
ATOM      5  N   UNL     1      38.844   5.690  17.037  0.00  0.00    +0.000 N 
ATOM      6  C   UNL     1      38.045   4.488  17.086  0.00  0.00    +0.000 C 
ATOM      7  O   UNL     1      37.934   3.851  18.156  0.00  0.00    +0.000 OA
ENDROOT
BRANCH   5   8
ATOM      8  C   UNL     1      39.568   6.293  18.087  0.00  0.00    +0.000 A 
ATOM      9  C   UNL     1      40.892   6.006  18.302  0.00  0.00    +0.000 A 
ATOM     10  C   UNL     1      41.603   6.610  19.349  0.00  0.00    +0.000 A 
ATOM     11  C   UNL     1      40.976   7.494  20.169  0.00  0.00    +0.000 A 
ATOM     12  C   UNL     1      39.638   7.780  19.946  0.00  0.00    +0.000 A 
ATOM     13  C   UNL     1      38.946   7.182  18.915  0.00  0.00    +0.000 A 
BRANCH  13  14
ATOM     14  O   UNL     1      37.618   7.485  18.718  0.00  0.00    +0.000 OA
ATOM     15  C   UNL     1      36.975   8.594  19.315  0.00  0.00    +0.000 C 
ENDBRANCH  13  14
ENDBRANCH   5   8
BRANCH   1  16
ATOM     16  N   UNL     1      36.640   3.154  15.410  0.00  0.00    +0.000 NA
BRANCH  16  20
ATOM     17  C   UNL     1      36.328  -0.760  16.833  0.00  0.00    +0.000 A 
ATOM     18  C   UNL     1      35.503   0.245  17.289  0.00  0.00    +0.000 A 
ATOM     19  C   UNL     1      35.650   1.513  16.786  0.00  0.00    +0.000 A 
ATOM     20  C   UNL     1      36.618   1.826  15.816  0.00  0.00    +0.000 A 
ATOM     21  C   UNL     1      37.401   0.796  15.406  0.00  0.00    +0.000 A 
ATOM     22  C   UNL     1      37.285  -0.488  15.884  0.00  0.00    +0.000 A 
BRANCH  17  23
ATOM     23  O   UNL     1      36.187  -2.065  17.341  0.00  0.00    +0.000 OA
BRANCH  23  25
ATOM     24  C   UNL     1      37.567  -1.964  19.329  0.00  0.00    +0.000 C 
ATOM     25  C   UNL     1      37.207  -2.691  18.062  0.00  0.00    +0.000 C 
ENDBRANCH  23  25
ENDBRANCH  17  23
ENDBRANCH  16  20
ENDBRANCH   1  16
BRANCH   2  26
ATOM     26  S   UNL     1      37.415   5.264  13.230  0.00  0.00    +0.000 S 
BRANCH  26  27
ATOM     27  C   UNL     1      35.816   6.017  13.046  0.00  0.00    +0.000 A 
ATOM     28  C   UNL     1      34.964   6.239  14.104  0.00  0.00    +0.000 A 
ATOM     29  C   UNL     1      33.722   6.835  13.889  0.00  0.00    +0.000 A 
ATOM     30  C   UNL     1      33.325   7.211  12.630  0.00  0.00    +0.000 A 
ATOM     31  C   UNL     1      34.175   6.989  11.576  0.00  0.00    +0.000 A 
ATOM     32  C   UNL     1      35.404   6.399  11.789  0.00  0.00    +0.000 A 
ENDBRANCH  26  27
ENDBRANCH   2  26
TORSDOF 8
ENDMDL
MODEL 6
REMARK VINA RESULT:      -7.3      2.926      8.031
REMARK  Name = 
REMARK  8 active torsions:
REMARK  status: ('A' for Active; 'I' for Inactive)
REMARK    1  A    between atoms: C_2  and  O_3
REMARK    2  A    between atoms: O_3  and  C_4
REMARK    3  A    between atoms: C_7  and  N_8
REMARK    4  A    between atoms: N_8  and  C_9
REMARK    5  A    between atoms: C_10  and  S_11
REMARK    6  A    between atoms: S_11  and  C_12
REMARK    7  A    between atoms: N_20  and  C_21
REMARK    8  A    between atoms: C_26  and  O_27
REMARK                            x       y       z     vdW  Elec       q    Type
REMARK                         _______ _______ _______ _____ _____    ______ ____
ROOT
ATOM      1  C   UNL     1      38.474   2.430  14.334  0.00  0.00    +0.000 C 
ATOM      2  C   UNL     1      37.400   2.080  15.023  0.00  0.00    +0.000 C 
ATOM      3  C   UNL     1      37.188   2.995  16.132  0.00  0.00    +0.000 C 
ATOM      4  O   UNL     1      36.245   2.941  16.987  0.00  0.00    +0.000 OA
ATOM      5  N   UNL     1      38.223   3.984  16.112  0.00  0.00    +0.000 N 
ATOM      6  C   UNL     1      39.018   3.601  14.968  0.00  0.00    +0.000 C 
ATOM      7  O   UNL     1      40.027   4.269  14.655  0.00  0.00    +0.000 OA
ENDROOT
BRANCH   5   8
ATOM      8  C   UNL     1      38.429   5.071  16.986  0.00  0.00    +0.000 A 
ATOM      9  C   UNL     1      38.999   4.898  18.222  0.00  0.00    +0.000 A 
ATOM     10  C   UNL     1      39.201   5.985  19.085  0.00  0.00    +0.000 A 
ATOM     11  C   UNL     1      38.827   7.233  18.697  0.00  0.00    +0.000 A 
ATOM     12  C   UNL     1      38.251   7.400  17.447  0.00  0.00    +0.000 A 
ATOM     13  C   UNL     1      38.056   6.328  16.605  0.00  0.00    +0.000 A 
BRANCH  13  14
ATOM     14  O   UNL     1      37.483   6.523  15.370  0.00  0.00    +0.000 OA
ATOM     15  C   UNL     1      36.820   7.717  14.999  0.00  0.00    +0.000 C 
ENDBRANCH  13  14
ENDBRANCH   5   8
BRANCH   1  16
ATOM     16  N   UNL     1      38.925   1.736  13.215  0.00  0.00    +0.000 NA
BRANCH  16  20
ATOM     17  C   UNL     1      41.085  -1.839  13.179  0.00  0.00    +0.000 A 
ATOM     18  C   UNL     1      41.312  -0.864  14.125  0.00  0.00    +0.000 A 
ATOM     19  C   UNL     1      40.573   0.291  14.090  0.00  0.00    +0.000 A 
ATOM     20  C   UNL     1      39.584   0.518  13.115  0.00  0.00    +0.000 A 
ATOM     21  C   UNL     1      39.406  -0.476  12.210  0.00  0.00    +0.000 A 
ATOM     22  C   UNL     1      40.125  -1.648  12.212  0.00  0.00    +0.000 A 
BRANCH  17  23
ATOM     23  O   UNL     1      41.837  -3.028  13.204  0.00  0.00    +0.000 OA
BRANCH  23  25
ATOM     24  C   UNL     1      43.409  -2.949  11.364  0.00  0.00    +0.000 C 
ATOM     25  C   UNL     1      43.187  -3.056  12.847  0.00  0.00    +0.000 C 
ENDBRANCH  23  25
ENDBRANCH  17  23
ENDBRANCH  16  20
ENDBRANCH   1  16
BRANCH   2  26
ATOM     26  S   UNL     1      36.349   0.662  14.635  0.00  0.00    +0.000 S 
BRANCH  26  27
ATOM     27  C   UNL     1      37.153  -0.853  15.098  0.00  0.00    +0.000 A 
ATOM     28  C   UNL     1      37.982  -0.960  16.192  0.00  0.00    +0.000 A 
ATOM     29  C   UNL     1      38.582  -2.181  16.499  0.00  0.00    +0.000 A 
ATOM     30  C   UNL     1      38.360  -3.293  15.725  0.00  0.00    +0.000 A 
ATOM     31  C   UNL     1      37.534  -3.185  14.635  0.00  0.00    +0.000 A 
ATOM     32  C   UNL     1      36.941  -1.977  14.331  0.00  0.00    +0.000 A 
ENDBRANCH  26  27
ENDBRANCH   2  26
TORSDOF 8
ENDMDL
MODEL 7
REMARK VINA RESULT:      -7.2      2.946      8.414
REMARK  Name = 
REMARK  8 active torsions:
REMARK  status: ('A' for Active; 'I' for Inactive)
REMARK    1  A    between atoms: C_2  and  O_3
REMARK    2  A    between atoms: O_3  and  C_4
REMARK    3  A    between atoms: C_7  and  N_8
REMARK    4  A    between atoms: N_8  and  C_9
REMARK    5  A    between atoms: C_10  and  S_11
REMARK    6  A    between atoms: S_11  and  C_12
REMARK    7  A    between atoms: N_20  and  C_21
REMARK    8  A    between atoms: C_26  and  O_27
REMARK                            x       y       z     vdW  Elec       q    Type
REMARK                         _______ _______ _______ _____ _____    ______ ____
ROOT
ATOM      1  C   UNL     1      36.829  -0.026  14.628  0.00  0.00    +0.000 C 
ATOM      2  C   UNL     1      35.995   0.117  15.646  0.00  0.00    +0.000 C 
ATOM      3  C   UNL     1      35.722   1.526  15.882  0.00  0.00    +0.000 C 
ATOM      4  O   UNL     1      34.962   2.007  16.784  0.00  0.00    +0.000 OA
ATOM      5  N   UNL     1      36.453   2.299  14.926  0.00  0.00    +0.000 N 
ATOM      6  C   UNL     1      37.141   1.293  14.149  0.00  0.00    +0.000 C 
ATOM      7  O   UNL     1      37.887   1.632  13.205  0.00  0.00    +0.000 OA
ENDROOT
BRANCH   5   8
ATOM      8  C   UNL     1      36.501   3.699  14.766  0.00  0.00    +0.000 A 
ATOM      9  C   UNL     1      35.719   4.342  13.840  0.00  0.00    +0.000 A 
ATOM     10  C   UNL     1      35.773   5.735  13.688  0.00  0.00    +0.000 A 
ATOM     11  C   UNL     1      36.612   6.467  14.467  0.00  0.00    +0.000 A 
ATOM     12  C   UNL     1      37.401   5.811  15.401  0.00  0.00    +0.000 A 
ATOM     13  C   UNL     1      37.342   4.442  15.544  0.00  0.00    +0.000 A 
BRANCH  13  14
ATOM     14  O   UNL     1      38.135   3.818  16.479  0.00  0.00    +0.000 OA
ATOM     15  C   UNL     1      38.529   4.424  17.695  0.00  0.00    +0.000 C 
ENDBRANCH  13  14
ENDBRANCH   5   8
BRANCH   1  16
ATOM     16  N   UNL     1      37.271  -1.265  14.171  0.00  0.00    +0.000 NA
BRANCH  16  20
ATOM     17  C   UNL     1      41.070  -2.827  13.415  0.00  0.00    +0.000 A 
ATOM     18  C   UNL     1      40.104  -2.765  12.436  0.00  0.00    +0.000 A 
ATOM     19  C   UNL     1      38.873  -2.241  12.739  0.00  0.00    +0.000 A 
ATOM     20  C   UNL     1      38.560  -1.762  14.024  0.00  0.00    +0.000 A 
ATOM     21  C   UNL     1      39.550  -1.850  14.947  0.00  0.00    +0.000 A 
ATOM     22  C   UNL     1      40.797  -2.367  14.682  0.00  0.00    +0.000 A 
BRANCH  17  23
ATOM     23  O   UNL     1      42.337  -3.362  13.115  0.00  0.00    +0.000 OA
BRANCH  23  25
ATOM     24  C   UNL     1      43.560  -1.441  12.293  0.00  0.00    +0.000 C 
ATOM     25  C   UNL     1      43.123  -2.862  12.074  0.00  0.00    +0.000 C 
ENDBRANCH  23  25
ENDBRANCH  17  23
ENDBRANCH  16  20
ENDBRANCH   1  16
BRANCH   2  26
ATOM     26  S   UNL     1      35.298  -1.247  16.603  0.00  0.00    +0.000 S 
BRANCH  26  27
ATOM     27  C   UNL     1      36.587  -2.326  17.178  0.00  0.00    +0.000 A 
ATOM     28  C   UNL     1      36.742  -3.617  16.728  0.00  0.00    +0.000 A 
ATOM     29  C   UNL     1      37.776  -4.411  17.222  0.00  0.00    +0.000 A 
ATOM     30  C   UNL     1      38.656  -3.927  18.157  0.00  0.00    +0.000 A 
ATOM     31  C   UNL     1      38.501  -2.639  18.605  0.00  0.00    +0.000 A 
ATOM     32  C   UNL     1      37.477  -1.854  18.117  0.00  0.00    +0.000 A 
ENDBRANCH  26  27
ENDBRANCH   2  26
TORSDOF 8
ENDMDL
MODEL 8
REMARK VINA RESULT:      -7.1     23.005     25.686
REMARK  Name = 
REMARK  8 active torsions:
REMARK  status: ('A' for Active; 'I' for Inactive)
REMARK    1  A    between atoms: C_2  and  O_3
REMARK    2  A    between atoms: O_3  and  C_4
REMARK    3  A    between atoms: C_7  and  N_8
REMARK    4  A    between atoms: N_8  and  C_9
REMARK    5  A    between atoms: C_10  and  S_11
REMARK    6  A    between atoms: S_11  and  C_12
REMARK    7  A    between atoms: N_20  and  C_21
REMARK    8  A    between atoms: C_26  and  O_27
REMARK                            x       y       z     vdW  Elec       q    Type
REMARK                         _______ _______ _______ _____ _____    ______ ____
ROOT
ATOM      1  C   UNL     1      29.483  15.504  36.838  0.00  0.00    +0.000 C 
ATOM      2  C   UNL     1      28.482  15.510  37.705  0.00  0.00    +0.000 C 
ATOM      3  C   UNL     1      27.208  15.558  37.007  0.00  0.00    +0.000 C 
ATOM      4  O   UNL     1      26.053  15.575  37.543  0.00  0.00    +0.000 OA
ATOM      5  N   UNL     1      27.460  15.582  35.598  0.00  0.00    +0.000 N 
ATOM      6  C   UNL     1      28.902  15.547  35.524  0.00  0.00    +0.000 C 
ATOM      7  O   UNL     1      29.473  15.558  34.411  0.00  0.00    +0.000 OA
ENDROOT
BRANCH   5   8
ATOM      8  C   UNL     1      26.538  15.628  34.532  0.00  0.00    +0.000 A 
ATOM      9  C   UNL     1      26.139  14.489  33.880  0.00  0.00    +0.000 A 
ATOM     10  C   UNL     1      25.222  14.545  32.821  0.00  0.00    +0.000 A 
ATOM     11  C   UNL     1      24.716  15.743  32.428  0.00  0.00    +0.000 A 
ATOM     12  C   UNL     1      25.124  16.891  33.091  0.00  0.00    +0.000 A 
ATOM     13  C   UNL     1      26.025  16.829  34.131  0.00  0.00    +0.000 A 
BRANCH  13  14
ATOM     14  O   UNL     1      26.411  17.983  34.771  0.00  0.00    +0.000 OA
ATOM     15  C   UNL     1      25.557  18.727  35.619  0.00  0.00    +0.000 C 
ENDBRANCH  13  14
ENDBRANCH   5   8
BRANCH   1  16
ATOM     16  N   UNL     1      30.822  15.462  37.217  0.00  0.00    +0.000 NA
BRANCH  16  20
ATOM     17  C   UNL     1      33.459  12.235  36.929  0.00  0.00    +0.000 A 
ATOM     18  C   UNL     1      32.221  12.110  37.520  0.00  0.00    +0.000 A 
ATOM     19  C   UNL     1      31.395  13.203  37.587  0.00  0.00    +0.000 A 
ATOM     20  C   UNL     1      31.769  14.456  37.070  0.00  0.00    +0.000 A 
ATOM     21  C   UNL     1      32.998  14.519  36.501  0.00  0.00    +0.000 A 
ATOM     22  C   UNL     1      33.855  13.447  36.414  0.00  0.00    +0.000 A 
BRANCH  17  23
ATOM     23  O   UNL     1      34.315  11.121  36.855  0.00  0.00    +0.000 OA
BRANCH  23  25
ATOM     24  C   UNL     1      36.555  10.212  37.004  0.00  0.00    +0.000 C 
ATOM     25  C   UNL     1      35.630  11.230  36.396  0.00  0.00    +0.000 C 
ENDBRANCH  23  25
ENDBRANCH  17  23
ENDBRANCH  16  20
ENDBRANCH   1  16
BRANCH   2  26
ATOM     26  S   UNL     1      28.678  15.466  39.500  0.00  0.00    +0.000 S 
BRANCH  26  27
ATOM     27  C   UNL     1      28.232  13.868  40.136  0.00  0.00    +0.000 A 
ATOM     28  C   UNL     1      29.155  12.883  40.407  0.00  0.00    +0.000 A 
ATOM     29  C   UNL     1      28.737  11.650  40.905  0.00  0.00    +0.000 A 
ATOM     30  C   UNL     1      27.408  11.393  41.136  0.00  0.00    +0.000 A 
ATOM     31  C   UNL     1      26.489  12.376  40.865  0.00  0.00    +0.000 A 
ATOM     32  C   UNL     1      26.903  13.596  40.371  0.00  0.00    +0.000 A 
ENDBRANCH  26  27
ENDBRANCH   2  26
TORSDOF 8
ENDMDL
MODEL 9
REMARK VINA RESULT:      -7.1     24.174     26.784
REMARK  Name = 
REMARK  8 active torsions:
REMARK  status: ('A' for Active; 'I' for Inactive)
REMARK    1  A    between atoms: C_2  and  O_3
REMARK    2  A    between atoms: O_3  and  C_4
REMARK    3  A    between atoms: C_7  and  N_8
REMARK    4  A    between atoms: N_8  and  C_9
REMARK    5  A    between atoms: C_10  and  S_11
REMARK    6  A    between atoms: S_11  and  C_12
REMARK    7  A    between atoms: N_20  and  C_21
REMARK    8  A    between atoms: C_26  and  O_27
REMARK                            x       y       z     vdW  Elec       q    Type
REMARK                         _______ _______ _______ _____ _____    ______ ____
ROOT
ATOM      1  C   UNL     1      27.504  15.322  38.155  0.00  0.00    +0.000 C 
ATOM      2  C   UNL     1      28.616  15.575  37.483  0.00  0.00    +0.000 C 
ATOM      3  C   UNL     1      28.327  15.734  36.067  0.00  0.00    +0.000 C 
ATOM      4  O   UNL     1      29.171  15.983  35.147  0.00  0.00    +0.000 OA
ATOM      5  N   UNL     1      26.920  15.562  35.867  0.00  0.00    +0.000 N 
ATOM      6  C   UNL     1      26.429  15.305  37.201  0.00  0.00    +0.000 C 
ATOM      7  O   UNL     1      25.210  15.105  37.393  0.00  0.00    +0.000 OA
ENDROOT
BRANCH   5   8
ATOM      8  C   UNL     1      26.179  15.627  34.669  0.00  0.00    +0.000 A 
ATOM      9  C   UNL     1      25.946  14.509  33.908  0.00  0.00    +0.000 A 
ATOM     10  C   UNL     1      25.208  14.583  32.719  0.00  0.00    +0.000 A 
ATOM     11  C   UNL     1      24.713  15.780  32.305  0.00  0.00    +0.000 A 
ATOM     12  C   UNL     1      24.953  16.906  33.077  0.00  0.00    +0.000 A 
ATOM     13  C   UNL     1      25.678  16.825  34.246  0.00  0.00    +0.000 A 
BRANCH  13  14
ATOM     14  O   UNL     1      25.899  17.959  34.992  0.00  0.00    +0.000 OA
ATOM     15  C   UNL     1      26.844  18.951  34.641  0.00  0.00    +0.000 C 
ENDBRANCH  13  14
ENDBRANCH   5   8
BRANCH   1  16
ATOM     16  N   UNL     1      27.473  15.123  39.533  0.00  0.00    +0.000 NA
BRANCH  16  20
ATOM     17  C   UNL     1      27.470  11.607  41.788  0.00  0.00    +0.000 A 
ATOM     18  C   UNL     1      28.635  12.285  41.502  0.00  0.00    +0.000 A 
ATOM     19  C   UNL     1      28.578  13.435  40.758  0.00  0.00    +0.000 A 
ATOM     20  C   UNL     1      27.363  13.952  40.271  0.00  0.00    +0.000 A 
ATOM     21  C   UNL     1      26.250  13.242  40.583  0.00  0.00    +0.000 A 
ATOM     22  C   UNL     1      26.266  12.085  41.327  0.00  0.00    +0.000 A 
BRANCH  17  23
ATOM     23  O   UNL     1      27.517  10.426  42.551  0.00  0.00    +0.000 OA
BRANCH  23  25
ATOM     24  C   UNL     1      26.603   8.342  41.722  0.00  0.00    +0.000 C 
ATOM     25  C   UNL     1      27.819   9.188  41.978  0.00  0.00    +0.000 C 
ENDBRANCH  23  25
ENDBRANCH  17  23
ENDBRANCH  16  20
ENDBRANCH   1  16
BRANCH   2  26
ATOM     26  S   UNL     1      30.258  15.702  38.224  0.00  0.00    +0.000 S 
BRANCH  26  27
ATOM     27  C   UNL     1      31.193  14.221  37.924  0.00  0.00    +0.000 A 
ATOM     28  C   UNL     1      31.530  13.788  36.661  0.00  0.00    +0.000 A 
ATOM     29  C   UNL     1      32.266  12.616  36.496  0.00  0.00    +0.000 A 
ATOM     30  C   UNL     1      32.669  11.874  37.579  0.00  0.00    +0.000 A 
ATOM     31  C   UNL     1      32.333  12.307  38.837  0.00  0.00    +0.000 A 
ATOM     32  C   UNL     1      31.603  13.467  39.000  0.00  0.00    +0.000 A 
ENDBRANCH  26  27
ENDBRANCH   2  26
TORSDOF 8
ENDMDL
MODEL 10
REMARK VINA RESULT:      -7.1      2.306      3.310
REMARK  Name = 
REMARK  8 active torsions:
REMARK  status: ('A' for Active; 'I' for Inactive)
REMARK    1  A    between atoms: C_2  and  O_3
REMARK    2  A    between atoms: O_3  and  C_4
REMARK    3  A    between atoms: C_7  and  N_8
REMARK    4  A    between atoms: N_8  and  C_9
REMARK    5  A    between atoms: C_10  and  S_11
REMARK    6  A    between atoms: S_11  and  C_12
REMARK    7  A    between atoms: N_20  and  C_21
REMARK    8  A    between atoms: C_26  and  O_27
REMARK                            x       y       z     vdW  Elec       q    Type
REMARK                         _______ _______ _______ _____ _____    ______ ____
ROOT
ATOM      1  C   UNL     1      37.195   3.181  15.698  0.00  0.00    +0.000 C 
ATOM      2  C   UNL     1      37.187   2.752  14.446  0.00  0.00    +0.000 C 
ATOM      3  C   UNL     1      36.884   1.332  14.398  0.00  0.00    +0.000 C 
ATOM      4  O   UNL     1      36.799   0.612  13.351  0.00  0.00    +0.000 OA
ATOM      5  N   UNL     1      36.692   0.860  15.737  0.00  0.00    +0.000 N 
ATOM      6  C   UNL     1      36.895   2.049  16.533  0.00  0.00    +0.000 C 
ATOM      7  O   UNL     1      36.800   1.992  17.778  0.00  0.00    +0.000 OA
ENDROOT
BRANCH   5   8
ATOM      8  C   UNL     1      36.381  -0.440  16.184  0.00  0.00    +0.000 A 
ATOM      9  C   UNL     1      35.083  -0.848  16.352  0.00  0.00    +0.000 A 
ATOM     10  C   UNL     1      34.783  -2.144  16.798  0.00  0.00    +0.000 A 
ATOM     11  C   UNL     1      35.790  -3.014  17.071  0.00  0.00    +0.000 A 
ATOM     12  C   UNL     1      37.101  -2.594  16.899  0.00  0.00    +0.000 A 
ATOM     13  C   UNL     1      37.388  -1.320  16.461  0.00  0.00    +0.000 A 
BRANCH  13  14
ATOM     14  O   UNL     1      38.697  -0.932  16.299  0.00  0.00    +0.000 OA
ATOM     15  C   UNL     1      39.530  -1.413  15.261  0.00  0.00    +0.000 C 
ENDBRANCH  13  14
ENDBRANCH   5   8
BRANCH   1  16
ATOM     16  N   UNL     1      37.456   4.501  16.053  0.00  0.00    +0.000 NA
BRANCH  16  20
ATOM     17  C   UNL     1      40.661   6.138  18.174  0.00  0.00    +0.000 A 
ATOM     18  C   UNL     1      39.567   5.600  18.815  0.00  0.00    +0.000 A 
ATOM     19  C   UNL     1      38.543   5.075  18.068  0.00  0.00    +0.000 A 
ATOM     20  C   UNL     1      38.569   5.067  16.662  0.00  0.00    +0.000 A 
ATOM     21  C   UNL     1      39.671   5.612  16.087  0.00  0.00    +0.000 A 
ATOM     22  C   UNL     1      40.718   6.147  16.800  0.00  0.00    +0.000 A 
BRANCH  17  23
ATOM     23  O   UNL     1      41.718   6.680  18.929  0.00  0.00    +0.000 OA
BRANCH  23  25
ATOM     24  C   UNL     1      42.890   6.199  20.992  0.00  0.00    +0.000 C 
ATOM     25  C   UNL     1      41.665   6.758  20.323  0.00  0.00    +0.000 C 
ENDBRANCH  23  25
ENDBRANCH  17  23
ENDBRANCH  16  20
ENDBRANCH   1  16
BRANCH   2  26
ATOM     26  S   UNL     1      37.508   3.791  13.004  0.00  0.00    +0.000 S 
BRANCH  26  27
ATOM     27  C   UNL     1      39.148   3.504  12.383  0.00  0.00    +0.000 A 
ATOM     28  C   UNL     1      39.468   3.574  11.046  0.00  0.00    +0.000 A 
ATOM     29  C   UNL     1      40.776   3.338  10.626  0.00  0.00    +0.000 A 
ATOM     30  C   UNL     1      41.765   3.033  11.528  0.00  0.00    +0.000 A 
ATOM     31  C   UNL     1      41.445   2.964  12.860  0.00  0.00    +0.000 A 
ATOM     32  C   UNL     1      40.150   3.197  13.276  0.00  0.00    +0.000 A 
ENDBRANCH  26  27
ENDBRANCH   2  26
TORSDOF 8
ENDMDL
