MODEL 1
REMARK VINA RESULT:      -7.1      0.000      0.000
REMARK  Name = 
REMARK  2 active torsions:
REMARK  status: ('A' for Active; 'I' for Inactive)
REMARK    1  A    between atoms: C_6  and  N_7
REMARK    2  A    between atoms: C_11  and  C_12
REMARK                            x       y       z     vdW  Elec       q    Type
REMARK                         _______ _______ _______ _____ _____    ______ ____
ROOT
ATOM      1  N   UNL     1      19.388  11.162  37.649  0.00  0.00    +0.000 N 
ATOM      2  C   UNL     1      19.246  12.466  37.930  0.00  0.00    +0.000 A 
ATOM      3  C   UNL     1      20.200  13.388  38.607  0.00  0.00    +0.000 C 
ATOM      4  C   UNL     1      18.010  12.868  37.474  0.00  0.00    +0.000 A 
ATOM      5  C   UNL     1      17.362  11.771  36.889  0.00  0.00    +0.000 A 
ATOM      6  C   UNL     1      18.253  10.738  37.021  0.00  0.00    +0.000 A 
ATOM      7  C   UNL     1      18.022   9.348  36.594  0.00  0.00    +0.000 C 
ENDROOT
BRANCH   5   8
ATOM      8  C   UNL     1      16.026  11.881  36.365  0.00  0.00    +0.000 C 
ATOM      9  C   UNL     1      14.902  11.593  36.938  0.00  0.00    +0.000 C 
ATOM     10  N   UNL     1      13.606  11.742  36.338  0.00  0.00    +0.000 NA
ATOM     11  C   UNL     1      12.662  11.265  37.288  0.00  0.00    +0.000 C 
ATOM     12  O   UNL     1      11.422  11.263  37.057  0.00  0.00    +0.000 OA
ATOM     13  N   UNL     1      13.355  10.830  38.450  0.00  0.00    +0.000 NA
ATOM     14  C   UNL     1      14.757  11.026  38.251  0.00  0.00    +0.000 C 
ATOM     15  O   UNL     1      15.683  10.757  39.055  0.00  0.00    +0.000 OA
ENDBRANCH   5   8
BRANCH   1  21
ATOM     16  C   UNL     1      23.713   9.319  36.298  0.00  0.00    +0.000 C 
ATOM     17  C   UNL     1      22.663   9.479  37.338  0.00  0.00    +0.000 A 
ATOM     18  C   UNL     1      22.846   8.882  38.568  0.00  0.00    +0.000 A 
ATOM     19  C   UNL     1      21.838   9.067  39.487  0.00  0.00    +0.000 A 
ATOM     20  C   UNL     1      20.717   9.802  39.200  0.00  0.00    +0.000 A 
ATOM     21  C   UNL     1      20.554  10.387  37.975  0.00  0.00    +0.000 A 
ATOM     22  C   UNL     1      21.545  10.219  37.034  0.00  0.00    +0.000 A 
ENDBRANCH   1  21
TORSDOF 2
ENDMDL
MODEL 2
REMARK VINA RESULT:      -7.0     19.346     21.234
REMARK  Name = 
REMARK  2 active torsions:
REMARK  status: ('A' for Active; 'I' for Inactive)
REMARK    1  A    between atoms: C_6  and  N_7
REMARK    2  A    between atoms: C_11  and  C_12
REMARK                            x       y       z     vdW  Elec       q    Type
REMARK                         _______ _______ _______ _____ _____    ______ ____
ROOT
ATOM      1  N   UNL     1      28.516  22.922  26.956  0.00  0.00    +0.000 N 
ATOM      2  C   UNL     1      29.857  22.890  26.948  0.00  0.00    +0.000 A 
ATOM      3  C   UNL     1      30.799  22.827  28.099  0.00  0.00    +0.000 C 
ATOM      4  C   UNL     1      30.276  22.926  25.636  0.00  0.00    +0.000 A 
ATOM      5  C   UNL     1      29.152  22.981  24.801  0.00  0.00    +0.000 A 
ATOM      6  C   UNL     1      28.086  22.978  25.662  0.00  0.00    +0.000 A 
ATOM      7  C   UNL     1      26.669  23.066  25.271  0.00  0.00    +0.000 C 
ENDROOT
BRANCH   5   8
ATOM      8  C   UNL     1      29.284  23.076  23.370  0.00  0.00    +0.000 C 
ATOM      9  C   UNL     1      29.389  24.134  22.633  0.00  0.00    +0.000 C 
ATOM     10  N   UNL     1      29.525  24.134  21.203  0.00  0.00    +0.000 NA
ATOM     11  C   UNL     1      29.556  25.497  20.799  0.00  0.00    +0.000 C 
ATOM     12  O   UNL     1      29.668  25.835  19.589  0.00  0.00    +0.000 OA
ATOM     13  N   UNL     1      29.440  26.324  21.950  0.00  0.00    +0.000 NA
ATOM     14  C   UNL     1      29.334  25.490  23.106  0.00  0.00    +0.000 C 
ATOM     15  O   UNL     1      29.214  25.860  24.301  0.00  0.00    +0.000 OA
ENDBRANCH   5   8
BRANCH   1  21
ATOM     16  C   UNL     1      25.446  25.224  29.991  0.00  0.00    +0.000 C 
ATOM     17  C   UNL     1      26.218  24.002  29.641  0.00  0.00    +0.000 A 
ATOM     18  C   UNL     1      26.136  22.902  30.468  0.00  0.00    +0.000 A 
ATOM     19  C   UNL     1      26.873  21.804  30.089  0.00  0.00    +0.000 A 
ATOM     20  C   UNL     1      27.646  21.799  28.956  0.00  0.00    +0.000 A 
ATOM     21  C   UNL     1      27.714  22.900  28.148  0.00  0.00    +0.000 A 
ATOM     22  C   UNL     1      26.987  24.016  28.501  0.00  0.00    +0.000 A 
ENDBRANCH   1  21
TORSDOF 2
ENDMDL
MODEL 3
REMARK VINA RESULT:      -6.5     21.527     23.174
REMARK  Name = 
REMARK  2 active torsions:
REMARK  status: ('A' for Active; 'I' for Inactive)
REMARK    1  A    between atoms: C_6  and  N_7
REMARK    2  A    between atoms: C_11  and  C_12
REMARK                            x       y       z     vdW  Elec       q    Type
REMARK                         _______ _______ _______ _____ _____    ______ ____
ROOT
ATOM      1  N   UNL     1      27.616  23.824  24.188  0.00  0.00    +0.000 N 
ATOM      2  C   UNL     1      26.669  23.598  23.266  0.00  0.00    +0.000 A 
ATOM      3  C   UNL     1      25.310  23.015  23.441  0.00  0.00    +0.000 C 
ATOM      4  C   UNL     1      27.158  24.008  22.044  0.00  0.00    +0.000 A 
ATOM      5  C   UNL     1      28.457  24.507  22.219  0.00  0.00    +0.000 A 
ATOM      6  C   UNL     1      28.697  24.372  23.561  0.00  0.00    +0.000 A 
ATOM      7  C   UNL     1      29.953  24.721  24.245  0.00  0.00    +0.000 C 
ENDROOT
BRANCH   5   8
ATOM      8  C   UNL     1      29.240  24.965  21.102  0.00  0.00    +0.000 C 
ATOM      9  C   UNL     1      29.373  26.167  20.642  0.00  0.00    +0.000 C 
ATOM     10  N   UNL     1      30.188  26.537  19.518  0.00  0.00    +0.000 NA
ATOM     11  C   UNL     1      30.006  27.934  19.326  0.00  0.00    +0.000 C 
ATOM     12  O   UNL     1      30.593  28.566  18.407  0.00  0.00    +0.000 OA
ATOM     13  N   UNL     1      29.098  28.420  20.306  0.00  0.00    +0.000 NA
ATOM     14  C   UNL     1      28.691  27.331  21.138  0.00  0.00    +0.000 C 
ATOM     15  O   UNL     1      27.894  27.372  22.108  0.00  0.00    +0.000 OA
ENDBRANCH   5   8
BRANCH   1  21
ATOM     16  C   UNL     1      25.597  24.876  28.519  0.00  0.00    +0.000 C 
ATOM     17  C   UNL     1      26.499  24.017  27.706  0.00  0.00    +0.000 A 
ATOM     18  C   UNL     1      27.157  22.973  28.320  0.00  0.00    +0.000 A 
ATOM     19  C   UNL     1      27.977  22.216  27.513  0.00  0.00    +0.000 A 
ATOM     20  C   UNL     1      28.132  22.483  26.177  0.00  0.00    +0.000 A 
ATOM     21  C   UNL     1      27.470  23.523  25.587  0.00  0.00    +0.000 A 
ATOM     22  C   UNL     1      26.643  24.299  26.367  0.00  0.00    +0.000 A 
ENDBRANCH   1  21
TORSDOF 2
ENDMDL
MODEL 4
REMARK VINA RESULT:      -6.3     21.472     22.930
REMARK  Name = 
REMARK  2 active torsions:
REMARK  status: ('A' for Active; 'I' for Inactive)
REMARK    1  A    between atoms: C_6  and  N_7
REMARK    2  A    between atoms: C_11  and  C_12
REMARK                            x       y       z     vdW  Elec       q    Type
REMARK                         _______ _______ _______ _____ _____    ______ ____
ROOT
ATOM      1  N   UNL     1      25.727   3.824  17.592  0.00  0.00    +0.000 N 
ATOM      2  C   UNL     1      26.105   2.624  17.124  0.00  0.00    +0.000 A 
ATOM      3  C   UNL     1      27.419   2.210  16.560  0.00  0.00    +0.000 C 
ATOM      4  C   UNL     1      25.035   1.765  17.244  0.00  0.00    +0.000 A 
ATOM      5  C   UNL     1      23.955   2.459  17.808  0.00  0.00    +0.000 A 
ATOM      6  C   UNL     1      24.430   3.728  18.005  0.00  0.00    +0.000 A 
ATOM      7  C   UNL     1      23.656   4.859  18.544  0.00  0.00    +0.000 C 
ENDROOT
BRANCH   5   8
ATOM      8  C   UNL     1      22.678   1.825  18.009  0.00  0.00    +0.000 C 
ATOM      9  C   UNL     1      21.657   1.785  17.215  0.00  0.00    +0.000 C 
ATOM     10  N   UNL     1      20.417   1.117  17.497  0.00  0.00    +0.000 NA
ATOM     11  C   UNL     1      19.562   1.366  16.389  0.00  0.00    +0.000 C 
ATOM     12  O   UNL     1      18.387   0.910  16.333  0.00  0.00    +0.000 OA
ATOM     13  N   UNL     1      20.253   2.170  15.442  0.00  0.00    +0.000 NA
ATOM     14  C   UNL     1      21.565   2.443  15.940  0.00  0.00    +0.000 C 
ATOM     15  O   UNL     1      22.463   3.123  15.385  0.00  0.00    +0.000 OA
ENDBRANCH   5   8
BRANCH   1  21
ATOM     16  C   UNL     1      27.863   7.542  15.236  0.00  0.00    +0.000 C 
ATOM     17  C   UNL     1      27.631   6.798  16.503  0.00  0.00    +0.000 A 
ATOM     18  C   UNL     1      28.237   7.245  17.658  0.00  0.00    +0.000 A 
ATOM     19  C   UNL     1      27.982   6.514  18.796  0.00  0.00    +0.000 A 
ATOM     20  C   UNL     1      27.172   5.407  18.786  0.00  0.00    +0.000 A 
ATOM     21  C   UNL     1      26.580   4.981  17.630  0.00  0.00    +0.000 A 
ATOM     22  C   UNL     1      26.816   5.691  16.474  0.00  0.00    +0.000 A 
ENDBRANCH   1  21
TORSDOF 2
ENDMDL
MODEL 5
REMARK VINA RESULT:      -6.2      4.118      7.007
REMARK  Name = 
REMARK  2 active torsions:
REMARK  status: ('A' for Active; 'I' for Inactive)
REMARK    1  A    between atoms: C_6  and  N_7
REMARK    2  A    between atoms: C_11  and  C_12
REMARK                            x       y       z     vdW  Elec       q    Type
REMARK                         _______ _______ _______ _____ _____    ______ ____
ROOT
ATOM      1  N   UNL     1      18.810  10.007  39.369  0.00  0.00    +0.000 N 
ATOM      2  C   UNL     1      18.402  10.539  38.207  0.00  0.00    +0.000 A 
ATOM      3  C   UNL     1      17.325  10.073  37.290  0.00  0.00    +0.000 C 
ATOM      4  C   UNL     1      19.170  11.655  37.957  0.00  0.00    +0.000 A 
ATOM      5  C   UNL     1      20.087  11.820  39.005  0.00  0.00    +0.000 A 
ATOM      6  C   UNL     1      19.827  10.777  39.854  0.00  0.00    +0.000 A 
ATOM      7  C   UNL     1      20.558  10.482  41.098  0.00  0.00    +0.000 C 
ENDROOT
BRANCH   5   8
ATOM      8  C   UNL     1      21.058  12.883  38.992  0.00  0.00    +0.000 C 
ATOM      9  C   UNL     1      22.272  12.869  38.544  0.00  0.00    +0.000 C 
ATOM     10  N   UNL     1      23.173  13.986  38.565  0.00  0.00    +0.000 NA
ATOM     11  C   UNL     1      24.406  13.524  38.027  0.00  0.00    +0.000 C 
ATOM     12  O   UNL     1      25.411  14.277  37.911  0.00  0.00    +0.000 OA
ATOM     13  N   UNL     1      24.273  12.152  37.681  0.00  0.00    +0.000 NA
ATOM     14  C   UNL     1      22.946  11.723  37.997  0.00  0.00    +0.000 C 
ATOM     15  O   UNL     1      22.459  10.577  37.835  0.00  0.00    +0.000 OA
ENDBRANCH   5   8
BRANCH   1  21
ATOM     16  C   UNL     1      19.047   5.188  40.180  0.00  0.00    +0.000 C 
ATOM     17  C   UNL     1      18.336   6.481  40.368  0.00  0.00    +0.000 A 
ATOM     18  C   UNL     1      17.166   6.498  41.098  0.00  0.00    +0.000 A 
ATOM     19  C   UNL     1      16.557   7.724  41.236  0.00  0.00    +0.000 A 
ATOM     20  C   UNL     1      17.080   8.865  40.681  0.00  0.00    +0.000 A 
ATOM     21  C   UNL     1      18.241   8.827  39.961  0.00  0.00    +0.000 A 
ATOM     22  C   UNL     1      18.875   7.614  39.805  0.00  0.00    +0.000 A 
ENDBRANCH   1  21
TORSDOF 2
ENDMDL
MODEL 6
REMARK VINA RESULT:      -6.2     22.558     25.092
REMARK  Name = 
REMARK  2 active torsions:
REMARK  status: ('A' for Active; 'I' for Inactive)
REMARK    1  A    between atoms: C_6  and  N_7
REMARK    2  A    between atoms: C_11  and  C_12
REMARK                            x       y       z     vdW  Elec       q    Type
REMARK                         _______ _______ _______ _____ _____    ______ ____
ROOT
ATOM      1  N   UNL     1      26.460   5.408  17.034  0.00  0.00    +0.000 N 
ATOM      2  C   UNL     1      27.342   6.012  17.844  0.00  0.00    +0.000 A 
ATOM      3  C   UNL     1      27.563   5.814  19.303  0.00  0.00    +0.000 C 
ATOM      4  C   UNL     1      28.069   6.907  17.089  0.00  0.00    +0.000 A 
ATOM      5  C   UNL     1      27.620   6.853  15.762  0.00  0.00    +0.000 A 
ATOM      6  C   UNL     1      26.624   5.912  15.777  0.00  0.00    +0.000 A 
ATOM      7  C   UNL     1      25.802   5.517  14.621  0.00  0.00    +0.000 C 
ENDROOT
BRANCH   5   8
ATOM      8  C   UNL     1      28.167   7.717  14.749  0.00  0.00    +0.000 C 
ATOM      9  C   UNL     1      29.113   7.475  13.899  0.00  0.00    +0.000 C 
ATOM     10  N   UNL     1      29.592   8.402  12.912  0.00  0.00    +0.000 NA
ATOM     11  C   UNL     1      30.659   7.753  12.232  0.00  0.00    +0.000 C 
ATOM     12  O   UNL     1      31.296   8.312  11.298  0.00  0.00    +0.000 OA
ATOM     13  N   UNL     1      30.839   6.456  12.785  0.00  0.00    +0.000 NA
ATOM     14  C   UNL     1      29.882   6.263  13.828  0.00  0.00    +0.000 C 
ATOM     15  O   UNL     1      29.736   5.244  14.548  0.00  0.00    +0.000 OA
ENDBRANCH   5   8
BRANCH   1  21
ATOM     16  C   UNL     1      25.290   0.681  17.505  0.00  0.00    +0.000 C 
ATOM     17  C   UNL     1      24.931   2.111  17.703  0.00  0.00    +0.000 A 
ATOM     18  C   UNL     1      23.721   2.419  18.288  0.00  0.00    +0.000 A 
ATOM     19  C   UNL     1      23.449   3.759  18.444  0.00  0.00    +0.000 A 
ATOM     20  C   UNL     1      24.327   4.733  18.042  0.00  0.00    +0.000 A 
ATOM     21  C   UNL     1      25.522   4.407  17.464  0.00  0.00    +0.000 A 
ATOM     22  C   UNL     1      25.824   3.074  17.294  0.00  0.00    +0.000 A 
ENDBRANCH   1  21
TORSDOF 2
ENDMDL
MODEL 7
REMARK VINA RESULT:      -6.2     18.094     20.034
REMARK  Name = 
REMARK  2 active torsions:
REMARK  status: ('A' for Active; 'I' for Inactive)
REMARK    1  A    between atoms: C_6  and  N_7
REMARK    2  A    between atoms: C_11  and  C_12
REMARK                            x       y       z     vdW  Elec       q    Type
REMARK                         _______ _______ _______ _____ _____    ______ ____
ROOT
ATOM      1  N   UNL     1      29.161  22.881  29.362  0.00  0.00    +0.000 N 
ATOM      2  C   UNL     1      27.932  22.485  28.999  0.00  0.00    +0.000 A 
ATOM      3  C   UNL     1      26.728  22.267  29.848  0.00  0.00    +0.000 C 
ATOM      4  C   UNL     1      27.932  22.292  27.635  0.00  0.00    +0.000 A 
ATOM      5  C   UNL     1      29.210  22.581  27.135  0.00  0.00    +0.000 A 
ATOM      6  C   UNL     1      29.936  22.940  28.240  0.00  0.00    +0.000 A 
ATOM      7  C   UNL     1      31.364  23.299  28.248  0.00  0.00    +0.000 C 
ENDROOT
BRANCH   5   8
ATOM      8  C   UNL     1      29.524  22.421  25.739  0.00  0.00    +0.000 C 
ATOM      9  C   UNL     1      29.392  23.273  24.774  0.00  0.00    +0.000 C 
ATOM     10  N   UNL     1      29.740  23.028  23.403  0.00  0.00    +0.000 NA
ATOM     11  C   UNL     1      29.389  24.201  22.679  0.00  0.00    +0.000 C 
ATOM     12  O   UNL     1      29.572  24.301  21.436  0.00  0.00    +0.000 OA
ATOM     13  N   UNL     1      28.835  25.151  23.580  0.00  0.00    +0.000 NA
ATOM     14  C   UNL     1      28.828  24.589  24.894  0.00  0.00    +0.000 C 
ATOM     15  O   UNL     1      28.411  25.129  25.949  0.00  0.00    +0.000 OA
ENDBRANCH   5   8
BRANCH   1  21
ATOM     16  C   UNL     1      30.856  21.332  33.682  0.00  0.00    +0.000 C 
ATOM     17  C   UNL     1      30.370  22.448  32.827  0.00  0.00    +0.000 A 
ATOM     18  C   UNL     1      30.310  23.718  33.360  0.00  0.00    +0.000 A 
ATOM     19  C   UNL     1      29.853  24.706  32.518  0.00  0.00    +0.000 A 
ATOM     20  C   UNL     1      29.479  24.447  31.224  0.00  0.00    +0.000 A 
ATOM     21  C   UNL     1      29.547  23.180  30.714  0.00  0.00    +0.000 A 
ATOM     22  C   UNL     1      30.000  22.169  31.532  0.00  0.00    +0.000 A 
ENDBRANCH   1  21
TORSDOF 2
ENDMDL
MODEL 8
REMARK VINA RESULT:      -6.1     19.622     21.924
REMARK  Name = 
REMARK  2 active torsions:
REMARK  status: ('A' for Active; 'I' for Inactive)
REMARK    1  A    between atoms: C_6  and  N_7
REMARK    2  A    between atoms: C_11  and  C_12
REMARK                            x       y       z     vdW  Elec       q    Type
REMARK                         _______ _______ _______ _____ _____    ______ ____
ROOT
ATOM      1  N   UNL     1      28.643  23.366  25.226  0.00  0.00    +0.000 N 
ATOM      2  C   UNL     1      27.827  23.172  26.274  0.00  0.00    +0.000 A 
ATOM      3  C   UNL     1      26.407  23.587  26.445  0.00  0.00    +0.000 C 
ATOM      4  C   UNL     1      28.531  22.488  27.240  0.00  0.00    +0.000 A 
ATOM      5  C   UNL     1      29.831  22.248  26.773  0.00  0.00    +0.000 A 
ATOM      6  C   UNL     1      29.853  22.810  25.524  0.00  0.00    +0.000 A 
ATOM      7  C   UNL     1      31.020  22.860  24.627  0.00  0.00    +0.000 C 
ENDROOT
BRANCH   5   8
ATOM      8  C   UNL     1      30.813  21.589  27.593  0.00  0.00    +0.000 C 
ATOM      9  C   UNL     1      31.708  22.113  28.367  0.00  0.00    +0.000 C 
ATOM     10  N   UNL     1      32.649  21.373  29.160  0.00  0.00    +0.000 NA
ATOM     11  C   UNL     1      33.472  22.331  29.812  0.00  0.00    +0.000 C 
ATOM     12  O   UNL     1      34.407  21.994  30.589  0.00  0.00    +0.000 OA
ATOM     13  N   UNL     1      33.053  23.635  29.433  0.00  0.00    +0.000 NA
ATOM     14  C   UNL     1      31.951  23.520  28.530  0.00  0.00    +0.000 C 
ATOM     15  O   UNL     1      31.318  24.455  27.980  0.00  0.00    +0.000 OA
ENDBRANCH   5   8
BRANCH   1  21
ATOM     16  C   UNL     1      28.504  27.495  22.606  0.00  0.00    +0.000 C 
ATOM     17  C   UNL     1      28.181  26.048  22.726  0.00  0.00    +0.000 A 
ATOM     18  C   UNL     1      27.532  25.420  21.684  0.00  0.00    +0.000 A 
ATOM     19  C   UNL     1      27.263  24.082  21.857  0.00  0.00    +0.000 A 
ATOM     20  C   UNL     1      27.617  23.408  22.998  0.00  0.00    +0.000 A 
ATOM     21  C   UNL     1      28.261  24.048  24.020  0.00  0.00    +0.000 A 
ATOM     22  C   UNL     1      28.544  25.389  23.877  0.00  0.00    +0.000 A 
ENDBRANCH   1  21
TORSDOF 2
ENDMDL
MODEL 9
REMARK VINA RESULT:      -6.0     21.304     22.887
REMARK  Name = 
REMARK  2 active torsions:
REMARK  status: ('A' for Active; 'I' for Inactive)
REMARK    1  A    between atoms: C_6  and  N_7
REMARK    2  A    between atoms: C_11  and  C_12
REMARK                            x       y       z     vdW  Elec       q    Type
REMARK                         _______ _______ _______ _____ _____    ______ ____
ROOT
ATOM      1  N   UNL     1      17.981  -8.989  27.555  0.00  0.00    +0.000 N 
ATOM      2  C   UNL     1      16.793  -9.486  27.180  0.00  0.00    +0.000 A 
ATOM      3  C   UNL     1      15.811  -8.935  26.205  0.00  0.00    +0.000 C 
ATOM      4  C   UNL     1      16.587 -10.662  27.869  0.00  0.00    +0.000 A 
ATOM      5  C   UNL     1      17.690 -10.900  28.700  0.00  0.00    +0.000 A 
ATOM      6  C   UNL     1      18.526  -9.839  28.473  0.00  0.00    +0.000 A 
ATOM      7  C   UNL     1      19.814  -9.604  29.144  0.00  0.00    +0.000 C 
ENDROOT
BRANCH   5   8
ATOM      8  C   UNL     1      17.734 -12.039  29.580  0.00  0.00    +0.000 C 
ATOM      9  C   UNL     1      17.456 -12.101  30.842  0.00  0.00    +0.000 C 
ATOM     10  N   UNL     1      17.521 -13.291  31.645  0.00  0.00    +0.000 NA
ATOM     11  C   UNL     1      17.188 -12.903  32.972  0.00  0.00    +0.000 C 
ATOM     12  O   UNL     1      17.156 -13.730  33.923  0.00  0.00    +0.000 OA
ATOM     13  N   UNL     1      16.924 -11.507  32.993  0.00  0.00    +0.000 NA
ATOM     14  C   UNL     1      17.087 -10.987  31.672  0.00  0.00    +0.000 C 
ATOM     15  O   UNL     1      16.941  -9.796  31.300  0.00  0.00    +0.000 OA
ENDBRANCH   5   8
BRANCH   1  21
ATOM     16  C   UNL     1      21.435  -6.725  24.932  0.00  0.00    +0.000 C 
ATOM     17  C   UNL     1      20.213  -6.642  25.776  0.00  0.00    +0.000 A 
ATOM     18  C   UNL     1      19.668  -5.403  26.039  0.00  0.00    +0.000 A 
ATOM     19  C   UNL     1      18.539  -5.393  26.825  0.00  0.00    +0.000 A 
ATOM     20  C   UNL     1      17.985  -6.546  27.320  0.00  0.00    +0.000 A 
ATOM     21  C   UNL     1      18.541  -7.765  27.048  0.00  0.00    +0.000 A 
ATOM     22  C   UNL     1      19.672  -7.808  26.264  0.00  0.00    +0.000 A 
ENDBRANCH   1  21
TORSDOF 2
ENDMDL
MODEL 10
REMARK VINA RESULT:      -5.9     21.657     23.042
REMARK  Name = 
REMARK  2 active torsions:
REMARK  status: ('A' for Active; 'I' for Inactive)
REMARK    1  A    between atoms: C_6  and  N_7
REMARK    2  A    between atoms: C_11  and  C_12
REMARK                            x       y       z     vdW  Elec       q    Type
REMARK                         _______ _______ _______ _____ _____    ______ ____
ROOT
ATOM      1  N   UNL     1      17.095  -8.618  26.745  0.00  0.00    +0.000 N 
ATOM      2  C   UNL     1      17.127  -9.406  27.830  0.00  0.00    +0.000 A 
ATOM      3  C   UNL     1      18.052  -9.357  28.996  0.00  0.00    +0.000 C 
ATOM      4  C   UNL     1      16.117 -10.335  27.713  0.00  0.00    +0.000 A 
ATOM      5  C   UNL     1      15.432 -10.113  26.509  0.00  0.00    +0.000 A 
ATOM      6  C   UNL     1      16.074  -9.042  25.944  0.00  0.00    +0.000 A 
ATOM      7  C   UNL     1      15.753  -8.442  24.638  0.00  0.00    +0.000 C 
ENDROOT
BRANCH   5   8
ATOM      8  C   UNL     1      14.350 -10.966  26.092  0.00  0.00    +0.000 C 
ATOM      9  C   UNL     1      13.092 -10.685  25.979  0.00  0.00    +0.000 C 
ATOM     10  N   UNL     1      12.077 -11.603  25.546  0.00  0.00    +0.000 NA
ATOM     11  C   UNL     1      10.840 -10.904  25.617  0.00  0.00    +0.000 C 
ATOM     12  O   UNL     1       9.746 -11.444  25.299  0.00  0.00    +0.000 OA
ATOM     13  N   UNL     1      11.082  -9.584  26.084  0.00  0.00    +0.000 NA
ATOM     14  C   UNL     1      12.484  -9.427  26.317  0.00  0.00    +0.000 C 
ATOM     15  O   UNL     1      13.075  -8.401  26.735  0.00  0.00    +0.000 OA
ENDBRANCH   5   8
BRANCH   1  21
ATOM     16  C   UNL     1      21.372  -7.023  24.986  0.00  0.00    +0.000 C 
ATOM     17  C   UNL     1      20.080  -6.729  25.661  0.00  0.00    +0.000 A 
ATOM     18  C   UNL     1      19.803  -5.430  26.034  0.00  0.00    +0.000 A 
ATOM     19  C   UNL     1      18.591  -5.224  26.653  0.00  0.00    +0.000 A 
ATOM     20  C   UNL     1      17.709  -6.247  26.888  0.00  0.00    +0.000 A 
ATOM     21  C   UNL     1      18.002  -7.528  26.510  0.00  0.00    +0.000 A 
ATOM     22  C   UNL     1      19.207  -7.767  25.888  0.00  0.00    +0.000 A 
ENDBRANCH   1  21
TORSDOF 2
ENDMDL
