MODEL 1
REMARK VINA RESULT:      -6.7      0.000      0.000
REMARK  Name = 
REMARK  3 active torsions:
REMARK  status: ('A' for Active; 'I' for Inactive)
REMARK    1  A    between atoms: C_2  and  C_3
REMARK    2  A    between atoms: C_6  and  N_7
REMARK    3  A    between atoms: N_7  and  C_8
REMARK                            x       y       z     vdW  Elec       q    Type
REMARK                         _______ _______ _______ _____ _____    ______ ____
ROOT
ATOM      1  C   UNL     1      26.224  23.807  29.483  0.00  0.00    +0.000 A 
ATOM      2  C   UNL     1      26.217  23.574  28.145  0.00  0.00    +0.000 A 
ATOM      3  C   UNL     1      25.565  24.430  27.346  0.00  0.00    +0.000 A 
ATOM      4  C   UNL     1      25.446  24.358  25.948  0.00  0.00    +0.000 A 
ATOM      5  N   UNL     1      24.753  25.309  25.324  0.00  0.00    +0.000 NA
ATOM      6  C   UNL     1      24.145  26.347  25.893  0.00  0.00    +0.000 A 
ATOM      7  C   UNL     1      23.382  27.385  25.155  0.00  0.00    +0.000 C 
ATOM      8  N   UNL     1      24.248  26.433  27.239  0.00  0.00    +0.000 NA
ATOM      9  C   UNL     1      24.946  25.491  27.947  0.00  0.00    +0.000 A 
ATOM     10  S   UNL     1      25.308  25.239  29.604  0.00  0.00    +0.000 S 
ENDROOT
BRANCH   1  12
ATOM     11  C   UNL     1      26.394  21.564  30.411  0.00  0.00    +0.000 C 
ATOM     12  C   UNL     1      26.886  22.987  30.562  0.00  0.00    +0.000 C 
ENDBRANCH   1  12
BRANCH   4  13
ATOM     13  N   UNL     1      26.055  23.290  25.222  0.00  0.00    +0.000 NA
BRANCH  13  14
ATOM     14  C   UNL     1      26.941  23.516  24.149  0.00  0.00    +0.000 A 
ATOM     15  C   UNL     1      26.507  23.744  22.854  0.00  0.00    +0.000 A 
ATOM     16  C   UNL     1      27.418  23.960  21.833  0.00  0.00    +0.000 A 
ATOM     17  C   UNL     1      28.780  23.959  22.052  0.00  0.00    +0.000 A 
ATOM     18  O   UNL     1      29.701  24.175  21.033  0.00  0.00    +0.000 OA
ATOM     19  C   UNL     1      29.219  23.731  23.342  0.00  0.00    +0.000 A 
ATOM     20  C   UNL     1      28.304  23.516  24.357  0.00  0.00    +0.000 A 
ENDBRANCH  13  14
ENDBRANCH   4  13
TORSDOF 3
ENDMDL
MODEL 2
REMARK VINA RESULT:      -6.6     18.464     20.251
REMARK  Name = 
REMARK  3 active torsions:
REMARK  status: ('A' for Active; 'I' for Inactive)
REMARK    1  A    between atoms: C_2  and  C_3
REMARK    2  A    between atoms: C_6  and  N_7
REMARK    3  A    between atoms: N_7  and  C_8
REMARK                            x       y       z     vdW  Elec       q    Type
REMARK                         _______ _______ _______ _____ _____    ______ ____
ROOT
ATOM      1  C   UNL     1      17.635   9.592  40.224  0.00  0.00    +0.000 A 
ATOM      2  C   UNL     1      17.640   9.393  38.880  0.00  0.00    +0.000 A 
ATOM      3  C   UNL     1      18.780   9.593  38.205  0.00  0.00    +0.000 A 
ATOM      4  C   UNL     1      18.982   9.441  36.823  0.00  0.00    +0.000 A 
ATOM      5  N   UNL     1      20.195   9.687  36.331  0.00  0.00    +0.000 NA
ATOM      6  C   UNL     1      21.265  10.071  37.022  0.00  0.00    +0.000 A 
ATOM      7  C   UNL     1      22.601  10.334  36.429  0.00  0.00    +0.000 C 
ATOM      8  N   UNL     1      21.091  10.223  38.354  0.00  0.00    +0.000 NA
ATOM      9  C   UNL     1      19.871   9.988  38.930  0.00  0.00    +0.000 A 
ATOM     10  S   UNL     1      19.246  10.059  40.525  0.00  0.00    +0.000 S 
ENDROOT
BRANCH   1  12
ATOM     11  C   UNL     1      16.247   7.944  41.355  0.00  0.00    +0.000 C 
ATOM     12  C   UNL     1      16.479   9.429  41.180  0.00  0.00    +0.000 C 
ENDBRANCH   1  12
BRANCH   4  13
ATOM     13  N   UNL     1      17.909   9.033  35.974  0.00  0.00    +0.000 NA
BRANCH  13  14
ATOM     14  C   UNL     1      17.144   9.955  35.229  0.00  0.00    +0.000 A 
ATOM     15  C   UNL     1      17.275  10.104  33.859  0.00  0.00    +0.000 A 
ATOM     16  C   UNL     1      16.501  11.024  33.173  0.00  0.00    +0.000 A 
ATOM     17  C   UNL     1      15.576  11.825  33.808  0.00  0.00    +0.000 A 
ATOM     18  O   UNL     1      14.795  12.751  33.127  0.00  0.00    +0.000 OA
ATOM     19  C   UNL     1      15.441  11.682  35.176  0.00  0.00    +0.000 A 
ATOM     20  C   UNL     1      16.216  10.761  35.856  0.00  0.00    +0.000 A 
ENDBRANCH  13  14
ENDBRANCH   4  13
TORSDOF 3
ENDMDL
MODEL 3
REMARK VINA RESULT:      -6.3      1.894      2.121
REMARK  Name = 
REMARK  3 active torsions:
REMARK  status: ('A' for Active; 'I' for Inactive)
REMARK    1  A    between atoms: C_2  and  C_3
REMARK    2  A    between atoms: C_6  and  N_7
REMARK    3  A    between atoms: N_7  and  C_8
REMARK                            x       y       z     vdW  Elec       q    Type
REMARK                         _______ _______ _______ _____ _____    ______ ____
ROOT
ATOM      1  C   UNL     1      28.991  23.311  28.902  0.00  0.00    +0.000 A 
ATOM      2  C   UNL     1      28.304  23.077  27.753  0.00  0.00    +0.000 A 
ATOM      3  C   UNL     1      27.145  23.719  27.555  0.00  0.00    +0.000 A 
ATOM      4  C   UNL     1      26.299  23.610  26.439  0.00  0.00    +0.000 A 
ATOM      5  N   UNL     1      25.180  24.334  26.421  0.00  0.00    +0.000 NA
ATOM      6  C   UNL     1      24.766  25.171  27.369  0.00  0.00    +0.000 A 
ATOM      7  C   UNL     1      23.509  25.958  27.306  0.00  0.00    +0.000 C 
ATOM      8  N   UNL     1      25.568  25.290  28.451  0.00  0.00    +0.000 NA
ATOM      9  C   UNL     1      26.734  24.576  28.539  0.00  0.00    +0.000 A 
ATOM     10  S   UNL     1      27.992  24.441  29.695  0.00  0.00    +0.000 S 
ENDROOT
BRANCH   1  12
ATOM     11  C   UNL     1      31.059  22.328  28.080  0.00  0.00    +0.000 C 
ATOM     12  C   UNL     1      30.305  22.708  29.335  0.00  0.00    +0.000 C 
ENDBRANCH   1  12
BRANCH   4  13
ATOM     13  N   UNL     1      26.635  22.743  25.356  0.00  0.00    +0.000 NA
BRANCH  13  14
ATOM     14  C   UNL     1      27.348  23.191  24.224  0.00  0.00    +0.000 A 
ATOM     15  C   UNL     1      26.722  23.632  23.070  0.00  0.00    +0.000 A 
ATOM     16  C   UNL     1      27.467  24.061  21.985  0.00  0.00    +0.000 A 
ATOM     17  C   UNL     1      28.846  24.072  21.998  0.00  0.00    +0.000 A 
ATOM     18  O   UNL     1      29.601  24.501  20.913  0.00  0.00    +0.000 OA
ATOM     19  C   UNL     1      29.476  23.632  23.146  0.00  0.00    +0.000 A 
ATOM     20  C   UNL     1      28.727  23.205  24.227  0.00  0.00    +0.000 A 
ENDBRANCH  13  14
ENDBRANCH   4  13
TORSDOF 3
ENDMDL
MODEL 4
REMARK VINA RESULT:      -6.3      1.279      3.941
REMARK  Name = 
REMARK  3 active torsions:
REMARK  status: ('A' for Active; 'I' for Inactive)
REMARK    1  A    between atoms: C_2  and  C_3
REMARK    2  A    between atoms: C_6  and  N_7
REMARK    3  A    between atoms: N_7  and  C_8
REMARK                            x       y       z     vdW  Elec       q    Type
REMARK                         _______ _______ _______ _____ _____    ______ ____
ROOT
ATOM      1  C   UNL     1      23.832  26.453  25.970  0.00  0.00    +0.000 A 
ATOM      2  C   UNL     1      24.527  25.337  25.629  0.00  0.00    +0.000 A 
ATOM      3  C   UNL     1      25.291  24.746  26.558  0.00  0.00    +0.000 A 
ATOM      4  C   UNL     1      26.077  23.593  26.398  0.00  0.00    +0.000 A 
ATOM      5  N   UNL     1      26.773  23.153  27.445  0.00  0.00    +0.000 NA
ATOM      6  C   UNL     1      26.806  23.699  28.658  0.00  0.00    +0.000 A 
ATOM      7  C   UNL     1      27.599  23.171  29.797  0.00  0.00    +0.000 C 
ATOM      8  N   UNL     1      26.055  24.810  28.831  0.00  0.00    +0.000 NA
ATOM      9  C   UNL     1      25.313  25.320  27.799  0.00  0.00    +0.000 A 
ATOM     10  S   UNL     1      24.262  26.660  27.605  0.00  0.00    +0.000 S 
ENDROOT
BRANCH   1  12
ATOM     11  C   UNL     1      21.500  26.827  25.382  0.00  0.00    +0.000 C 
ATOM     12  C   UNL     1      22.917  27.277  25.097  0.00  0.00    +0.000 C 
ENDBRANCH   1  12
BRANCH   4  13
ATOM     13  N   UNL     1      26.124  22.916  25.141  0.00  0.00    +0.000 NA
BRANCH  13  14
ATOM     14  C   UNL     1      27.038  23.271  24.127  0.00  0.00    +0.000 A 
ATOM     15  C   UNL     1      28.411  23.196  24.296  0.00  0.00    +0.000 A 
ATOM     16  C   UNL     1      29.267  23.557  23.269  0.00  0.00    +0.000 A 
ATOM     17  C   UNL     1      28.804  24.000  22.048  0.00  0.00    +0.000 A 
ATOM     18  O   UNL     1      29.657  24.364  21.013  0.00  0.00    +0.000 OA
ATOM     19  C   UNL     1      27.436  24.077  21.874  0.00  0.00    +0.000 A 
ATOM     20  C   UNL     1      26.585  23.715  22.903  0.00  0.00    +0.000 A 
ENDBRANCH  13  14
ENDBRANCH   4  13
TORSDOF 3
ENDMDL
MODEL 5
REMARK VINA RESULT:      -6.2     17.093     18.839
REMARK  Name = 
REMARK  3 active torsions:
REMARK  status: ('A' for Active; 'I' for Inactive)
REMARK    1  A    between atoms: C_2  and  C_3
REMARK    2  A    between atoms: C_6  and  N_7
REMARK    3  A    between atoms: N_7  and  C_8
REMARK                            x       y       z     vdW  Elec       q    Type
REMARK                         _______ _______ _______ _____ _____    ______ ____
ROOT
ATOM      1  C   UNL     1      20.751  14.045  39.118  0.00  0.00    +0.000 A 
ATOM      2  C   UNL     1      20.130  12.908  38.710  0.00  0.00    +0.000 A 
ATOM      3  C   UNL     1      20.872  11.921  38.190  0.00  0.00    +0.000 A 
ATOM      4  C   UNL     1      20.416  10.679  37.716  0.00  0.00    +0.000 A 
ATOM      5  N   UNL     1      21.311   9.821  37.232  0.00  0.00    +0.000 NA
ATOM      6  C   UNL     1      22.625  10.013  37.146  0.00  0.00    +0.000 A 
ATOM      7  C   UNL     1      23.587   9.024  36.597  0.00  0.00    +0.000 C 
ATOM      8  N   UNL     1      23.083  11.203  37.597  0.00  0.00    +0.000 NA
ATOM      9  C   UNL     1      22.221  12.135  38.109  0.00  0.00    +0.000 A 
ATOM     10  S   UNL     1      22.384  13.710  38.765  0.00  0.00    +0.000 S 
ENDROOT
BRANCH   1  12
ATOM     11  C   UNL     1      20.540  16.457  38.881  0.00  0.00    +0.000 C 
ATOM     12  C   UNL     1      20.124  15.275  39.728  0.00  0.00    +0.000 C 
ENDBRANCH   1  12
BRANCH   4  13
ATOM     13  N   UNL     1      19.026  10.355  37.755  0.00  0.00    +0.000 NA
BRANCH  13  14
ATOM     14  C   UNL     1      18.189  10.482  36.627  0.00  0.00    +0.000 A 
ATOM     15  C   UNL     1      18.237   9.605  35.556  0.00  0.00    +0.000 A 
ATOM     16  C   UNL     1      17.394   9.774  34.470  0.00  0.00    +0.000 A 
ATOM     17  C   UNL     1      16.481  10.805  34.402  0.00  0.00    +0.000 A 
ATOM     18  O   UNL     1      15.632  10.980  33.315  0.00  0.00    +0.000 OA
ATOM     19  C   UNL     1      16.429  11.683  35.467  0.00  0.00    +0.000 A 
ATOM     20  C   UNL     1      17.273  11.510  36.549  0.00  0.00    +0.000 A 
ENDBRANCH  13  14
ENDBRANCH   4  13
TORSDOF 3
ENDMDL
MODEL 6
REMARK VINA RESULT:      -6.1      3.095      4.298
REMARK  Name = 
REMARK  3 active torsions:
REMARK  status: ('A' for Active; 'I' for Inactive)
REMARK    1  A    between atoms: C_2  and  C_3
REMARK    2  A    between atoms: C_6  and  N_7
REMARK    3  A    between atoms: N_7  and  C_8
REMARK                            x       y       z     vdW  Elec       q    Type
REMARK                         _______ _______ _______ _____ _____    ______ ____
ROOT
ATOM      1  C   UNL     1      26.569  23.460  28.211  0.00  0.00    +0.000 A 
ATOM      2  C   UNL     1      27.621  23.069  27.445  0.00  0.00    +0.000 A 
ATOM      3  C   UNL     1      27.551  23.248  26.119  0.00  0.00    +0.000 A 
ATOM      4  C   UNL     1      28.530  22.910  25.168  0.00  0.00    +0.000 A 
ATOM      5  N   UNL     1      28.278  23.167  23.886  0.00  0.00    +0.000 NA
ATOM      6  C   UNL     1      27.175  23.722  23.392  0.00  0.00    +0.000 A 
ATOM      7  C   UNL     1      26.938  23.989  21.951  0.00  0.00    +0.000 C 
ATOM      8  N   UNL     1      26.221  24.054  24.292  0.00  0.00    +0.000 NA
ATOM      9  C   UNL     1      26.410  23.820  25.628  0.00  0.00    +0.000 A 
ATOM     10  S   UNL     1      25.488  24.080  27.049  0.00  0.00    +0.000 S 
ENDROOT
BRANCH   1  12
ATOM     11  C   UNL     1      26.621  21.905  30.082  0.00  0.00    +0.000 C 
ATOM     12  C   UNL     1      26.427  23.359  29.710  0.00  0.00    +0.000 C 
ENDBRANCH   1  12
BRANCH   4  13
ATOM     13  N   UNL     1      29.759  22.308  25.575  0.00  0.00    +0.000 NA
BRANCH  13  14
ATOM     14  C   UNL     1      30.957  23.043  25.690  0.00  0.00    +0.000 A 
ATOM     15  C   UNL     1      31.727  23.397  24.595  0.00  0.00    +0.000 A 
ATOM     16  C   UNL     1      32.897  24.118  24.761  0.00  0.00    +0.000 A 
ATOM     17  C   UNL     1      33.347  24.514  26.003  0.00  0.00    +0.000 A 
ATOM     18  O   UNL     1      34.521  25.238  26.177  0.00  0.00    +0.000 OA
ATOM     19  C   UNL     1      32.584  24.163  27.099  0.00  0.00    +0.000 A 
ATOM     20  C   UNL     1      31.416  23.442  26.928  0.00  0.00    +0.000 A 
ENDBRANCH  13  14
ENDBRANCH   4  13
TORSDOF 3
ENDMDL
MODEL 7
REMARK VINA RESULT:      -5.9     22.297     23.639
REMARK  Name = 
REMARK  3 active torsions:
REMARK  status: ('A' for Active; 'I' for Inactive)
REMARK    1  A    between atoms: C_2  and  C_3
REMARK    2  A    between atoms: C_6  and  N_7
REMARK    3  A    between atoms: N_7  and  C_8
REMARK                            x       y       z     vdW  Elec       q    Type
REMARK                         _______ _______ _______ _____ _____    ______ ____
ROOT
ATOM      1  C   UNL     1      25.470  -0.471  17.093  0.00  0.00    +0.000 A 
ATOM      2  C   UNL     1      25.382   0.764  17.652  0.00  0.00    +0.000 A 
ATOM      3  C   UNL     1      24.177   1.342  17.747  0.00  0.00    +0.000 A 
ATOM      4  C   UNL     1      23.885   2.605  18.290  0.00  0.00    +0.000 A 
ATOM      5  N   UNL     1      22.617   3.011  18.298  0.00  0.00    +0.000 NA
ATOM      6  C   UNL     1      21.567   2.335  17.837  0.00  0.00    +0.000 A 
ATOM      7  C   UNL     1      20.168   2.830  17.866  0.00  0.00    +0.000 C 
ATOM      8  N   UNL     1      21.828   1.117  17.310  0.00  0.00    +0.000 NA
ATOM      9  C   UNL     1      23.109   0.634  17.269  0.00  0.00    +0.000 A 
ATOM     10  S   UNL     1      23.845  -0.809  16.708  0.00  0.00    +0.000 S 
ENDROOT
BRANCH   1  12
ATOM     11  C   UNL     1      27.254  -1.652  18.252  0.00  0.00    +0.000 C 
ATOM     12  C   UNL     1      26.710  -1.306  16.884  0.00  0.00    +0.000 C 
ENDBRANCH   1  12
BRANCH   4  13
ATOM     13  N   UNL     1      24.928   3.426  18.817  0.00  0.00    +0.000 NA
BRANCH  13  14
ATOM     14  C   UNL     1      25.569   4.418  18.046  0.00  0.00    +0.000 A 
ATOM     15  C   UNL     1      25.237   4.673  16.726  0.00  0.00    +0.000 A 
ATOM     16  C   UNL     1      25.898   5.659  16.012  0.00  0.00    +0.000 A 
ATOM     17  C   UNL     1      26.901   6.423  16.569  0.00  0.00    +0.000 A 
ATOM     18  O   UNL     1      27.568   7.414  15.859  0.00  0.00    +0.000 OA
ATOM     19  C   UNL     1      27.237   6.173  17.886  0.00  0.00    +0.000 A 
ATOM     20  C   UNL     1      26.574   5.187  18.595  0.00  0.00    +0.000 A 
ENDBRANCH  13  14
ENDBRANCH   4  13
TORSDOF 3
ENDMDL
MODEL 8
REMARK VINA RESULT:      -5.8      4.204      6.435
REMARK  Name = 
REMARK  3 active torsions:
REMARK  status: ('A' for Active; 'I' for Inactive)
REMARK    1  A    between atoms: C_2  and  C_3
REMARK    2  A    between atoms: C_6  and  N_7
REMARK    3  A    between atoms: N_7  and  C_8
REMARK                            x       y       z     vdW  Elec       q    Type
REMARK                         _______ _______ _______ _____ _____    ______ ____
ROOT
ATOM      1  C   UNL     1      32.070  23.627  27.073  0.00  0.00    +0.000 A 
ATOM      2  C   UNL     1      30.825  23.092  26.970  0.00  0.00    +0.000 A 
ATOM      3  C   UNL     1      30.168  23.213  25.809  0.00  0.00    +0.000 A 
ATOM      4  C   UNL     1      28.883  22.730  25.511  0.00  0.00    +0.000 A 
ATOM      5  N   UNL     1      28.393  22.949  24.292  0.00  0.00    +0.000 NA
ATOM      6  C   UNL     1      29.003  23.591  23.298  0.00  0.00    +0.000 A 
ATOM      7  C   UNL     1      28.416  23.811  21.952  0.00  0.00    +0.000 C 
ATOM      8  N   UNL     1      30.242  24.063  23.566  0.00  0.00    +0.000 NA
ATOM      9  C   UNL     1      30.809  23.876  24.798  0.00  0.00    +0.000 A 
ATOM     10  S   UNL     1      32.303  24.297  25.524  0.00  0.00    +0.000 S 
ENDROOT
BRANCH   1  12
ATOM     11  C   UNL     1      34.292  24.249  27.845  0.00  0.00    +0.000 C 
ATOM     12  C   UNL     1      32.988  23.612  28.271  0.00  0.00    +0.000 C 
ENDBRANCH   1  12
BRANCH   4  13
ATOM     13  N   UNL     1      28.127  22.025  26.495  0.00  0.00    +0.000 NA
BRANCH  13  14
ATOM     14  C   UNL     1      27.433  22.685  27.530  0.00  0.00    +0.000 A 
ATOM     15  C   UNL     1      26.470  23.651  27.289  0.00  0.00    +0.000 A 
ATOM     16  C   UNL     1      25.817  24.272  28.341  0.00  0.00    +0.000 A 
ATOM     17  C   UNL     1      26.087  23.965  29.658  0.00  0.00    +0.000 A 
ATOM     18  O   UNL     1      25.436  24.584  30.718  0.00  0.00    +0.000 OA
ATOM     19  C   UNL     1      27.047  23.003  29.904  0.00  0.00    +0.000 A 
ATOM     20  C   UNL     1      27.696  22.386  28.850  0.00  0.00    +0.000 A 
ENDBRANCH  13  14
ENDBRANCH   4  13
TORSDOF 3
ENDMDL
MODEL 9
REMARK VINA RESULT:      -5.7      4.175      7.201
REMARK  Name = 
REMARK  3 active torsions:
REMARK  status: ('A' for Active; 'I' for Inactive)
REMARK    1  A    between atoms: C_2  and  C_3
REMARK    2  A    between atoms: C_6  and  N_7
REMARK    3  A    between atoms: N_7  and  C_8
REMARK                            x       y       z     vdW  Elec       q    Type
REMARK                         _______ _______ _______ _____ _____    ______ ____
ROOT
ATOM      1  C   UNL     1      28.376  23.864  23.280  0.00  0.00    +0.000 A 
ATOM      2  C   UNL     1      28.664  23.262  24.463  0.00  0.00    +0.000 A 
ATOM      3  C   UNL     1      29.851  23.503  25.035  0.00  0.00    +0.000 A 
ATOM      4  C   UNL     1      30.328  22.978  26.248  0.00  0.00    +0.000 A 
ATOM      5  N   UNL     1      31.543  23.336  26.657  0.00  0.00    +0.000 NA
ATOM      6  C   UNL     1      32.378  24.160  26.028  0.00  0.00    +0.000 A 
ATOM      7  C   UNL     1      33.728  24.531  26.524  0.00  0.00    +0.000 C 
ATOM      8  N   UNL     1      31.937  24.675  24.858  0.00  0.00    +0.000 NA
ATOM      9  C   UNL     1      30.698  24.351  24.374  0.00  0.00    +0.000 A 
ATOM     10  S   UNL     1      29.788  24.770  22.984  0.00  0.00    +0.000 S 
ENDROOT
BRANCH   1  12
ATOM     11  C   UNL     1      25.986  23.428  23.420  0.00  0.00    +0.000 C 
ATOM     12  C   UNL     1      27.114  23.742  22.461  0.00  0.00    +0.000 C 
ENDBRANCH   1  12
BRANCH   4  13
ATOM     13  N   UNL     1      29.523  22.082  27.016  0.00  0.00    +0.000 NA
BRANCH  13  14
ATOM     14  C   UNL     1      28.633  22.534  28.012  0.00  0.00    +0.000 A 
ATOM     15  C   UNL     1      29.017  22.725  29.329  0.00  0.00    +0.000 A 
ATOM     16  C   UNL     1      28.104  23.169  30.271  0.00  0.00    +0.000 A 
ATOM     17  C   UNL     1      26.791  23.439  29.951  0.00  0.00    +0.000 A 
ATOM     18  O   UNL     1      25.869  23.885  30.891  0.00  0.00    +0.000 OA
ATOM     19  C   UNL     1      26.402  23.249  28.639  0.00  0.00    +0.000 A 
ATOM     20  C   UNL     1      27.317  22.806  27.702  0.00  0.00    +0.000 A 
ENDBRANCH  13  14
ENDBRANCH   4  13
TORSDOF 3
ENDMDL
MODEL 10
REMARK VINA RESULT:      -5.6      2.229      4.161
REMARK  Name = 
REMARK  3 active torsions:
REMARK  status: ('A' for Active; 'I' for Inactive)
REMARK    1  A    between atoms: C_2  and  C_3
REMARK    2  A    between atoms: C_6  and  N_7
REMARK    3  A    between atoms: N_7  and  C_8
REMARK                            x       y       z     vdW  Elec       q    Type
REMARK                         _______ _______ _______ _____ _____    ______ ____
ROOT
ATOM      1  C   UNL     1      24.714  25.211  26.889  0.00  0.00    +0.000 A 
ATOM      2  C   UNL     1      25.370  24.755  25.791  0.00  0.00    +0.000 A 
ATOM      3  C   UNL     1      26.501  24.057  25.961  0.00  0.00    +0.000 A 
ATOM      4  C   UNL     1      27.314  23.506  24.956  0.00  0.00    +0.000 A 
ATOM      5  N   UNL     1      28.407  22.840  25.322  0.00  0.00    +0.000 NA
ATOM      6  C   UNL     1      28.825  22.631  26.569  0.00  0.00    +0.000 A 
ATOM      7  C   UNL     1      30.054  21.880  26.930  0.00  0.00    +0.000 C 
ATOM      8  N   UNL     1      28.056  23.154  27.550  0.00  0.00    +0.000 NA
ATOM      9  C   UNL     1      26.917  23.852  27.248  0.00  0.00    +0.000 A 
ATOM     10  S   UNL     1      25.702  24.647  28.158  0.00  0.00    +0.000 S 
ENDROOT
BRANCH   1  12
ATOM     11  C   UNL     1      23.187  26.546  25.545  0.00  0.00    +0.000 C 
ATOM     12  C   UNL     1      23.435  26.010  26.939  0.00  0.00    +0.000 C 
ENDBRANCH   1  12
BRANCH   4  13
ATOM     13  N   UNL     1      26.971  23.663  23.579  0.00  0.00    +0.000 NA
BRANCH  13  14
ATOM     14  C   UNL     1      27.672  24.535  22.721  0.00  0.00    +0.000 A 
ATOM     15  C   UNL     1      28.706  24.112  21.903  0.00  0.00    +0.000 A 
ATOM     16  C   UNL     1      29.364  25.009  21.078  0.00  0.00    +0.000 A 
ATOM     17  C   UNL     1      29.028  26.345  21.030  0.00  0.00    +0.000 A 
ATOM     18  O   UNL     1      29.684  27.252  20.205  0.00  0.00    +0.000 OA
ATOM     19  C   UNL     1      27.998  26.774  21.844  0.00  0.00    +0.000 A 
ATOM     20  C   UNL     1      27.344  25.874  22.666  0.00  0.00    +0.000 A 
ENDBRANCH  13  14
ENDBRANCH   4  13
TORSDOF 3
ENDMDL
