MODEL 1
REMARK VINA RESULT:      -6.8      0.000      0.000
REMARK  Name = 
REMARK  3 active torsions:
REMARK  status: ('A' for Active; 'I' for Inactive)
REMARK    1  A    between atoms: O_2  and  C_3
REMARK    2  A    between atoms: C_6  and  N_7
REMARK    3  A    between atoms: C_10  and  N_11
REMARK                            x       y       z     vdW  Elec       q    Type
REMARK                         _______ _______ _______ _____ _____    ______ ____
ROOT
ATOM      1  N   UNL     1      28.584  23.321  27.702  0.00  0.00    +0.000 N 
ATOM      2  C   UNL     1      27.370  23.359  28.257  0.00  0.00    +0.000 A 
ATOM      3  C   UNL     1      26.150  23.706  27.462  0.00  0.00    +0.000 C 
ATOM      4  C   UNL     1      27.458  23.041  29.587  0.00  0.00    +0.000 A 
ATOM      5  C   UNL     1      28.772  22.799  29.861  0.00  0.00    +0.000 A 
ATOM      6  C   UNL     1      29.447  22.445  30.996  0.00  0.00    +0.000 A 
ATOM      7  C   UNL     1      30.822  22.264  30.966  0.00  0.00    +0.000 A 
ATOM      8  C   UNL     1      31.527  22.439  29.787  0.00  0.00    +0.000 A 
ATOM      9  O   UNL     1      32.922  22.257  29.752  0.00  0.00    +0.000 OA
ATOM     10  C   UNL     1      30.831  22.795  28.656  0.00  0.00    +0.000 A 
ATOM     11  C   UNL     1      29.447  22.978  28.678  0.00  0.00    +0.000 A 
ENDROOT
BRANCH   1  15
ATOM     12  C   UNL     1      29.630  24.066  23.649  0.00  0.00    +0.000 A 
ATOM     13  C   UNL     1      29.399  22.786  24.102  0.00  0.00    +0.000 A 
ATOM     14  C   UNL     1      29.059  22.565  25.427  0.00  0.00    +0.000 A 
ATOM     15  C   UNL     1      28.938  23.588  26.335  0.00  0.00    +0.000 A 
ATOM     16  C   UNL     1      29.169  24.868  25.881  0.00  0.00    +0.000 A 
ATOM     17  C   UNL     1      29.513  25.105  24.545  0.00  0.00    +0.000 A 
BRANCH  12  19
ATOM     18  C   UNL     1      29.073  24.946  21.427  0.00  0.00    +0.000 C 
ATOM     19  O   UNL     1      29.976  24.301  22.304  0.00  0.00    +0.000 OA
ENDBRANCH  12  19
ENDBRANCH   1  15
BRANCH   4  20
ATOM     20  N   UNL     1      26.339  22.991  30.472  0.00  0.00    +0.000 N 
ATOM     21  O   UNL     1      25.866  24.061  30.904  0.00  0.00    +0.000 OA
ATOM     22  O   UNL     1      25.860  21.756  30.786  0.00  0.00    +0.000 OA
ENDBRANCH   4  20
TORSDOF 3
ENDMDL
MODEL 2
REMARK VINA RESULT:      -6.2      2.668      6.300
REMARK  Name = 
REMARK  3 active torsions:
REMARK  status: ('A' for Active; 'I' for Inactive)
REMARK    1  A    between atoms: O_2  and  C_3
REMARK    2  A    between atoms: C_6  and  N_7
REMARK    3  A    between atoms: C_10  and  N_11
REMARK                            x       y       z     vdW  Elec       q    Type
REMARK                         _______ _______ _______ _____ _____    ______ ____
ROOT
ATOM      1  N   UNL     1      26.947  24.022  26.171  0.00  0.00    +0.000 N 
ATOM      2  C   UNL     1      26.256  24.158  25.036  0.00  0.00    +0.000 A 
ATOM      3  C   UNL     1      24.852  24.675  25.024  0.00  0.00    +0.000 C 
ATOM      4  C   UNL     1      27.029  23.765  23.974  0.00  0.00    +0.000 A 
ATOM      5  C   UNL     1      28.236  23.372  24.473  0.00  0.00    +0.000 A 
ATOM      6  C   UNL     1      29.380  22.893  23.900  0.00  0.00    +0.000 A 
ATOM      7  C   UNL     1      30.478  22.572  24.685  0.00  0.00    +0.000 A 
ATOM      8  C   UNL     1      30.426  22.733  26.059  0.00  0.00    +0.000 A 
ATOM      9  O   UNL     1      31.537  22.408  26.861  0.00  0.00    +0.000 OA
ATOM     10  C   UNL     1      29.267  23.216  26.618  0.00  0.00    +0.000 A 
ATOM     11  C   UNL     1      28.159  23.542  25.834  0.00  0.00    +0.000 A 
ENDROOT
BRANCH   1  15
ATOM     12  C   UNL     1      25.657  24.947  30.116  0.00  0.00    +0.000 A 
ATOM     13  C   UNL     1      25.767  25.925  29.154  0.00  0.00    +0.000 A 
ATOM     14  C   UNL     1      26.189  25.603  27.874  0.00  0.00    +0.000 A 
ATOM     15  C   UNL     1      26.512  24.319  27.508  0.00  0.00    +0.000 A 
ATOM     16  C   UNL     1      26.401  23.340  28.471  0.00  0.00    +0.000 A 
ATOM     17  C   UNL     1      25.976  23.653  29.768  0.00  0.00    +0.000 A 
BRANCH  12  19
ATOM     18  C   UNL     1      24.316  26.319  31.645  0.00  0.00    +0.000 C 
ATOM     19  O   UNL     1      25.229  25.263  31.419  0.00  0.00    +0.000 OA
ENDBRANCH  12  19
ENDBRANCH   1  15
BRANCH   4  20
ATOM     20  N   UNL     1      26.588  23.784  22.617  0.00  0.00    +0.000 N 
ATOM     21  O   UNL     1      27.075  24.628  21.838  0.00  0.00    +0.000 OA
ATOM     22  O   UNL     1      25.650  22.863  22.263  0.00  0.00    +0.000 OA
ENDBRANCH   4  20
TORSDOF 3
ENDMDL
MODEL 3
REMARK VINA RESULT:      -6.2     18.387     20.239
REMARK  Name = 
REMARK  3 active torsions:
REMARK  status: ('A' for Active; 'I' for Inactive)
REMARK    1  A    between atoms: O_2  and  C_3
REMARK    2  A    between atoms: C_6  and  N_7
REMARK    3  A    between atoms: C_10  and  N_11
REMARK                            x       y       z     vdW  Elec       q    Type
REMARK                         _______ _______ _______ _____ _____    ______ ____
ROOT
ATOM      1  N   UNL     1      18.906   9.894  37.916  0.00  0.00    +0.000 N 
ATOM      2  C   UNL     1      20.233   9.788  38.030  0.00  0.00    +0.000 A 
ATOM      3  C   UNL     1      21.143   9.978  36.857  0.00  0.00    +0.000 C 
ATOM      4  C   UNL     1      20.565   9.497  39.328  0.00  0.00    +0.000 A 
ATOM      5  C   UNL     1      19.402   9.421  40.037  0.00  0.00    +0.000 A 
ATOM      6  C   UNL     1      19.115   9.166  41.349  0.00  0.00    +0.000 A 
ATOM      7  C   UNL     1      17.799   9.156  41.790  0.00  0.00    +0.000 A 
ATOM      8  C   UNL     1      16.762   9.403  40.907  0.00  0.00    +0.000 A 
ATOM      9  O   UNL     1      15.426   9.394  41.350  0.00  0.00    +0.000 OA
ATOM     10  C   UNL     1      17.071   9.658  39.591  0.00  0.00    +0.000 A 
ATOM     11  C   UNL     1      18.391   9.671  39.140  0.00  0.00    +0.000 A 
ENDROOT
BRANCH   1  15
ATOM     12  C   UNL     1      16.642  10.802  34.433  0.00  0.00    +0.000 A 
ATOM     13  C   UNL     1      16.871  11.752  35.403  0.00  0.00    +0.000 A 
ATOM     14  C   UNL     1      17.612  11.436  36.531  0.00  0.00    +0.000 A 
ATOM     15  C   UNL     1      18.144  10.185  36.733  0.00  0.00    +0.000 A 
ATOM     16  C   UNL     1      17.915   9.236  35.763  0.00  0.00    +0.000 A 
ATOM     17  C   UNL     1      17.168   9.543  34.619  0.00  0.00    +0.000 A 
BRANCH  12  19
ATOM     18  C   UNL     1      16.290  10.645  32.010  0.00  0.00    +0.000 C 
ATOM     19  O   UNL     1      15.891  11.113  33.284  0.00  0.00    +0.000 OA
ENDBRANCH  12  19
ENDBRANCH   1  15
BRANCH   4  20
ATOM     20  N   UNL     1      21.903   9.317  39.788  0.00  0.00    +0.000 N 
ATOM     21  O   UNL     1      22.582  10.323  40.074  0.00  0.00    +0.000 OA
ATOM     22  O   UNL     1      22.352   8.035  39.883  0.00  0.00    +0.000 OA
ENDBRANCH   4  20
TORSDOF 3
ENDMDL
MODEL 4
REMARK VINA RESULT:      -6.2     17.907     19.422
REMARK  Name = 
REMARK  3 active torsions:
REMARK  status: ('A' for Active; 'I' for Inactive)
REMARK    1  A    between atoms: O_2  and  C_3
REMARK    2  A    between atoms: C_6  and  N_7
REMARK    3  A    between atoms: C_10  and  N_11
REMARK                            x       y       z     vdW  Elec       q    Type
REMARK                         _______ _______ _______ _____ _____    ______ ____
ROOT
ATOM      1  N   UNL     1      19.026   9.866  37.793  0.00  0.00    +0.000 N 
ATOM      2  C   UNL     1      18.642   9.589  39.043  0.00  0.00    +0.000 A 
ATOM      3  C   UNL     1      17.204   9.634  39.454  0.00  0.00    +0.000 C 
ATOM      4  C   UNL     1      19.738   9.282  39.806  0.00  0.00    +0.000 A 
ATOM      5  C   UNL     1      20.834   9.372  38.999  0.00  0.00    +0.000 A 
ATOM      6  C   UNL     1      22.171   9.180  39.204  0.00  0.00    +0.000 A 
ATOM      7  C   UNL     1      23.072   9.350  38.162  0.00  0.00    +0.000 A 
ATOM      8  C   UNL     1      22.627   9.715  36.903  0.00  0.00    +0.000 A 
ATOM      9  O   UNL     1      23.537   9.887  35.843  0.00  0.00    +0.000 OA
ATOM     10  C   UNL     1      21.278   9.903  36.716  0.00  0.00    +0.000 A 
ATOM     11  C   UNL     1      20.366   9.734  37.759  0.00  0.00    +0.000 A 
ENDROOT
BRANCH   1  15
ATOM     12  C   UNL     1      16.583  10.917  34.475  0.00  0.00    +0.000 A 
ATOM     13  C   UNL     1      17.146   9.665  34.578  0.00  0.00    +0.000 A 
ATOM     14  C   UNL     1      17.939   9.342  35.667  0.00  0.00    +0.000 A 
ATOM     15  C   UNL     1      18.198  10.236  36.678  0.00  0.00    +0.000 A 
ATOM     16  C   UNL     1      17.634  11.488  36.575  0.00  0.00    +0.000 A 
ATOM     17  C   UNL     1      16.831  11.827  35.479  0.00  0.00    +0.000 A 
BRANCH  12  19
ATOM     18  C   UNL     1      16.066  10.753  32.082  0.00  0.00    +0.000 C 
ATOM     19  O   UNL     1      15.776  11.255  33.372  0.00  0.00    +0.000 OA
ENDBRANCH  12  19
ENDBRANCH   1  15
BRANCH   4  20
ATOM     20  N   UNL     1      19.675   8.940  41.190  0.00  0.00    +0.000 N 
ATOM     21  O   UNL     1      19.741   9.850  42.039  0.00  0.00    +0.000 OA
ATOM     22  O   UNL     1      19.547   7.618  41.490  0.00  0.00    +0.000 OA
ENDBRANCH   4  20
TORSDOF 3
ENDMDL
MODEL 5
REMARK VINA RESULT:      -6.1     17.363     20.040
REMARK  Name = 
REMARK  3 active torsions:
REMARK  status: ('A' for Active; 'I' for Inactive)
REMARK    1  A    between atoms: O_2  and  C_3
REMARK    2  A    between atoms: C_6  and  N_7
REMARK    3  A    between atoms: C_10  and  N_11
REMARK                            x       y       z     vdW  Elec       q    Type
REMARK                         _______ _______ _______ _____ _____    ______ ____
ROOT
ATOM      1  N   UNL     1      18.889  10.205  38.641  0.00  0.00    +0.000 N 
ATOM      2  C   UNL     1      18.589   9.509  39.742  0.00  0.00    +0.000 A 
ATOM      3  C   UNL     1      19.646   8.832  40.559  0.00  0.00    +0.000 C 
ATOM      4  C   UNL     1      17.236   9.538  39.953  0.00  0.00    +0.000 A 
ATOM      5  C   UNL     1      16.683  10.277  38.949  0.00  0.00    +0.000 A 
ATOM      6  C   UNL     1      15.401  10.641  38.645  0.00  0.00    +0.000 A 
ATOM      7  C   UNL     1      15.140  11.421  37.527  0.00  0.00    +0.000 A 
ATOM      8  C   UNL     1      16.174  11.838  36.706  0.00  0.00    +0.000 A 
ATOM      9  O   UNL     1      15.913  12.628  35.571  0.00  0.00    +0.000 OA
ATOM     10  C   UNL     1      17.457  11.461  37.028  0.00  0.00    +0.000 A 
ATOM     11  C   UNL     1      17.727  10.678  38.151  0.00  0.00    +0.000 A 
ENDROOT
BRANCH   1  15
ATOM     12  C   UNL     1      22.720  10.819  36.902  0.00  0.00    +0.000 A 
ATOM     13  C   UNL     1      21.877   9.833  36.441  0.00  0.00    +0.000 A 
ATOM     14  C   UNL     1      20.633   9.649  37.021  0.00  0.00    +0.000 A 
ATOM     15  C   UNL     1      20.186  10.425  38.064  0.00  0.00    +0.000 A 
ATOM     16  C   UNL     1      21.029  11.412  38.524  0.00  0.00    +0.000 A 
ATOM     17  C   UNL     1      22.290  11.608  37.946  0.00  0.00    +0.000 A 
BRANCH  12  19
ATOM     18  C   UNL     1      25.092  10.223  36.707  0.00  0.00    +0.000 C 
ATOM     19  O   UNL     1      23.987  11.014  36.318  0.00  0.00    +0.000 OA
ENDBRANCH  12  19
ENDBRANCH   1  15
BRANCH   4  20
ATOM     20  N   UNL     1      16.585   8.889  41.046  0.00  0.00    +0.000 N 
ATOM     21  O   UNL     1      16.365   7.665  40.974  0.00  0.00    +0.000 OA
ATOM     22  O   UNL     1      16.244   9.670  42.107  0.00  0.00    +0.000 OA
ENDBRANCH   4  20
TORSDOF 3
ENDMDL
MODEL 6
REMARK VINA RESULT:      -5.9     14.973     19.700
REMARK  Name = 
REMARK  3 active torsions:
REMARK  status: ('A' for Active; 'I' for Inactive)
REMARK    1  A    between atoms: O_2  and  C_3
REMARK    2  A    between atoms: C_6  and  N_7
REMARK    3  A    between atoms: C_10  and  N_11
REMARK                            x       y       z     vdW  Elec       q    Type
REMARK                         _______ _______ _______ _____ _____    ______ ____
ROOT
ATOM      1  N   UNL     1      32.316  21.889   9.446  0.00  0.00    +0.000 N 
ATOM      2  C   UNL     1      33.569  22.309   9.252  0.00  0.00    +0.000 A 
ATOM      3  C   UNL     1      34.280  23.159  10.259  0.00  0.00    +0.000 C 
ATOM      4  C   UNL     1      34.033  21.843   8.050  0.00  0.00    +0.000 A 
ATOM      5  C   UNL     1      33.031  21.112   7.483  0.00  0.00    +0.000 A 
ATOM      6  C   UNL     1      32.919  20.419   6.310  0.00  0.00    +0.000 A 
ATOM      7  C   UNL     1      31.743  19.753   5.998  0.00  0.00    +0.000 A 
ATOM      8  C   UNL     1      30.669  19.781   6.871  0.00  0.00    +0.000 A 
ATOM      9  O   UNL     1      29.474  19.107   6.559  0.00  0.00    +0.000 OA
ATOM     10  C   UNL     1      30.800  20.483   8.046  0.00  0.00    +0.000 A 
ATOM     11  C   UNL     1      31.980  21.155   8.367  0.00  0.00    +0.000 A 
ENDROOT
BRANCH   1  15
ATOM     12  C   UNL     1      29.766  22.697  12.751  0.00  0.00    +0.000 A 
ATOM     13  C   UNL     1      29.613  23.359  11.554  0.00  0.00    +0.000 A 
ATOM     14  C   UNL     1      30.455  23.081  10.489  0.00  0.00    +0.000 A 
ATOM     15  C   UNL     1      31.462  22.151  10.572  0.00  0.00    +0.000 A 
ATOM     16  C   UNL     1      31.614  21.488  11.769  0.00  0.00    +0.000 A 
ATOM     17  C   UNL     1      30.771  21.760  12.853  0.00  0.00    +0.000 A 
BRANCH  12  19
ATOM     18  C   UNL     1      27.589  23.410  13.629  0.00  0.00    +0.000 C 
ATOM     19  O   UNL     1      28.917  22.973  13.840  0.00  0.00    +0.000 OA
ENDBRANCH  12  19
ENDBRANCH   1  15
BRANCH   4  20
ATOM     20  N   UNL     1      35.338  22.113   7.540  0.00  0.00    +0.000 N 
ATOM     21  O   UNL     1      36.278  21.360   7.861  0.00  0.00    +0.000 OA
ATOM     22  O   UNL     1      35.466  23.196   6.724  0.00  0.00    +0.000 OA
ENDBRANCH   4  20
TORSDOF 3
ENDMDL
MODEL 7
REMARK VINA RESULT:      -5.8     32.989     34.380
REMARK  Name = 
REMARK  3 active torsions:
REMARK  status: ('A' for Active; 'I' for Inactive)
REMARK    1  A    between atoms: O_2  and  C_3
REMARK    2  A    between atoms: C_6  and  N_7
REMARK    3  A    between atoms: C_10  and  N_11
REMARK                            x       y       z     vdW  Elec       q    Type
REMARK                         _______ _______ _______ _____ _____    ______ ____
ROOT
ATOM      1  N   UNL     1      19.346  -9.286  27.562  0.00  0.00    +0.000 N 
ATOM      2  C   UNL     1      20.380  -9.943  27.031  0.00  0.00    +0.000 A 
ATOM      3  C   UNL     1      20.695 -11.357  27.410  0.00  0.00    +0.000 C 
ATOM      4  C   UNL     1      21.038  -9.132  26.144  0.00  0.00    +0.000 A 
ATOM      5  C   UNL     1      20.386  -7.934  26.129  0.00  0.00    +0.000 A 
ATOM      6  C   UNL     1      20.582  -6.764  25.449  0.00  0.00    +0.000 A 
ATOM      7  C   UNL     1      19.731  -5.687  25.645  0.00  0.00    +0.000 A 
ATOM      8  C   UNL     1      18.672  -5.784  26.532  0.00  0.00    +0.000 A 
ATOM      9  O   UNL     1      17.805  -4.693  26.735  0.00  0.00    +0.000 OA
ATOM     10  C   UNL     1      18.491  -6.968  27.207  0.00  0.00    +0.000 A 
ATOM     11  C   UNL     1      19.343  -8.056  27.014  0.00  0.00    +0.000 A 
ENDROOT
BRANCH   1  15
ATOM     12  C   UNL     1      16.577 -10.690  30.469  0.00  0.00    +0.000 A 
ATOM     13  C   UNL     1      17.716 -10.011  30.838  0.00  0.00    +0.000 A 
ATOM     14  C   UNL     1      18.606  -9.561  29.875  0.00  0.00    +0.000 A 
ATOM     15  C   UNL     1      18.400  -9.766  28.532  0.00  0.00    +0.000 A 
ATOM     16  C   UNL     1      17.261 -10.445  28.163  0.00  0.00    +0.000 A 
ATOM     17  C   UNL     1      16.354 -10.904  29.126  0.00  0.00    +0.000 A 
BRANCH  12  19
ATOM     18  C   UNL     1      15.302 -10.334  32.534  0.00  0.00    +0.000 C 
ATOM     19  O   UNL     1      15.667 -11.150  31.439  0.00  0.00    +0.000 OA
ENDBRANCH  12  19
ENDBRANCH   1  15
BRANCH   4  20
ATOM     20  N   UNL     1      22.192  -9.529  25.404  0.00  0.00    +0.000 N 
ATOM     21  O   UNL     1      23.295  -9.568  25.983  0.00  0.00    +0.000 OA
ATOM     22  O   UNL     1      22.001  -9.842  24.092  0.00  0.00    +0.000 OA
ENDBRANCH   4  20
TORSDOF 3
ENDMDL
MODEL 8
REMARK VINA RESULT:      -5.8     14.376     18.896
REMARK  Name = 
REMARK  3 active torsions:
REMARK  status: ('A' for Active; 'I' for Inactive)
REMARK    1  A    between atoms: O_2  and  C_3
REMARK    2  A    between atoms: C_6  and  N_7
REMARK    3  A    between atoms: C_10  and  N_11
REMARK                            x       y       z     vdW  Elec       q    Type
REMARK                         _______ _______ _______ _____ _____    ______ ____
ROOT
ATOM      1  N   UNL     1      31.930  21.746   9.762  0.00  0.00    +0.000 N 
ATOM      2  C   UNL     1      31.572  20.942   8.756  0.00  0.00    +0.000 A 
ATOM      3  C   UNL     1      30.218  20.309   8.697  0.00  0.00    +0.000 C 
ATOM      4  C   UNL     1      32.608  20.827   7.866  0.00  0.00    +0.000 A 
ATOM      5  C   UNL     1      33.638  21.585   8.339  0.00  0.00    +0.000 A 
ATOM      6  C   UNL     1      34.899  21.849   7.883  0.00  0.00    +0.000 A 
ATOM      7  C   UNL     1      35.744  22.683   8.600  0.00  0.00    +0.000 A 
ATOM      8  C   UNL     1      35.321  23.257   9.786  0.00  0.00    +0.000 A 
ATOM      9  O   UNL     1      36.175  24.104  10.517  0.00  0.00    +0.000 OA
ATOM     10  C   UNL     1      34.049  22.981  10.229  0.00  0.00    +0.000 A 
ATOM     11  C   UNL     1      33.193  22.143   9.513  0.00  0.00    +0.000 A 
ENDROOT
BRANCH   1  15
ATOM     12  C   UNL     1      29.591  22.920  13.113  0.00  0.00    +0.000 A 
ATOM     13  C   UNL     1      29.425  23.516  11.883  0.00  0.00    +0.000 A 
ATOM     14  C   UNL     1      30.197  23.119  10.804  0.00  0.00    +0.000 A 
ATOM     15  C   UNL     1      31.147  22.131  10.904  0.00  0.00    +0.000 A 
ATOM     16  C   UNL     1      31.312  21.535  12.133  0.00  0.00    +0.000 A 
ATOM     17  C   UNL     1      30.538  21.927  13.233  0.00  0.00    +0.000 A 
BRANCH  12  19
ATOM     18  C   UNL     1      28.382  24.657  14.355  0.00  0.00    +0.000 C 
ATOM     19  O   UNL     1      28.811  23.317  14.216  0.00  0.00    +0.000 OA
ENDBRANCH  12  19
ENDBRANCH   1  15
BRANCH   4  20
ATOM     20  N   UNL     1      32.553  20.038   6.677  0.00  0.00    +0.000 N 
ATOM     21  O   UNL     1      32.221  20.584   5.607  0.00  0.00    +0.000 OA
ATOM     22  O   UNL     1      32.874  18.721   6.801  0.00  0.00    +0.000 OA
ENDBRANCH   4  20
TORSDOF 3
ENDMDL
MODEL 9
REMARK VINA RESULT:      -5.7      2.775      4.827
REMARK  Name = 
REMARK  3 active torsions:
REMARK  status: ('A' for Active; 'I' for Inactive)
REMARK    1  A    between atoms: O_2  and  C_3
REMARK    2  A    between atoms: C_6  and  N_7
REMARK    3  A    between atoms: C_10  and  N_11
REMARK                            x       y       z     vdW  Elec       q    Type
REMARK                         _______ _______ _______ _____ _____    ______ ____
ROOT
ATOM      1  N   UNL     1      29.330  23.967  26.086  0.00  0.00    +0.000 N 
ATOM      2  C   UNL     1      28.894  23.754  27.331  0.00  0.00    +0.000 A 
ATOM      3  C   UNL     1      29.786  23.932  28.520  0.00  0.00    +0.000 C 
ATOM      4  C   UNL     1      27.578  23.373  27.302  0.00  0.00    +0.000 A 
ATOM      5  C   UNL     1      27.191  23.351  25.994  0.00  0.00    +0.000 A 
ATOM      6  C   UNL     1      26.013  23.053  25.367  0.00  0.00    +0.000 A 
ATOM      7  C   UNL     1      25.918  23.122  23.985  0.00  0.00    +0.000 A 
ATOM      8  C   UNL     1      27.013  23.493  23.224  0.00  0.00    +0.000 A 
ATOM      9  O   UNL     1      26.921  23.565  21.822  0.00  0.00    +0.000 OA
ATOM     10  C   UNL     1      28.189  23.790  23.873  0.00  0.00    +0.000 A 
ATOM     11  C   UNL     1      28.292  23.723  25.263  0.00  0.00    +0.000 A 
ENDROOT
BRANCH   1  15
ATOM     12  C   UNL     1      33.227  25.132  24.846  0.00  0.00    +0.000 A 
ATOM     13  C   UNL     1      32.833  23.813  24.815  0.00  0.00    +0.000 A 
ATOM     14  C   UNL     1      31.558  23.454  25.223  0.00  0.00    +0.000 A 
ATOM     15  C   UNL     1      30.643  24.377  25.670  0.00  0.00    +0.000 A 
ATOM     16  C   UNL     1      31.037  25.696  25.700  0.00  0.00    +0.000 A 
ATOM     17  C   UNL     1      32.323  26.071  25.290  0.00  0.00    +0.000 A 
BRANCH  12  19
ATOM     18  C   UNL     1      35.461  24.533  24.027  0.00  0.00    +0.000 C 
ATOM     19  O   UNL     1      34.520  25.507  24.433  0.00  0.00    +0.000 OA
ENDBRANCH  12  19
ENDBRANCH   1  15
BRANCH   4  20
ATOM     20  N   UNL     1      26.810  23.067  28.465  0.00  0.00    +0.000 N 
ATOM     21  O   UNL     1      25.853  23.807  28.766  0.00  0.00    +0.000 OA
ATOM     22  O   UNL     1      27.186  21.969  29.177  0.00  0.00    +0.000 OA
ENDBRANCH   4  20
TORSDOF 3
ENDMDL
MODEL 10
REMARK VINA RESULT:      -5.6      2.335      5.984
REMARK  Name = 
REMARK  3 active torsions:
REMARK  status: ('A' for Active; 'I' for Inactive)
REMARK    1  A    between atoms: O_2  and  C_3
REMARK    2  A    between atoms: C_6  and  N_7
REMARK    3  A    between atoms: C_10  and  N_11
REMARK                            x       y       z     vdW  Elec       q    Type
REMARK                         _______ _______ _______ _____ _____    ______ ____
ROOT
ATOM      1  N   UNL     1      28.627  23.667  26.017  0.00  0.00    +0.000 N 
ATOM      2  C   UNL     1      28.468  23.546  24.696  0.00  0.00    +0.000 A 
ATOM      3  C   UNL     1      29.593  23.126  23.802  0.00  0.00    +0.000 C 
ATOM      4  C   UNL     1      27.177  23.855  24.354  0.00  0.00    +0.000 A 
ATOM      5  C   UNL     1      26.519  24.178  25.504  0.00  0.00    +0.000 A 
ATOM      6  C   UNL     1      25.236  24.562  25.777  0.00  0.00    +0.000 A 
ATOM      7  C   UNL     1      24.846  24.830  27.082  0.00  0.00    +0.000 A 
ATOM      8  C   UNL     1      25.753  24.712  28.122  0.00  0.00    +0.000 A 
ATOM      9  O   UNL     1      25.362  24.982  29.446  0.00  0.00    +0.000 OA
ATOM     10  C   UNL     1      27.039  24.325  27.827  0.00  0.00    +0.000 A 
ATOM     11  C   UNL     1      27.438  24.053  26.518  0.00  0.00    +0.000 A 
ENDROOT
BRANCH   1  15
ATOM     12  C   UNL     1      32.165  23.039  28.289  0.00  0.00    +0.000 A 
ATOM     13  C   UNL     1      31.823  24.293  27.834  0.00  0.00    +0.000 A 
ATOM     14  C   UNL     1      30.665  24.476  27.095  0.00  0.00    +0.000 A 
ATOM     15  C   UNL     1      29.819  23.439  26.786  0.00  0.00    +0.000 A 
ATOM     16  C   UNL     1      30.161  22.186  27.242  0.00  0.00    +0.000 A 
ATOM     17  C   UNL     1      31.329  21.987  27.990  0.00  0.00    +0.000 A 
BRANCH  12  19
ATOM     18  C   UNL     1      34.439  23.722  28.910  0.00  0.00    +0.000 C 
ATOM     19  O   UNL     1      33.339  22.843  29.041  0.00  0.00    +0.000 OA
ENDBRANCH  12  19
ENDBRANCH   1  15
BRANCH   4  20
ATOM     20  N   UNL     1      26.678  23.827  23.017  0.00  0.00    +0.000 N 
ATOM     21  O   UNL     1      25.895  22.915  22.687  0.00  0.00    +0.000 OA
ATOM     22  O   UNL     1      27.101  24.816  22.184  0.00  0.00    +0.000 OA
ENDBRANCH   4  20
TORSDOF 3
ENDMDL
