MODEL 1
REMARK VINA RESULT:      -6.7      0.000      0.000
REMARK  Name = 
REMARK  1 active torsions:
REMARK  status: ('A' for Active; 'I' for Inactive)
REMARK    1  A    between atoms: N_10  and  C_11
REMARK                            x       y       z     vdW  Elec       q    Type
REMARK                         _______ _______ _______ _____ _____    ______ ____
ROOT
ATOM      1  C   UNL     1      24.517  26.645  28.698  0.00  0.00    +0.000 C 
ATOM      2  C   UNL     1      25.277  25.421  29.018  0.00  0.00    +0.000 A 
ATOM      3  N   UNL     1      25.170  24.876  30.234  0.00  0.00    +0.000 NA
ATOM      4  N   UNL     1      25.848  23.779  30.532  0.00  0.00    +0.000 NA
ATOM      5  C   UNL     1      26.662  23.182  29.622  0.00  0.00    +0.000 A 
ATOM      6  C   UNL     1      27.406  21.966  29.967  0.00  0.00    +0.000 C 
ATOM      7  C   UNL     1      26.808  23.702  28.354  0.00  0.00    +0.000 A 
ATOM      8  C   UNL     1      27.516  23.371  27.231  0.00  0.00    +0.000 A 
ATOM      9  C   UNL     1      28.420  22.215  27.085  0.00  0.00    +0.000 C 
ATOM     10  N   UNL     1      27.272  24.266  26.242  0.00  0.00    +0.000 N 
ATOM     11  C   UNL     1      26.408  25.157  26.759  0.00  0.00    +0.000 A 
ATOM     12  C   UNL     1      25.857  26.330  26.023  0.00  0.00    +0.000 C 
ATOM     13  C   UNL     1      26.086  24.854  28.068  0.00  0.00    +0.000 A 
ENDROOT
BRANCH  10  14
ATOM     14  C   UNL     1      27.828  24.250  24.931  0.00  0.00    +0.000 A 
ATOM     15  C   UNL     1      29.014  24.940  24.674  0.00  0.00    +0.000 A 
ATOM     16  C   UNL     1      29.567  24.937  23.417  0.00  0.00    +0.000 A 
ATOM     17  C   UNL     1      28.987  24.264  22.364  0.00  0.00    +0.000 A 
ATOM     18  N   UNL     1      29.614  24.304  21.092  0.00  0.00    +0.000 NA
ATOM     19  C   UNL     1      27.808  23.574  22.602  0.00  0.00    +0.000 A 
ATOM     20  C   UNL     1      27.265  23.589  23.882  0.00  0.00    +0.000 A 
ENDBRANCH  10  14
TORSDOF 1
ENDMDL
MODEL 2
REMARK VINA RESULT:      -6.7      0.077      2.685
REMARK  Name = 
REMARK  1 active torsions:
REMARK  status: ('A' for Active; 'I' for Inactive)
REMARK    1  A    between atoms: N_10  and  C_11
REMARK                            x       y       z     vdW  Elec       q    Type
REMARK                         _______ _______ _______ _____ _____    ______ ____
ROOT
ATOM      1  C   UNL     1      27.335  21.943  29.996  0.00  0.00    +0.000 C 
ATOM      2  C   UNL     1      26.628  23.194  29.661  0.00  0.00    +0.000 A 
ATOM      3  N   UNL     1      25.855  23.782  30.580  0.00  0.00    +0.000 NA
ATOM      4  N   UNL     1      25.215  24.903  30.289  0.00  0.00    +0.000 NA
ATOM      5  C   UNL     1      25.325  25.484  29.066  0.00  0.00    +0.000 A 
ATOM      6  C   UNL     1      24.611  26.728  28.760  0.00  0.00    +0.000 C 
ATOM      7  C   UNL     1      26.110  24.920  28.083  0.00  0.00    +0.000 A 
ATOM      8  C   UNL     1      26.434  25.224  26.789  0.00  0.00    +0.000 A 
ATOM      9  C   UNL     1      25.958  26.393  26.027  0.00  0.00    +0.000 C 
ATOM     10  N   UNL     1      27.276  24.287  26.284  0.00  0.00    +0.000 N 
ATOM     11  C   UNL     1      27.469  23.398  27.273  0.00  0.00    +0.000 A 
ATOM     12  C   UNL     1      28.332  22.186  27.168  0.00  0.00    +0.000 C 
ATOM     13  C   UNL     1      26.769  23.743  28.413  0.00  0.00    +0.000 A 
ENDROOT
BRANCH  10  14
ATOM     14  C   UNL     1      27.827  24.266  24.971  0.00  0.00    +0.000 A 
ATOM     15  C   UNL     1      29.036  24.916  24.718  0.00  0.00    +0.000 A 
ATOM     16  C   UNL     1      29.585  24.908  23.459  0.00  0.00    +0.000 A 
ATOM     17  C   UNL     1      28.978  24.268  22.401  0.00  0.00    +0.000 A 
ATOM     18  N   UNL     1      29.603  24.300  21.128  0.00  0.00    +0.000 NA
ATOM     19  C   UNL     1      27.777  23.617  22.635  0.00  0.00    +0.000 A 
ATOM     20  C   UNL     1      27.237  23.637  23.916  0.00  0.00    +0.000 A 
ENDBRANCH  10  14
TORSDOF 1
ENDMDL
MODEL 3
REMARK VINA RESULT:      -6.7     18.237     20.399
REMARK  Name = 
REMARK  1 active torsions:
REMARK  status: ('A' for Active; 'I' for Inactive)
REMARK    1  A    between atoms: N_10  and  C_11
REMARK                            x       y       z     vdW  Elec       q    Type
REMARK                         _______ _______ _______ _____ _____    ______ ____
ROOT
ATOM      1  C   UNL     1      13.240  10.228  39.583  0.00  0.00    +0.000 C 
ATOM      2  C   UNL     1      13.455  11.057  38.381  0.00  0.00    +0.000 A 
ATOM      3  N   UNL     1      12.407  11.618  37.770  0.00  0.00    +0.000 NA
ATOM      4  N   UNL     1      12.588  12.362  36.691  0.00  0.00    +0.000 NA
ATOM      5  C   UNL     1      13.829  12.576  36.179  0.00  0.00    +0.000 A 
ATOM      6  C   UNL     1      14.013  13.405  34.983  0.00  0.00    +0.000 C 
ATOM      7  C   UNL     1      14.943  12.022  36.770  0.00  0.00    +0.000 A 
ATOM      8  C   UNL     1      16.290  12.029  36.530  0.00  0.00    +0.000 A 
ATOM      9  C   UNL     1      16.970  12.732  35.427  0.00  0.00    +0.000 C 
ATOM     10  N   UNL     1      16.937  11.288  37.464  0.00  0.00    +0.000 N 
ATOM     11  C   UNL     1      15.982  10.819  38.285  0.00  0.00    +0.000 A 
ATOM     12  C   UNL     1      16.234   9.948  39.469  0.00  0.00    +0.000 C 
ATOM     13  C   UNL     1      14.725  11.245  37.901  0.00  0.00    +0.000 A 
ENDROOT
BRANCH  10  14
ATOM     14  C   UNL     1      18.342  11.064  37.540  0.00  0.00    +0.000 A 
ATOM     15  C   UNL     1      18.902   9.959  36.897  0.00  0.00    +0.000 A 
ATOM     16  C   UNL     1      20.253   9.725  36.959  0.00  0.00    +0.000 A 
ATOM     17  C   UNL     1      21.109  10.555  37.648  0.00  0.00    +0.000 A 
ATOM     18  N   UNL     1      22.495  10.252  37.668  0.00  0.00    +0.000 NA
ATOM     19  C   UNL     1      20.569  11.657  38.292  0.00  0.00    +0.000 A 
ATOM     20  C   UNL     1      19.198  11.877  38.218  0.00  0.00    +0.000 A 
ENDBRANCH  10  14
TORSDOF 1
ENDMDL
MODEL 4
REMARK VINA RESULT:      -6.5     18.315     19.637
REMARK  Name = 
REMARK  1 active torsions:
REMARK  status: ('A' for Active; 'I' for Inactive)
REMARK    1  A    between atoms: N_10  and  C_11
REMARK                            x       y       z     vdW  Elec       q    Type
REMARK                         _______ _______ _______ _____ _____    ______ ____
ROOT
ATOM      1  C   UNL     1      13.361  14.193  34.338  0.00  0.00    +0.000 C 
ATOM      2  C   UNL     1      14.169  13.219  33.577  0.00  0.00    +0.000 A 
ATOM      3  N   UNL     1      13.969  13.079  32.262  0.00  0.00    +0.000 NA
ATOM      4  N   UNL     1      14.686  12.209  31.571  0.00  0.00    +0.000 NA
ATOM      5  C   UNL     1      15.635  11.441  32.168  0.00  0.00    +0.000 A 
ATOM      6  C   UNL     1      16.423  10.481  31.388  0.00  0.00    +0.000 C 
ATOM      7  C   UNL     1      15.882  11.545  33.520  0.00  0.00    +0.000 A 
ATOM      8  C   UNL     1      16.730  10.950  34.414  0.00  0.00    +0.000 A 
ATOM      9  C   UNL     1      17.725   9.908  34.103  0.00  0.00    +0.000 C 
ATOM     10  N   UNL     1      16.533  11.457  35.657  0.00  0.00    +0.000 N 
ATOM     11  C   UNL     1      15.555  12.371  35.528  0.00  0.00    +0.000 A 
ATOM     12  C   UNL     1      15.006  13.187  36.648  0.00  0.00    +0.000 C 
ATOM     13  C   UNL     1      15.115  12.466  34.223  0.00  0.00    +0.000 A 
ENDROOT
BRANCH  10  14
ATOM     14  C   UNL     1      17.229  11.083  36.842  0.00  0.00    +0.000 A 
ATOM     15  C   UNL     1      18.416  11.733  37.181  0.00  0.00    +0.000 A 
ATOM     16  C   UNL     1      19.102  11.387  38.320  0.00  0.00    +0.000 A 
ATOM     17  C   UNL     1      18.658  10.398  39.169  0.00  0.00    +0.000 A 
ATOM     18  N   UNL     1      19.418  10.094  40.328  0.00  0.00    +0.000 NA
ATOM     19  C   UNL     1      17.480   9.742  38.846  0.00  0.00    +0.000 A 
ATOM     20  C   UNL     1      16.801  10.107  37.690  0.00  0.00    +0.000 A 
ENDBRANCH  10  14
TORSDOF 1
ENDMDL
MODEL 5
REMARK VINA RESULT:      -6.1     21.546     24.574
REMARK  Name = 
REMARK  1 active torsions:
REMARK  status: ('A' for Active; 'I' for Inactive)
REMARK    1  A    between atoms: N_10  and  C_11
REMARK                            x       y       z     vdW  Elec       q    Type
REMARK                         _______ _______ _______ _____ _____    ______ ____
ROOT
ATOM      1  C   UNL     1      33.960   0.412  39.083  0.00  0.00    +0.000 C 
ATOM      2  C   UNL     1      33.714   0.383  37.629  0.00  0.00    +0.000 A 
ATOM      3  N   UNL     1      33.294  -0.748  37.052  0.00  0.00    +0.000 NA
ATOM      4  N   UNL     1      33.072  -0.786  35.748  0.00  0.00    +0.000 NA
ATOM      5  C   UNL     1      33.260   0.310  34.966  0.00  0.00    +0.000 A 
ATOM      6  C   UNL     1      33.008   0.253  33.523  0.00  0.00    +0.000 C 
ATOM      7  C   UNL     1      33.691   1.501  35.510  0.00  0.00    +0.000 A 
ATOM      8  C   UNL     1      33.975   2.753  35.035  0.00  0.00    +0.000 A 
ATOM      9  C   UNL     1      33.873   3.191  33.632  0.00  0.00    +0.000 C 
ATOM     10  N   UNL     1      34.373   3.560  36.050  0.00  0.00    +0.000 N 
ATOM     11  C   UNL     1      34.335   2.800  37.158  0.00  0.00    +0.000 A 
ATOM     12  C   UNL     1      34.694   3.276  38.525  0.00  0.00    +0.000 C 
ATOM     13  C   UNL     1      33.918   1.513  36.880  0.00  0.00    +0.000 A 
ENDROOT
BRANCH  10  14
ATOM     14  C   UNL     1      34.750   4.929  35.943  0.00  0.00    +0.000 A 
ATOM     15  C   UNL     1      36.081   5.262  35.689  0.00  0.00    +0.000 A 
ATOM     16  C   UNL     1      36.466   6.576  35.582  0.00  0.00    +0.000 A 
ATOM     17  C   UNL     1      35.571   7.613  35.718  0.00  0.00    +0.000 A 
ATOM     18  N   UNL     1      36.039   8.947  35.594  0.00  0.00    +0.000 NA
ATOM     19  C   UNL     1      34.244   7.300  35.970  0.00  0.00    +0.000 A 
ATOM     20  C   UNL     1      33.875   5.964  36.075  0.00  0.00    +0.000 A 
ENDBRANCH  10  14
TORSDOF 1
ENDMDL
MODEL 6
REMARK VINA RESULT:      -6.0      1.921      3.516
REMARK  Name = 
REMARK  1 active torsions:
REMARK  status: ('A' for Active; 'I' for Inactive)
REMARK    1  A    between atoms: N_10  and  C_11
REMARK                            x       y       z     vdW  Elec       q    Type
REMARK                         _______ _______ _______ _____ _____    ______ ____
ROOT
ATOM      1  C   UNL     1      31.495  22.308  29.651  0.00  0.00    +0.000 C 
ATOM      2  C   UNL     1      30.073  22.703  29.602  0.00  0.00    +0.000 A 
ATOM      3  N   UNL     1      29.332  22.642  30.712  0.00  0.00    +0.000 NA
ATOM      4  N   UNL     1      28.057  22.993  30.679  0.00  0.00    +0.000 NA
ATOM      5  C   UNL     1      27.470  23.420  29.530  0.00  0.00    +0.000 A 
ATOM      6  C   UNL     1      26.055  23.806  29.509  0.00  0.00    +0.000 C 
ATOM      7  C   UNL     1      28.189  23.502  28.357  0.00  0.00    +0.000 A 
ATOM      8  C   UNL     1      27.926  23.875  27.066  0.00  0.00    +0.000 A 
ATOM      9  C   UNL     1      26.630  24.346  26.547  0.00  0.00    +0.000 C 
ATOM     10  N   UNL     1      29.043  23.753  26.306  0.00  0.00    +0.000 N 
ATOM     11  C   UNL     1      30.001  23.300  27.134  0.00  0.00    +0.000 A 
ATOM     12  C   UNL     1      31.408  23.017  26.729  0.00  0.00    +0.000 C 
ATOM     13  C   UNL     1      29.525  23.127  28.419  0.00  0.00    +0.000 A 
ENDROOT
BRANCH  10  14
ATOM     14  C   UNL     1      29.157  24.047  24.918  0.00  0.00    +0.000 A 
ATOM     15  C   UNL     1      28.768  23.095  23.975  0.00  0.00    +0.000 A 
ATOM     16  C   UNL     1      28.870  23.359  22.631  0.00  0.00    +0.000 A 
ATOM     17  C   UNL     1      29.353  24.558  22.156  0.00  0.00    +0.000 A 
ATOM     18  N   UNL     1      29.430  24.762  20.753  0.00  0.00    +0.000 NA
ATOM     19  C   UNL     1      29.743  25.515  23.079  0.00  0.00    +0.000 A 
ATOM     20  C   UNL     1      29.633  25.228  24.435  0.00  0.00    +0.000 A 
ENDBRANCH  10  14
TORSDOF 1
ENDMDL
MODEL 7
REMARK VINA RESULT:      -5.9      2.225      3.133
REMARK  Name = 
REMARK  1 active torsions:
REMARK  status: ('A' for Active; 'I' for Inactive)
REMARK    1  A    between atoms: N_10  and  C_11
REMARK                            x       y       z     vdW  Elec       q    Type
REMARK                         _______ _______ _______ _____ _____    ______ ____
ROOT
ATOM      1  C   UNL     1      26.372  22.783  29.749  0.00  0.00    +0.000 C 
ATOM      2  C   UNL     1      27.847  22.744  29.777  0.00  0.00    +0.000 A 
ATOM      3  N   UNL     1      28.478  22.445  30.917  0.00  0.00    +0.000 NA
ATOM      4  N   UNL     1      29.800  22.408  30.954  0.00  0.00    +0.000 NA
ATOM      5  C   UNL     1      30.546  22.669  29.849  0.00  0.00    +0.000 A 
ATOM      6  C   UNL     1      32.011  22.623  29.906  0.00  0.00    +0.000 C 
ATOM      7  C   UNL     1      29.947  22.982  28.648  0.00  0.00    +0.000 A 
ATOM      8  C   UNL     1      30.376  23.289  27.386  0.00  0.00    +0.000 A 
ATOM      9  C   UNL     1      31.779  23.370  26.942  0.00  0.00    +0.000 C 
ATOM     10  N   UNL     1      29.314  23.514  26.572  0.00  0.00    +0.000 N 
ATOM     11  C   UNL     1      28.223  23.346  27.338  0.00  0.00    +0.000 A 
ATOM     12  C   UNL     1      26.819  23.496  26.860  0.00  0.00    +0.000 C 
ATOM     13  C   UNL     1      28.558  23.014  28.637  0.00  0.00    +0.000 A 
ENDROOT
BRANCH  10  14
ATOM     14  C   UNL     1      29.366  23.859  25.191  0.00  0.00    +0.000 A 
ATOM     15  C   UNL     1      29.019  22.912  24.227  0.00  0.00    +0.000 A 
ATOM     16  C   UNL     1      29.063  23.224  22.891  0.00  0.00    +0.000 A 
ATOM     17  C   UNL     1      29.445  24.469  22.443  0.00  0.00    +0.000 A 
ATOM     18  N   UNL     1      29.466  24.722  21.047  0.00  0.00    +0.000 NA
ATOM     19  C   UNL     1      29.792  25.423  23.387  0.00  0.00    +0.000 A 
ATOM     20  C   UNL     1      29.742  25.087  24.735  0.00  0.00    +0.000 A 
ENDBRANCH  10  14
TORSDOF 1
ENDMDL
MODEL 8
REMARK VINA RESULT:      -5.9     31.914     33.506
REMARK  Name = 
REMARK  1 active torsions:
REMARK  status: ('A' for Active; 'I' for Inactive)
REMARK    1  A    between atoms: N_10  and  C_11
REMARK                            x       y       z     vdW  Elec       q    Type
REMARK                         _______ _______ _______ _____ _____    ______ ____
ROOT
ATOM      1  C   UNL     1      16.808  -9.916  26.642  0.00  0.00    +0.000 C 
ATOM      2  C   UNL     1      17.374  -8.553  26.615  0.00  0.00    +0.000 A 
ATOM      3  N   UNL     1      16.665  -7.533  27.109  0.00  0.00    +0.000 NA
ATOM      4  N   UNL     1      17.162  -6.308  27.089  0.00  0.00    +0.000 NA
ATOM      5  C   UNL     1      18.393  -6.051  26.572  0.00  0.00    +0.000 A 
ATOM      6  C   UNL     1      18.930  -4.687  26.558  0.00  0.00    +0.000 C 
ATOM      7  C   UNL     1      19.166  -7.066  26.051  0.00  0.00    +0.000 A 
ATOM      8  C   UNL     1      20.402  -7.162  25.472  0.00  0.00    +0.000 A 
ATOM      9  C   UNL     1      21.337  -6.048  25.235  0.00  0.00    +0.000 C 
ATOM     10  N   UNL     1      20.664  -8.450  25.137  0.00  0.00    +0.000 N 
ATOM     11  C   UNL     1      19.581  -9.153  25.510  0.00  0.00    +0.000 A 
ATOM     12  C   UNL     1      19.423 -10.625  25.334  0.00  0.00    +0.000 C 
ATOM     13  C   UNL     1      18.620  -8.343  26.084  0.00  0.00    +0.000 A 
ENDROOT
BRANCH  10  14
ATOM     14  C   UNL     1      21.850  -8.937  24.515  0.00  0.00    +0.000 A 
ATOM     15  C   UNL     1      21.937  -8.972  23.123  0.00  0.00    +0.000 A 
ATOM     16  C   UNL     1      23.071  -9.439  22.505  0.00  0.00    +0.000 A 
ATOM     17  C   UNL     1      24.160  -9.887  23.217  0.00  0.00    +0.000 A 
ATOM     18  N   UNL     1      25.299 -10.355  22.512  0.00  0.00    +0.000 NA
ATOM     19  C   UNL     1      24.091  -9.859  24.601  0.00  0.00    +0.000 A 
ATOM     20  C   UNL     1      22.934  -9.384  25.209  0.00  0.00    +0.000 A 
ENDBRANCH  10  14
TORSDOF 1
ENDMDL
MODEL 9
REMARK VINA RESULT:      -5.8     23.132     26.118
REMARK  Name = 
REMARK  1 active torsions:
REMARK  status: ('A' for Active; 'I' for Inactive)
REMARK    1  A    between atoms: N_10  and  C_11
REMARK                            x       y       z     vdW  Elec       q    Type
REMARK                         _______ _______ _______ _____ _____    ______ ____
ROOT
ATOM      1  C   UNL     1      34.953   2.968  39.324  0.00  0.00    +0.000 C 
ATOM      2  C   UNL     1      34.662   3.496  37.977  0.00  0.00    +0.000 A 
ATOM      3  N   UNL     1      34.761   4.810  37.747  0.00  0.00    +0.000 NA
ATOM      4  N   UNL     1      34.501   5.294  36.543  0.00  0.00    +0.000 NA
ATOM      5  C   UNL     1      34.131   4.482  35.518  0.00  0.00    +0.000 A 
ATOM      6  C   UNL     1      33.847   5.034  34.190  0.00  0.00    +0.000 C 
ATOM      7  C   UNL     1      34.014   3.121  35.701  0.00  0.00    +0.000 A 
ATOM      8  C   UNL     1      33.675   2.050  34.920  0.00  0.00    +0.000 A 
ATOM      9  C   UNL     1      33.305   2.099  33.494  0.00  0.00    +0.000 C 
ATOM     10  N   UNL     1      33.729   0.905  35.646  0.00  0.00    +0.000 N 
ATOM     11  C   UNL     1      34.101   1.273  36.884  0.00  0.00    +0.000 A 
ATOM     12  C   UNL     1      34.289   0.335  38.027  0.00  0.00    +0.000 C 
ATOM     13  C   UNL     1      34.291   2.639  36.974  0.00  0.00    +0.000 A 
ENDROOT
BRANCH  10  14
ATOM     14  C   UNL     1      33.443  -0.409  35.175  0.00  0.00    +0.000 A 
ATOM     15  C   UNL     1      32.244  -1.026  35.532  0.00  0.00    +0.000 A 
ATOM     16  C   UNL     1      31.950  -2.292  35.089  0.00  0.00    +0.000 A 
ATOM     17  C   UNL     1      32.811  -3.003  34.281  0.00  0.00    +0.000 A 
ATOM     18  N   UNL     1      32.442  -4.307  33.860  0.00  0.00    +0.000 NA
ATOM     19  C   UNL     1      34.006  -2.404  33.917  0.00  0.00    +0.000 A 
ATOM     20  C   UNL     1      34.286  -1.122  34.376  0.00  0.00    +0.000 A 
ENDBRANCH  10  14
TORSDOF 1
ENDMDL
MODEL 10
REMARK VINA RESULT:      -5.8     32.734     34.879
REMARK  Name = 
REMARK  1 active torsions:
REMARK  status: ('A' for Active; 'I' for Inactive)
REMARK    1  A    between atoms: N_10  and  C_11
REMARK                            x       y       z     vdW  Elec       q    Type
REMARK                         _______ _______ _______ _____ _____    ______ ____
ROOT
ATOM      1  C   UNL     1      22.543  -9.651  25.492  0.00  0.00    +0.000 C 
ATOM      2  C   UNL     1      21.684  -8.459  25.627  0.00  0.00    +0.000 A 
ATOM      3  N   UNL     1      22.107  -7.282  25.155  0.00  0.00    +0.000 NA
ATOM      4  N   UNL     1      21.346  -6.207  25.273  0.00  0.00    +0.000 NA
ATOM      5  C   UNL     1      20.126  -6.266  25.869  0.00  0.00    +0.000 A 
ATOM      6  C   UNL     1      19.292  -5.065  25.991  0.00  0.00    +0.000 C 
ATOM      7  C   UNL     1      19.641  -7.453  26.372  0.00  0.00    +0.000 A 
ATOM      8  C   UNL     1      18.499  -7.858  27.010  0.00  0.00    +0.000 A 
ATOM      9  C   UNL     1      17.352  -7.002  27.361  0.00  0.00    +0.000 C 
ATOM     10  N   UNL     1      18.561  -9.185  27.284  0.00  0.00    +0.000 N 
ATOM     11  C   UNL     1      19.749  -9.601  26.813  0.00  0.00    +0.000 A 
ATOM     12  C   UNL     1      20.251 -11.003  26.895  0.00  0.00    +0.000 C 
ATOM     13  C   UNL     1      20.460  -8.567  26.236  0.00  0.00    +0.000 A 
ENDROOT
BRANCH  10  14
ATOM     14  C   UNL     1      17.562  -9.960  27.939  0.00  0.00    +0.000 A 
ATOM     15  C   UNL     1      17.575 -10.073  29.330  0.00  0.00    +0.000 A 
ATOM     16  C   UNL     1      16.621 -10.816  29.981  0.00  0.00    +0.000 A 
ATOM     17  C   UNL     1      15.620 -11.475  29.303  0.00  0.00    +0.000 A 
ATOM     18  N   UNL     1      14.667 -12.224  30.041  0.00  0.00    +0.000 NA
ATOM     19  C   UNL     1      15.592 -11.374  27.921  0.00  0.00    +0.000 A 
ATOM     20  C   UNL     1      16.567 -10.618  27.281  0.00  0.00    +0.000 A 
ENDBRANCH  10  14
TORSDOF 1
ENDMDL
