MODEL 1
REMARK VINA RESULT:      -8.0      0.000      0.000
REMARK  Name = 
REMARK  3 active torsions:
REMARK  status: ('A' for Active; 'I' for Inactive)
REMARK    1  A    between atoms: C_4  and  C_5
REMARK    2  A    between atoms: N_7  and  C_8
REMARK    3  A    between atoms: C_19  and  N_20
REMARK                            x       y       z     vdW  Elec       q    Type
REMARK                         _______ _______ _______ _____ _____    ______ ____
ROOT
ATOM      1  C   UNL     1      16.627  11.570  36.725  0.00  0.00    +0.000 C 
ATOM      2  O   UNL     1      17.412  12.363  36.119  0.00  0.00    +0.000 OA
ATOM      3  N   UNL     1      15.340  11.412  36.154  0.00  0.00    +0.000 NA
ENDROOT
BRANCH   3   4
ATOM      4  C   UNL     1      14.930  12.090  34.975  0.00  0.00    +0.000 A 
ATOM      5  C   UNL     1      14.163  13.236  35.045  0.00  0.00    +0.000 A 
ATOM      6  C   UNL     1      13.769  13.886  33.892  0.00  0.00    +0.000 A 
ATOM      7  C   UNL     1      14.131  13.410  32.625  0.00  0.00    +0.000 A 
ATOM      8  C   UNL     1      14.884  12.285  32.553  0.00  0.00    +0.000 A 
ATOM      9  C   UNL     1      15.274  11.640  33.730  0.00  0.00    +0.000 A 
ATOM     10  C   UNL     1      15.159  11.948  31.112  0.00  0.00    +0.000 C 
ATOM     11  C   UNL     1      14.843  13.232  30.372  0.00  0.00    +0.000 C 
ATOM     12  C   UNL     1      13.824  13.942  31.254  0.00  0.00    +0.000 C 
ENDBRANCH   3   4
BRANCH   1  16
ATOM     13  C   UNL     1      15.614   9.218  41.011  0.00  0.00    +0.000 C 
ATOM     14  C   UNL     1      16.595   9.728  40.017  0.00  0.00    +0.000 A 
ATOM     15  C   UNL     1      16.164  10.392  38.868  0.00  0.00    +0.000 A 
ATOM     16  C   UNL     1      17.045  10.873  37.934  0.00  0.00    +0.000 A 
ATOM     17  C   UNL     1      18.389  10.679  38.166  0.00  0.00    +0.000 A 
ATOM     18  C   UNL     1      18.836  10.026  39.295  0.00  0.00    +0.000 A 
ATOM     19  C   UNL     1      17.953   9.547  40.225  0.00  0.00    +0.000 A 
BRANCH  19  20
ATOM     20  N   UNL     1      18.338   8.870  41.400  0.00  0.00    +0.000 N 
ATOM     21  O   UNL     1      18.490   7.646  41.385  0.00  0.00    +0.000 OA
ATOM     22  O   UNL     1      18.540   9.571  42.548  0.00  0.00    +0.000 OA
ENDBRANCH  19  20
ENDBRANCH   1  16
TORSDOF 3
ENDMDL
MODEL 2
REMARK VINA RESULT:      -7.6      0.808      2.249
REMARK  Name = 
REMARK  3 active torsions:
REMARK  status: ('A' for Active; 'I' for Inactive)
REMARK    1  A    between atoms: C_4  and  C_5
REMARK    2  A    between atoms: N_7  and  C_8
REMARK    3  A    between atoms: C_19  and  N_20
REMARK                            x       y       z     vdW  Elec       q    Type
REMARK                         _______ _______ _______ _____ _____    ______ ____
ROOT
ATOM      1  C   UNL     1      17.012  11.197  36.429  0.00  0.00    +0.000 C 
ATOM      2  O   UNL     1      17.420  12.362  36.134  0.00  0.00    +0.000 OA
ATOM      3  N   UNL     1      16.257  10.531  35.431  0.00  0.00    +0.000 NA
ENDROOT
BRANCH   3   4
ATOM      4  C   UNL     1      15.963  11.113  34.169  0.00  0.00    +0.000 A 
ATOM      5  C   UNL     1      16.599  10.682  33.023  0.00  0.00    +0.000 A 
ATOM      6  C   UNL     1      16.305  11.255  31.801  0.00  0.00    +0.000 A 
ATOM      7  C   UNL     1      15.360  12.282  31.685  0.00  0.00    +0.000 A 
ATOM      8  C   UNL     1      14.733  12.708  32.809  0.00  0.00    +0.000 A 
ATOM      9  C   UNL     1      15.043  12.117  34.037  0.00  0.00    +0.000 A 
ATOM     10  C   UNL     1      13.765  13.808  32.466  0.00  0.00    +0.000 C 
ATOM     11  C   UNL     1      13.590  13.683  30.966  0.00  0.00    +0.000 C 
ATOM     12  C   UNL     1      14.884  13.044  30.481  0.00  0.00    +0.000 C 
ENDBRANCH   3   4
BRANCH   1  16
ATOM     13  C   UNL     1      20.213   9.250  39.729  0.00  0.00    +0.000 C 
ATOM     14  C   UNL     1      18.832   9.649  39.348  0.00  0.00    +0.000 A 
ATOM     15  C   UNL     1      18.576  10.220  38.102  0.00  0.00    +0.000 A 
ATOM     16  C   UNL     1      17.313  10.598  37.722  0.00  0.00    +0.000 A 
ATOM     17  C   UNL     1      16.290  10.395  38.622  0.00  0.00    +0.000 A 
ATOM     18  C   UNL     1      16.522   9.832  39.858  0.00  0.00    +0.000 A 
ATOM     19  C   UNL     1      17.784   9.456  40.233  0.00  0.00    +0.000 A 
BRANCH  19  20
ATOM     20  N   UNL     1      18.095   8.876  41.480  0.00  0.00    +0.000 N 
ATOM     21  O   UNL     1      18.366   9.596  42.444  0.00  0.00    +0.000 OA
ATOM     22  O   UNL     1      18.095   7.523  41.614  0.00  0.00    +0.000 OA
ENDBRANCH  19  20
ENDBRANCH   1  16
TORSDOF 3
ENDMDL
MODEL 3
REMARK VINA RESULT:      -7.2      2.548      8.552
REMARK  Name = 
REMARK  3 active torsions:
REMARK  status: ('A' for Active; 'I' for Inactive)
REMARK    1  A    between atoms: C_4  and  C_5
REMARK    2  A    between atoms: N_7  and  C_8
REMARK    3  A    between atoms: C_19  and  N_20
REMARK                            x       y       z     vdW  Elec       q    Type
REMARK                         _______ _______ _______ _____ _____    ______ ____
ROOT
ATOM      1  C   UNL     1      17.016  11.198  36.722  0.00  0.00    +0.000 C 
ATOM      2  O   UNL     1      17.275  12.221  37.426  0.00  0.00    +0.000 OA
ATOM      3  N   UNL     1      17.171   9.945  37.364  0.00  0.00    +0.000 NA
ENDROOT
BRANCH   3   4
ATOM      4  C   UNL     1      17.590   9.817  38.715  0.00  0.00    +0.000 A 
ATOM      5  C   UNL     1      18.931   9.799  39.044  0.00  0.00    +0.000 A 
ATOM      6  C   UNL     1      19.327   9.674  40.362  0.00  0.00    +0.000 A 
ATOM      7  C   UNL     1      18.392   9.560  41.397  0.00  0.00    +0.000 A 
ATOM      8  C   UNL     1      17.074   9.577  41.078  0.00  0.00    +0.000 A 
ATOM      9  C   UNL     1      16.691   9.705  39.741  0.00  0.00    +0.000 A 
ATOM     10  C   UNL     1      16.246   9.443  42.328  0.00  0.00    +0.000 C 
ATOM     11  C   UNL     1      17.217   9.774  43.444  0.00  0.00    +0.000 C 
ATOM     12  C   UNL     1      18.586   9.416  42.881  0.00  0.00    +0.000 C 
ENDBRANCH   3   4
BRANCH   1  16
ATOM     13  C   UNL     1      14.123  13.222  33.191  0.00  0.00    +0.000 C 
ATOM     14  C   UNL     1      15.203  12.283  33.597  0.00  0.00    +0.000 A 
ATOM     15  C   UNL     1      15.593  12.183  34.932  0.00  0.00    +0.000 A 
ATOM     16  C   UNL     1      16.585  11.326  35.336  0.00  0.00    +0.000 A 
ATOM     17  C   UNL     1      17.195  10.557  34.370  0.00  0.00    +0.000 A 
ATOM     18  C   UNL     1      16.824  10.641  33.045  0.00  0.00    +0.000 A 
ATOM     19  C   UNL     1      15.833  11.497  32.646  0.00  0.00    +0.000 A 
BRANCH  19  20
ATOM     20  N   UNL     1      15.404  11.636  31.310  0.00  0.00    +0.000 N 
ATOM     21  O   UNL     1      14.510  10.908  30.871  0.00  0.00    +0.000 OA
ATOM     22  O   UNL     1      15.980  12.573  30.510  0.00  0.00    +0.000 OA
ENDBRANCH  19  20
ENDBRANCH   1  16
TORSDOF 3
ENDMDL
MODEL 4
REMARK VINA RESULT:      -7.0     19.231     21.814
REMARK  Name = 
REMARK  3 active torsions:
REMARK  status: ('A' for Active; 'I' for Inactive)
REMARK    1  A    between atoms: C_4  and  C_5
REMARK    2  A    between atoms: N_7  and  C_8
REMARK    3  A    between atoms: C_19  and  N_20
REMARK                            x       y       z     vdW  Elec       q    Type
REMARK                         _______ _______ _______ _____ _____    ______ ____
ROOT
ATOM      1  C   UNL     1      32.782  -1.039  34.454  0.00  0.00    +0.000 C 
ATOM      2  O   UNL     1      31.910  -0.466  35.177  0.00  0.00    +0.000 OA
ATOM      3  N   UNL     1      33.736  -0.190  33.839  0.00  0.00    +0.000 NA
ENDROOT
BRANCH   3   4
ATOM      4  C   UNL     1      33.736   1.221  34.008  0.00  0.00    +0.000 A 
ATOM      5  C   UNL     1      33.593   2.066  32.926  0.00  0.00    +0.000 A 
ATOM      6  C   UNL     1      33.595   3.436  33.101  0.00  0.00    +0.000 A 
ATOM      7  C   UNL     1      33.742   4.008  34.371  0.00  0.00    +0.000 A 
ATOM      8  C   UNL     1      33.884   3.181  35.436  0.00  0.00    +0.000 A 
ATOM      9  C   UNL     1      33.879   1.798  35.240  0.00  0.00    +0.000 A 
ATOM     10  C   UNL     1      34.026   3.994  36.695  0.00  0.00    +0.000 C 
ATOM     11  C   UNL     1      33.527   5.369  36.299  0.00  0.00    +0.000 C 
ATOM     12  C   UNL     1      33.775   5.449  34.798  0.00  0.00    +0.000 C 
ENDBRANCH   3   4
BRANCH   1  16
ATOM     13  C   UNL     1      34.289  -5.176  32.100  0.00  0.00    +0.000 C 
ATOM     14  C   UNL     1      33.491  -4.512  33.164  0.00  0.00    +0.000 A 
ATOM     15  C   UNL     1      33.510  -3.125  33.307  0.00  0.00    +0.000 A 
ATOM     16  C   UNL     1      32.784  -2.485  34.279  0.00  0.00    +0.000 A 
ATOM     17  C   UNL     1      32.026  -3.264  35.125  0.00  0.00    +0.000 A 
ATOM     18  C   UNL     1      31.994  -4.637  35.001  0.00  0.00    +0.000 A 
ATOM     19  C   UNL     1      32.720  -5.271  34.029  0.00  0.00    +0.000 A 
BRANCH  19  20
ATOM     20  N   UNL     1      32.735  -6.669  33.845  0.00  0.00    +0.000 N 
ATOM     21  O   UNL     1      33.477  -7.373  34.535  0.00  0.00    +0.000 OA
ATOM     22  O   UNL     1      31.932  -7.235  32.905  0.00  0.00    +0.000 OA
ENDBRANCH  19  20
ENDBRANCH   1  16
TORSDOF 3
ENDMDL
MODEL 5
REMARK VINA RESULT:      -6.7     19.748     22.364
REMARK  Name = 
REMARK  3 active torsions:
REMARK  status: ('A' for Active; 'I' for Inactive)
REMARK    1  A    between atoms: C_4  and  C_5
REMARK    2  A    between atoms: N_7  and  C_8
REMARK    3  A    between atoms: C_19  and  N_20
REMARK                            x       y       z     vdW  Elec       q    Type
REMARK                         _______ _______ _______ _____ _____    ______ ____
ROOT
ATOM      1  C   UNL     1      32.829  -1.933  34.471  0.00  0.00    +0.000 C 
ATOM      2  O   UNL     1      31.879  -1.499  35.192  0.00  0.00    +0.000 OA
ATOM      3  N   UNL     1      33.859  -1.005  34.176  0.00  0.00    +0.000 NA
ENDROOT
BRANCH   3   4
ATOM      4  C   UNL     1      33.850   0.335  34.647  0.00  0.00    +0.000 A 
ATOM      5  C   UNL     1      34.131   0.625  35.967  0.00  0.00    +0.000 A 
ATOM      6  C   UNL     1      34.119   1.932  36.415  0.00  0.00    +0.000 A 
ATOM      7  C   UNL     1      33.824   2.995  35.553  0.00  0.00    +0.000 A 
ATOM      8  C   UNL     1      33.547   2.714  34.256  0.00  0.00    +0.000 A 
ATOM      9  C   UNL     1      33.564   1.387  33.820  0.00  0.00    +0.000 A 
ATOM     10  C   UNL     1      33.260   3.989  33.509  0.00  0.00    +0.000 C 
ATOM     11  C   UNL     1      33.815   5.072  34.412  0.00  0.00    +0.000 C 
ATOM     12  C   UNL     1      33.752   4.474  35.811  0.00  0.00    +0.000 C 
ENDBRANCH   3   4
BRANCH   1  16
ATOM     13  C   UNL     1      34.404  -5.460  31.307  0.00  0.00    +0.000 C 
ATOM     14  C   UNL     1      33.581  -5.043  32.473  0.00  0.00    +0.000 A 
ATOM     15  C   UNL     1      33.590  -3.720  32.914  0.00  0.00    +0.000 A 
ATOM     16  C   UNL     1      32.841  -3.306  33.986  0.00  0.00    +0.000 A 
ATOM     17  C   UNL     1      32.068  -4.250  34.625  0.00  0.00    +0.000 A 
ATOM     18  C   UNL     1      32.044  -5.563  34.205  0.00  0.00    +0.000 A 
ATOM     19  C   UNL     1      32.793  -5.971  33.134  0.00  0.00    +0.000 A 
BRANCH  19  20
ATOM     20  N   UNL     1      32.819  -7.295  32.651  0.00  0.00    +0.000 N 
ATOM     21  O   UNL     1      33.598  -8.116  33.142  0.00  0.00    +0.000 OA
ATOM     22  O   UNL     1      31.983  -7.662  31.643  0.00  0.00    +0.000 OA
ENDBRANCH  19  20
ENDBRANCH   1  16
TORSDOF 3
ENDMDL
MODEL 6
REMARK VINA RESULT:      -6.6     22.890     24.417
REMARK  Name = 
REMARK  3 active torsions:
REMARK  status: ('A' for Active; 'I' for Inactive)
REMARK    1  A    between atoms: C_4  and  C_5
REMARK    2  A    between atoms: N_7  and  C_8
REMARK    3  A    between atoms: C_19  and  N_20
REMARK                            x       y       z     vdW  Elec       q    Type
REMARK                         _______ _______ _______ _____ _____    ______ ____
ROOT
ATOM      1  C   UNL     1      22.402  -8.054  24.673  0.00  0.00    +0.000 C 
ATOM      2  O   UNL     1      23.166  -8.817  25.339  0.00  0.00    +0.000 OA
ATOM      3  N   UNL     1      22.948  -7.515  23.481  0.00  0.00    +0.000 NA
ENDROOT
BRANCH   3   4
ATOM      4  C   UNL     1      24.267  -7.798  23.039  0.00  0.00    +0.000 A 
ATOM      5  C   UNL     1      25.326  -6.988  23.396  0.00  0.00    +0.000 A 
ATOM      6  C   UNL     1      26.605  -7.273  22.960  0.00  0.00    +0.000 A 
ATOM      7  C   UNL     1      26.868  -8.383  22.147  0.00  0.00    +0.000 A 
ATOM      8  C   UNL     1      25.830  -9.181  21.794  0.00  0.00    +0.000 A 
ATOM      9  C   UNL     1      24.544  -8.878  22.245  0.00  0.00    +0.000 A 
ATOM     10  C   UNL     1      26.328 -10.307  20.927  0.00  0.00    +0.000 C 
ATOM     11  C   UNL     1      27.824 -10.315  21.165  0.00  0.00    +0.000 C 
ATOM     12  C   UNL     1      28.158  -8.883  21.560  0.00  0.00    +0.000 C 
ENDBRANCH   3   4
BRANCH   1  16
ATOM     13  C   UNL     1      18.935  -4.909  26.411  0.00  0.00    +0.000 C 
ATOM     14  C   UNL     1      19.341  -6.268  25.967  0.00  0.00    +0.000 A 
ATOM     15  C   UNL     1      20.645  -6.518  25.540  0.00  0.00    +0.000 A 
ATOM     16  C   UNL     1      21.049  -7.761  25.124  0.00  0.00    +0.000 A 
ATOM     17  C   UNL     1      20.113  -8.772  25.139  0.00  0.00    +0.000 A 
ATOM     18  C   UNL     1      18.819  -8.547  25.557  0.00  0.00    +0.000 A 
ATOM     19  C   UNL     1      18.421  -7.304  25.972  0.00  0.00    +0.000 A 
BRANCH  19  20
ATOM     20  N   UNL     1      17.116  -7.002  26.411  0.00  0.00    +0.000 N 
ATOM     21  O   UNL     1      16.947  -6.395  27.471  0.00  0.00    +0.000 OA
ATOM     22  O   UNL     1      16.047  -7.383  25.662  0.00  0.00    +0.000 OA
ENDBRANCH  19  20
ENDBRANCH   1  16
TORSDOF 3
ENDMDL
MODEL 7
REMARK VINA RESULT:      -6.6      2.869      8.895
REMARK  Name = 
REMARK  3 active torsions:
REMARK  status: ('A' for Active; 'I' for Inactive)
REMARK    1  A    between atoms: C_4  and  C_5
REMARK    2  A    between atoms: N_7  and  C_8
REMARK    3  A    between atoms: C_19  and  N_20
REMARK                            x       y       z     vdW  Elec       q    Type
REMARK                         _______ _______ _______ _____ _____    ______ ____
ROOT
ATOM      1  C   UNL     1      16.455  10.225  39.078  0.00  0.00    +0.000 C 
ATOM      2  O   UNL     1      17.699   9.995  39.185  0.00  0.00    +0.000 OA
ATOM      3  N   UNL     1      15.638   9.724  40.122  0.00  0.00    +0.000 NA
ENDROOT
BRANCH   3   4
ATOM      4  C   UNL     1      16.158   9.007  41.232  0.00  0.00    +0.000 A 
ATOM      5  C   UNL     1      16.373   9.632  42.444  0.00  0.00    +0.000 A 
ATOM      6  C   UNL     1      16.879   8.924  43.517  0.00  0.00    +0.000 A 
ATOM      7  C   UNL     1      17.188   7.562  43.412  0.00  0.00    +0.000 A 
ATOM      8  C   UNL     1      16.978   6.945  42.223  0.00  0.00    +0.000 A 
ATOM      9  C   UNL     1      16.465   7.676  41.149  0.00  0.00    +0.000 A 
ATOM     10  C   UNL     1      17.372   5.496  42.326  0.00  0.00    +0.000 C 
ATOM     11  C   UNL     1      17.433   5.241  43.819  0.00  0.00    +0.000 C 
ATOM     12  C   UNL     1      17.740   6.602  44.428  0.00  0.00    +0.000 C 
ENDBRANCH   3   4
BRANCH   1  16
ATOM     13  C   UNL     1      12.683  12.407  36.641  0.00  0.00    +0.000 C 
ATOM     14  C   UNL     1      14.118  12.028  36.729  0.00  0.00    +0.000 A 
ATOM     15  C   UNL     1      14.601  11.323  37.831  0.00  0.00    +0.000 A 
ATOM     16  C   UNL     1      15.920  10.960  37.940  0.00  0.00    +0.000 A 
ATOM     17  C   UNL     1      16.766  11.318  36.914  0.00  0.00    +0.000 A 
ATOM     18  C   UNL     1      16.308  12.014  35.815  0.00  0.00    +0.000 A 
ATOM     19  C   UNL     1      14.991  12.374  35.711  0.00  0.00    +0.000 A 
BRANCH  19  20
ATOM     20  N   UNL     1      14.455  13.087  34.619  0.00  0.00    +0.000 N 
ATOM     21  O   UNL     1      13.888  14.166  34.806  0.00  0.00    +0.000 OA
ATOM     22  O   UNL     1      14.565  12.579  33.362  0.00  0.00    +0.000 OA
ENDBRANCH  19  20
ENDBRANCH   1  16
TORSDOF 3
ENDMDL
MODEL 8
REMARK VINA RESULT:      -6.5     23.662     25.142
REMARK  Name = 
REMARK  3 active torsions:
REMARK  status: ('A' for Active; 'I' for Inactive)
REMARK    1  A    between atoms: C_4  and  C_5
REMARK    2  A    between atoms: N_7  and  C_8
REMARK    3  A    between atoms: C_19  and  N_20
REMARK                            x       y       z     vdW  Elec       q    Type
REMARK                         _______ _______ _______ _____ _____    ______ ____
ROOT
ATOM      1  C   UNL     1      23.428  -8.216  23.318  0.00  0.00    +0.000 C 
ATOM      2  O   UNL     1      22.376  -8.326  22.615  0.00  0.00    +0.000 OA
ATOM      3  N   UNL     1      23.232  -7.927  24.691  0.00  0.00    +0.000 NA
ENDROOT
BRANCH   3   4
ATOM      4  C   UNL     1      21.944  -7.767  25.270  0.00  0.00    +0.000 A 
ATOM      5  C   UNL     1      21.255  -8.848  25.780  0.00  0.00    +0.000 A 
ATOM      6  C   UNL     1      20.004  -8.680  26.341  0.00  0.00    +0.000 A 
ATOM      7  C   UNL     1      19.398  -7.420  26.408  0.00  0.00    +0.000 A 
ATOM      8  C   UNL     1      20.072  -6.355  25.908  0.00  0.00    +0.000 A 
ATOM      9  C   UNL     1      21.337  -6.543  25.345  0.00  0.00    +0.000 A 
ATOM     10  C   UNL     1      19.249  -5.106  26.079  0.00  0.00    +0.000 C 
ATOM     11  C   UNL     1      18.212  -5.493  27.114  0.00  0.00    +0.000 C 
ATOM     12  C   UNL     1      18.065  -7.002  26.963  0.00  0.00    +0.000 C 
ENDBRANCH   3   4
BRANCH   1  16
ATOM     13  C   UNL     1      26.545 -10.348  20.051  0.00  0.00    +0.000 C 
ATOM     14  C   UNL     1      26.291  -9.390  21.159  0.00  0.00    +0.000 A 
ATOM     15  C   UNL     1      25.014  -9.255  21.705  0.00  0.00    +0.000 A 
ATOM     16  C   UNL     1      24.749  -8.380  22.727  0.00  0.00    +0.000 A 
ATOM     17  C   UNL     1      25.797  -7.625  23.207  0.00  0.00    +0.000 A 
ATOM     18  C   UNL     1      27.067  -7.743  22.682  0.00  0.00    +0.000 A 
ATOM     19  C   UNL     1      27.326  -8.618  21.661  0.00  0.00    +0.000 A 
BRANCH  19  20
ATOM     20  N   UNL     1      28.597  -8.790  21.077  0.00  0.00    +0.000 N 
ATOM     21  O   UNL     1      28.928  -8.103  20.107  0.00  0.00    +0.000 OA
ATOM     22  O   UNL     1      29.455  -9.715  21.585  0.00  0.00    +0.000 OA
ENDBRANCH  19  20
ENDBRANCH   1  16
TORSDOF 3
ENDMDL
MODEL 9
REMARK VINA RESULT:      -6.5     18.992     20.283
REMARK  Name = 
REMARK  3 active torsions:
REMARK  status: ('A' for Active; 'I' for Inactive)
REMARK    1  A    between atoms: C_4  and  C_5
REMARK    2  A    between atoms: N_7  and  C_8
REMARK    3  A    between atoms: C_19  and  N_20
REMARK                            x       y       z     vdW  Elec       q    Type
REMARK                         _______ _______ _______ _____ _____    ______ ____
ROOT
ATOM      1  C   UNL     1      30.963  22.919  28.040  0.00  0.00    +0.000 C 
ATOM      2  O   UNL     1      30.731  24.149  27.826  0.00  0.00    +0.000 OA
ATOM      3  N   UNL     1      30.371  22.008  27.132  0.00  0.00    +0.000 NA
ENDROOT
BRANCH   3   4
ATOM      4  C   UNL     1      29.562  22.421  26.039  0.00  0.00    +0.000 A 
ATOM      5  C   UNL     1      30.120  22.692  24.805  0.00  0.00    +0.000 A 
ATOM      6  C   UNL     1      29.324  23.093  23.750  0.00  0.00    +0.000 A 
ATOM      7  C   UNL     1      27.939  23.239  23.896  0.00  0.00    +0.000 A 
ATOM      8  C   UNL     1      27.388  22.974  25.106  0.00  0.00    +0.000 A 
ATOM      9  C   UNL     1      28.207  22.569  26.162  0.00  0.00    +0.000 A 
ATOM     10  C   UNL     1      25.899  23.191  25.045  0.00  0.00    +0.000 C 
ATOM     11  C   UNL     1      25.593  23.199  23.562  0.00  0.00    +0.000 C 
ATOM     12  C   UNL     1      26.889  23.657  22.905  0.00  0.00    +0.000 C 
ENDBRANCH   3   4
BRANCH   1  16
ATOM     13  C   UNL     1      31.514  21.322  32.739  0.00  0.00    +0.000 C 
ATOM     14  C   UNL     1      32.099  21.717  31.431  0.00  0.00    +0.000 A 
ATOM     15  C   UNL     1      31.280  22.122  30.377  0.00  0.00    +0.000 A 
ATOM     16  C   UNL     1      31.791  22.492  29.159  0.00  0.00    +0.000 A 
ATOM     17  C   UNL     1      33.160  22.451  29.004  0.00  0.00    +0.000 A 
ATOM     18  C   UNL     1      33.987  22.054  30.033  0.00  0.00    +0.000 A 
ATOM     19  C   UNL     1      33.472  21.686  31.247  0.00  0.00    +0.000 A 
BRANCH  19  20
ATOM     20  N   UNL     1      34.257  21.269  32.340  0.00  0.00    +0.000 N 
ATOM     21  O   UNL     1      34.735  20.132  32.359  0.00  0.00    +0.000 OA
ATOM     22  O   UNL     1      34.484  22.124  33.374  0.00  0.00    +0.000 OA
ENDBRANCH  19  20
ENDBRANCH   1  16
TORSDOF 3
ENDMDL
MODEL 10
REMARK VINA RESULT:      -6.4     19.525     22.115
REMARK  Name = 
REMARK  3 active torsions:
REMARK  status: ('A' for Active; 'I' for Inactive)
REMARK    1  A    between atoms: C_4  and  C_5
REMARK    2  A    between atoms: N_7  and  C_8
REMARK    3  A    between atoms: C_19  and  N_20
REMARK                            x       y       z     vdW  Elec       q    Type
REMARK                         _______ _______ _______ _____ _____    ______ ____
ROOT
ATOM      1  C   UNL     1      33.661  -0.467  35.001  0.00  0.00    +0.000 C 
ATOM      2  O   UNL     1      34.272  -1.100  35.915  0.00  0.00    +0.000 OA
ATOM      3  N   UNL     1      32.909  -1.254  34.095  0.00  0.00    +0.000 NA
ENDROOT
BRANCH   3   4
ATOM      4  C   UNL     1      32.828  -2.669  34.184  0.00  0.00    +0.000 A 
ATOM      5  C   UNL     1      31.992  -3.277  35.100  0.00  0.00    +0.000 A 
ATOM      6  C   UNL     1      31.921  -4.654  35.178  0.00  0.00    +0.000 A 
ATOM      7  C   UNL     1      32.689  -5.472  34.340  0.00  0.00    +0.000 A 
ATOM      8  C   UNL     1      33.511  -4.879  33.440  0.00  0.00    +0.000 A 
ATOM      9  C   UNL     1      33.570  -3.485  33.374  0.00  0.00    +0.000 A 
ATOM     10  C   UNL     1      34.239  -5.932  32.646  0.00  0.00    +0.000 C 
ATOM     11  C   UNL     1      33.436  -7.193  32.892  0.00  0.00    +0.000 C 
ATOM     12  C   UNL     1      32.777  -6.970  34.247  0.00  0.00    +0.000 C 
ENDBRANCH   3   4
BRANCH   1  16
ATOM     13  C   UNL     1      34.288   4.041  37.056  0.00  0.00    +0.000 C 
ATOM     14  C   UNL     1      34.041   3.186  35.864  0.00  0.00    +0.000 A 
ATOM     15  C   UNL     1      33.968   1.798  35.987  0.00  0.00    +0.000 A 
ATOM     16  C   UNL     1      33.742   0.985  34.906  0.00  0.00    +0.000 A 
ATOM     17  C   UNL     1      33.587   1.587  33.677  0.00  0.00    +0.000 A 
ATOM     18  C   UNL     1      33.654   2.956  33.534  0.00  0.00    +0.000 A 
ATOM     19  C   UNL     1      33.880   3.765  34.616  0.00  0.00    +0.000 A 
BRANCH  19  20
ATOM     20  N   UNL     1      33.963   5.170  34.544  0.00  0.00    +0.000 N 
ATOM     21  O   UNL     1      35.065   5.723  34.532  0.00  0.00    +0.000 OA
ATOM     22  O   UNL     1      32.824   5.911  34.489  0.00  0.00    +0.000 OA
ENDBRANCH  19  20
ENDBRANCH   1  16
TORSDOF 3
ENDMDL
