MODEL 1
REMARK VINA RESULT:      -5.7      0.000      0.000
REMARK  Name = 
REMARK  5 active torsions:
REMARK  status: ('A' for Active; 'I' for Inactive)
REMARK    1  A    between atoms: C_2  and  O_12
REMARK    2  A    between atoms: N_3  and  C_4
REMARK    3  A    between atoms: C_9  and  C_10
REMARK    4  A    between atoms: O_12  and  C_13
REMARK    5  A    between atoms: C_13  and  C_14
REMARK                            x       y       z     vdW  Elec       q    Type
REMARK                         _______ _______ _______ _____ _____    ______ ____
ROOT
ATOM      1  O   UNL     1      34.635   0.459  38.411  0.00  0.00    +0.000 OA
ATOM      2  C   UNL     1      34.030   1.095  37.555  0.00  0.00    +0.000 C 
ATOM      3  N   UNL     1      33.448   0.426  36.543  0.00  0.00    +0.000 NA
ENDROOT
BRANCH   3   4
ATOM      4  C   UNL     1      33.466  -1.088  36.302  0.00  0.00    +0.000 C 
ATOM      5  C   UNL     1      32.081  -1.169  35.468  0.00  0.00    +0.000 C 
ATOM      6  C   UNL     1      32.146  -2.624  34.980  0.00  0.00    +0.000 C 
ATOM      7  C   UNL     1      33.338  -3.376  35.272  0.00  0.00    +0.000 C 
ATOM      8  C   UNL     1      34.687  -2.845  35.280  0.00  0.00    +0.000 C 
ATOM      9  C   UNL     1      34.602  -1.201  35.064  0.00  0.00    +0.000 C 
BRANCH   9  10
ATOM     10  C   UNL     1      33.704  -1.392  33.737  0.00  0.00    +0.000 C 
ATOM     11  O   UNL     1      34.211  -0.480  32.842  0.00  0.00    +0.000 OA
ENDBRANCH   9  10
ENDBRANCH   3   4
BRANCH   2  12
ATOM     12  O   UNL     1      33.953   2.471  37.639  0.00  0.00    +0.000 OA
BRANCH  12  13
ATOM     13  C   UNL     1      34.786   3.246  36.793  0.00  0.00    +0.000 C 
BRANCH  13  14
ATOM     14  C   UNL     1      34.080   3.814  35.653  0.00  0.00    +0.000 A 
ATOM     15  C   UNL     1      33.868   3.160  34.444  0.00  0.00    +0.000 A 
ATOM     16  C   UNL     1      33.205   3.750  33.391  0.00  0.00    +0.000 A 
ATOM     17  C   UNL     1      32.708   5.044  33.490  0.00  0.00    +0.000 A 
ATOM     18  C   UNL     1      32.917   5.718  34.706  0.00  0.00    +0.000 A 
ATOM     19  C   UNL     1      33.586   5.098  35.739  0.00  0.00    +0.000 A 
ENDBRANCH  13  14
ENDBRANCH  12  13
ENDBRANCH   2  12
TORSDOF 5
ENDMDL
MODEL 2
REMARK VINA RESULT:      -5.4     19.824     21.731
REMARK  Name = 
REMARK  5 active torsions:
REMARK  status: ('A' for Active; 'I' for Inactive)
REMARK    1  A    between atoms: C_2  and  O_12
REMARK    2  A    between atoms: N_3  and  C_4
REMARK    3  A    between atoms: C_9  and  C_10
REMARK    4  A    between atoms: O_12  and  C_13
REMARK    5  A    between atoms: C_13  and  C_14
REMARK                            x       y       z     vdW  Elec       q    Type
REMARK                         _______ _______ _______ _____ _____    ______ ____
ROOT
ATOM      1  O   UNL     1      23.781   2.022  17.269  0.00  0.00    +0.000 OA
ATOM      2  C   UNL     1      23.101   2.890  17.804  0.00  0.00    +0.000 C 
ATOM      3  N   UNL     1      21.760   2.784  17.752  0.00  0.00    +0.000 NA
ENDROOT
BRANCH   3   4
ATOM      4  C   UNL     1      20.943   1.684  17.063  0.00  0.00    +0.000 C 
ATOM      5  C   UNL     1      19.491   2.154  17.600  0.00  0.00    +0.000 C 
ATOM      6  C   UNL     1      18.585   1.242  16.758  0.00  0.00    +0.000 C 
ATOM      7  C   UNL     1      19.210   0.411  15.763  0.00  0.00    +0.000 C 
ATOM      8  C   UNL     1      20.351   0.785  14.950  0.00  0.00    +0.000 C 
ATOM      9  C   UNL     1      20.910   2.257  15.480  0.00  0.00    +0.000 C 
BRANCH   9  10
ATOM     10  C   UNL     1      19.436   2.899  15.337  0.00  0.00    +0.000 C 
ATOM     11  O   UNL     1      19.521   3.717  14.235  0.00  0.00    +0.000 OA
ENDBRANCH   9  10
ENDBRANCH   3   4
BRANCH   2  12
ATOM     12  O   UNL     1      23.708   3.951  18.444  0.00  0.00    +0.000 OA
BRANCH  12  13
ATOM     13  C   UNL     1      25.079   3.836  18.789  0.00  0.00    +0.000 C 
BRANCH  13  14
ATOM     14  C   UNL     1      25.889   4.948  18.313  0.00  0.00    +0.000 A 
ATOM     15  C   UNL     1      27.037   5.420  18.939  0.00  0.00    +0.000 A 
ATOM     16  C   UNL     1      27.759   6.487  18.452  0.00  0.00    +0.000 A 
ATOM     17  C   UNL     1      27.369   7.150  17.294  0.00  0.00    +0.000 A 
ATOM     18  C   UNL     1      26.209   6.684  16.651  0.00  0.00    +0.000 A 
ATOM     19  C   UNL     1      25.509   5.614  17.167  0.00  0.00    +0.000 A 
ENDBRANCH  13  14
ENDBRANCH  12  13
ENDBRANCH   2  12
TORSDOF 5
ENDMDL
MODEL 3
REMARK VINA RESULT:      -5.4      3.924      8.047
REMARK  Name = 
REMARK  5 active torsions:
REMARK  status: ('A' for Active; 'I' for Inactive)
REMARK    1  A    between atoms: C_2  and  O_12
REMARK    2  A    between atoms: N_3  and  C_4
REMARK    3  A    between atoms: C_9  and  C_10
REMARK    4  A    between atoms: O_12  and  C_13
REMARK    5  A    between atoms: C_13  and  C_14
REMARK                            x       y       z     vdW  Elec       q    Type
REMARK                         _______ _______ _______ _____ _____    ______ ____
ROOT
ATOM      1  O   UNL     1      33.176   5.218  35.839  0.00  0.00    +0.000 OA
ATOM      2  C   UNL     1      34.187   5.313  35.151  0.00  0.00    +0.000 C 
ATOM      3  N   UNL     1      35.135   6.197  35.514  0.00  0.00    +0.000 NA
ENDROOT
BRANCH   3   4
ATOM      4  C   UNL     1      35.100   7.153  36.712  0.00  0.00    +0.000 C 
ATOM      5  C   UNL     1      36.688   7.464  36.760  0.00  0.00    +0.000 C 
ATOM      6  C   UNL     1      36.707   8.606  37.788  0.00  0.00    +0.000 C 
ATOM      7  C   UNL     1      35.442   9.095  38.269  0.00  0.00    +0.000 C 
ATOM      8  C   UNL     1      34.232   9.223  37.479  0.00  0.00    +0.000 C 
ATOM      9  C   UNL     1      34.513   8.554  35.985  0.00  0.00    +0.000 C 
BRANCH   9  10
ATOM     10  C   UNL     1      35.830   9.465  35.792  0.00  0.00    +0.000 C 
ATOM     11  O   UNL     1      35.418  10.502  34.988  0.00  0.00    +0.000 OA
ENDBRANCH   9  10
ENDBRANCH   3   4
BRANCH   2  12
ATOM     12  O   UNL     1      34.340   4.524  34.029  0.00  0.00    +0.000 OA
BRANCH  12  13
ATOM     13  C   UNL     1      33.245   3.722  33.614  0.00  0.00    +0.000 C 
BRANCH  13  14
ATOM     14  C   UNL     1      33.550   2.299  33.590  0.00  0.00    +0.000 A 
ATOM     15  C   UNL     1      33.423   1.441  34.677  0.00  0.00    +0.000 A 
ATOM     16  C   UNL     1      33.739   0.103  34.603  0.00  0.00    +0.000 A 
ATOM     17  C   UNL     1      34.204  -0.462  33.421  0.00  0.00    +0.000 A 
ATOM     18  C   UNL     1      34.338   0.395  32.314  0.00  0.00    +0.000 A 
ATOM     19  C   UNL     1      34.014   1.730  32.423  0.00  0.00    +0.000 A 
ENDBRANCH  13  14
ENDBRANCH  12  13
ENDBRANCH   2  12
TORSDOF 5
ENDMDL
MODEL 4
REMARK VINA RESULT:      -5.4     26.392     30.159
REMARK  Name = 
REMARK  5 active torsions:
REMARK  status: ('A' for Active; 'I' for Inactive)
REMARK    1  A    between atoms: C_2  and  O_12
REMARK    2  A    between atoms: N_3  and  C_4
REMARK    3  A    between atoms: C_9  and  C_10
REMARK    4  A    between atoms: O_12  and  C_13
REMARK    5  A    between atoms: C_13  and  C_14
REMARK                            x       y       z     vdW  Elec       q    Type
REMARK                         _______ _______ _______ _____ _____    ______ ____
ROOT
ATOM      1  O   UNL     1      29.205  26.959  21.146  0.00  0.00    +0.000 OA
ATOM      2  C   UNL     1      29.665  26.091  20.411  0.00  0.00    +0.000 C 
ATOM      3  N   UNL     1      30.220  26.461  19.242  0.00  0.00    +0.000 NA
ENDROOT
BRANCH   3   4
ATOM      4  C   UNL     1      30.335  27.883  18.680  0.00  0.00    +0.000 C 
ATOM      5  C   UNL     1      31.703  27.653  17.847  0.00  0.00    +0.000 C 
ATOM      6  C   UNL     1      31.761  28.970  17.056  0.00  0.00    +0.000 C 
ATOM      7  C   UNL     1      30.649  29.875  17.181  0.00  0.00    +0.000 C 
ATOM      8  C   UNL     1      29.257  29.487  17.306  0.00  0.00    +0.000 C 
ATOM      9  C   UNL     1      29.187  27.834  17.450  0.00  0.00    +0.000 C 
BRANCH   9  10
ATOM     10  C   UNL     1      30.070  27.651  16.111  0.00  0.00    +0.000 C 
ATOM     11  O   UNL     1      29.324  26.814  15.316  0.00  0.00    +0.000 OA
ENDBRANCH   9  10
ENDBRANCH   3   4
BRANCH   2  12
ATOM     12  O   UNL     1      29.608  24.764  20.786  0.00  0.00    +0.000 OA
BRANCH  12  13
ATOM     13  C   UNL     1      28.585  24.358  21.680  0.00  0.00    +0.000 C 
BRANCH  13  14
ATOM     14  C   UNL     1      29.091  23.900  22.966  0.00  0.00    +0.000 A 
ATOM     15  C   UNL     1      30.401  24.055  23.405  0.00  0.00    +0.000 A 
ATOM     16  C   UNL     1      30.831  23.589  24.627  0.00  0.00    +0.000 A 
ATOM     17  C   UNL     1      29.963  22.934  25.493  0.00  0.00    +0.000 A 
ATOM     18  C   UNL     1      28.635  22.769  25.061  0.00  0.00    +0.000 A 
ATOM     19  C   UNL     1      28.238  23.247  23.830  0.00  0.00    +0.000 A 
ENDBRANCH  13  14
ENDBRANCH  12  13
ENDBRANCH   2  12
TORSDOF 5
ENDMDL
MODEL 5
REMARK VINA RESULT:      -5.4     24.043     27.420
REMARK  Name = 
REMARK  5 active torsions:
REMARK  status: ('A' for Active; 'I' for Inactive)
REMARK    1  A    between atoms: C_2  and  O_12
REMARK    2  A    between atoms: N_3  and  C_4
REMARK    3  A    between atoms: C_9  and  C_10
REMARK    4  A    between atoms: O_12  and  C_13
REMARK    5  A    between atoms: C_13  and  C_14
REMARK                            x       y       z     vdW  Elec       q    Type
REMARK                         _______ _______ _______ _____ _____    ______ ____
ROOT
ATOM      1  O   UNL     1      25.822  26.263  25.450  0.00  0.00    +0.000 OA
ATOM      2  C   UNL     1      26.214  25.199  24.982  0.00  0.00    +0.000 C 
ATOM      3  N   UNL     1      26.920  25.218  23.836  0.00  0.00    +0.000 NA
ENDROOT
BRANCH   3   4
ATOM      4  C   UNL     1      27.292  26.446  22.997  0.00  0.00    +0.000 C 
ATOM      5  C   UNL     1      28.765  26.675  23.629  0.00  0.00    +0.000 C 
ATOM      6  C   UNL     1      29.305  27.748  22.670  0.00  0.00    +0.000 C 
ATOM      7  C   UNL     1      28.485  28.114  21.546  0.00  0.00    +0.000 C 
ATOM      8  C   UNL     1      27.652  27.208  20.780  0.00  0.00    +0.000 C 
ATOM      9  C   UNL     1      27.674  25.724  21.525  0.00  0.00    +0.000 C 
BRANCH   9  10
ATOM     10  C   UNL     1      29.288  25.710  21.514  0.00  0.00    +0.000 C 
ATOM     11  O   UNL     1      29.619  24.577  20.810  0.00  0.00    +0.000 OA
ENDBRANCH   9  10
ENDBRANCH   3   4
BRANCH   2  12
ATOM     12  O   UNL     1      25.930  24.012  25.625  0.00  0.00    +0.000 OA
BRANCH  12  13
ATOM     13  C   UNL     1      26.578  22.831  25.180  0.00  0.00    +0.000 C 
BRANCH  13  14
ATOM     14  C   UNL     1      27.913  22.662  25.734  0.00  0.00    +0.000 A 
ATOM     15  C   UNL     1      29.090  22.690  24.995  0.00  0.00    +0.000 A 
ATOM     16  C   UNL     1      30.329  22.511  25.568  0.00  0.00    +0.000 A 
ATOM     17  C   UNL     1      30.462  22.292  26.935  0.00  0.00    +0.000 A 
ATOM     18  C   UNL     1      29.280  22.260  27.695  0.00  0.00    +0.000 A 
ATOM     19  C   UNL     1      28.057  22.443  27.088  0.00  0.00    +0.000 A 
ENDBRANCH  13  14
ENDBRANCH  12  13
ENDBRANCH   2  12
TORSDOF 5
ENDMDL
MODEL 6
REMARK VINA RESULT:      -5.3     14.628     17.085
REMARK  Name = 
REMARK  5 active torsions:
REMARK  status: ('A' for Active; 'I' for Inactive)
REMARK    1  A    between atoms: C_2  and  O_12
REMARK    2  A    between atoms: N_3  and  C_4
REMARK    3  A    between atoms: C_9  and  C_10
REMARK    4  A    between atoms: O_12  and  C_13
REMARK    5  A    between atoms: C_13  and  C_14
REMARK                            x       y       z     vdW  Elec       q    Type
REMARK                         _______ _______ _______ _____ _____    ______ ____
ROOT
ATOM      1  O   UNL     1      19.982  12.206  37.976  0.00  0.00    +0.000 OA
ATOM      2  C   UNL     1      20.075  11.066  38.420  0.00  0.00    +0.000 C 
ATOM      3  N   UNL     1      21.149  10.328  38.085  0.00  0.00    +0.000 NA
ENDROOT
BRANCH   3   4
ATOM      4  C   UNL     1      22.306  10.739  37.166  0.00  0.00    +0.000 C 
ATOM      5  C   UNL     1      23.146  11.573  38.270  0.00  0.00    +0.000 C 
ATOM      6  C   UNL     1      24.446  11.819  37.488  0.00  0.00    +0.000 C 
ATOM      7  C   UNL     1      24.574  11.207  36.192  0.00  0.00    +0.000 C 
ATOM      8  C   UNL     1      24.073   9.897  35.827  0.00  0.00    +0.000 C 
ATOM      9  C   UNL     1      23.185   9.304  37.099  0.00  0.00    +0.000 C 
BRANCH   9  10
ATOM     10  C   UNL     1      24.414   9.561  38.113  0.00  0.00    +0.000 C 
ATOM     11  O   UNL     1      24.999   8.327  38.267  0.00  0.00    +0.000 OA
ENDBRANCH   9  10
ENDBRANCH   3   4
BRANCH   2  12
ATOM     12  O   UNL     1      19.091  10.561  39.246  0.00  0.00    +0.000 OA
BRANCH  12  13
ATOM     13  C   UNL     1      18.876   9.159  39.259  0.00  0.00    +0.000 C 
BRANCH  13  14
ATOM     14  C   UNL     1      17.724   8.761  40.056  0.00  0.00    +0.000 A 
ATOM     15  C   UNL     1      16.632   9.574  40.336  0.00  0.00    +0.000 A 
ATOM     16  C   UNL     1      15.574   9.150  41.108  0.00  0.00    +0.000 A 
ATOM     17  C   UNL     1      15.547   7.870  41.650  0.00  0.00    +0.000 A 
ATOM     18  C   UNL     1      16.645   7.037  41.375  0.00  0.00    +0.000 A 
ATOM     19  C   UNL     1      17.689   7.494  40.599  0.00  0.00    +0.000 A 
ENDBRANCH  13  14
ENDBRANCH  12  13
ENDBRANCH   2  12
TORSDOF 5
ENDMDL
MODEL 7
REMARK VINA RESULT:      -5.2     20.330     22.696
REMARK  Name = 
REMARK  5 active torsions:
REMARK  status: ('A' for Active; 'I' for Inactive)
REMARK    1  A    between atoms: C_2  and  O_12
REMARK    2  A    between atoms: N_3  and  C_4
REMARK    3  A    between atoms: C_9  and  C_10
REMARK    4  A    between atoms: O_12  and  C_13
REMARK    5  A    between atoms: C_13  and  C_14
REMARK                            x       y       z     vdW  Elec       q    Type
REMARK                         _______ _______ _______ _____ _____    ______ ____
ROOT
ATOM      1  O   UNL     1      16.893  -9.944  25.001  0.00  0.00    +0.000 OA
ATOM      2  C   UNL     1      16.541  -9.642  26.136  0.00  0.00    +0.000 C 
ATOM      3  N   UNL     1      15.254  -9.312  26.348  0.00  0.00    +0.000 NA
ENDROOT
BRANCH   3   4
ATOM      4  C   UNL     1      14.131  -9.244  25.306  0.00  0.00    +0.000 C 
ATOM      5  C   UNL     1      13.626 -10.774  25.462  0.00  0.00    +0.000 C 
ATOM      6  C   UNL     1      12.342 -10.720  24.620  0.00  0.00    +0.000 C 
ATOM      7  C   UNL     1      11.940  -9.443  24.092  0.00  0.00    +0.000 C 
ATOM      8  C   UNL     1      12.087  -8.168  24.768  0.00  0.00    +0.000 C 
ATOM      9  C   UNL     1      12.945  -8.417  26.168  0.00  0.00    +0.000 C 
BRANCH   9  10
ATOM     10  C   UNL     1      11.922  -9.579  26.623  0.00  0.00    +0.000 C 
ATOM     11  O   UNL     1      11.427  -9.151  27.832  0.00  0.00    +0.000 OA
ENDBRANCH   9  10
ENDBRANCH   3   4
BRANCH   2  12
ATOM     12  O   UNL     1      17.457  -9.641  27.169  0.00  0.00    +0.000 OA
BRANCH  12  13
ATOM     13  C   UNL     1      17.639  -8.445  27.909  0.00  0.00    +0.000 C 
BRANCH  13  14
ATOM     14  C   UNL     1      18.400  -7.433  27.191  0.00  0.00    +0.000 A 
ATOM     15  C   UNL     1      19.520  -7.689  26.408  0.00  0.00    +0.000 A 
ATOM     16  C   UNL     1      20.212  -6.690  25.760  0.00  0.00    +0.000 A 
ATOM     17  C   UNL     1      19.817  -5.361  25.859  0.00  0.00    +0.000 A 
ATOM     18  C   UNL     1      18.686  -5.088  26.649  0.00  0.00    +0.000 A 
ATOM     19  C   UNL     1      18.018  -6.112  27.284  0.00  0.00    +0.000 A 
ENDBRANCH  13  14
ENDBRANCH  12  13
ENDBRANCH   2  12
TORSDOF 5
ENDMDL
MODEL 8
REMARK VINA RESULT:      -5.1      2.200      6.281
REMARK  Name = 
REMARK  5 active torsions:
REMARK  status: ('A' for Active; 'I' for Inactive)
REMARK    1  A    between atoms: C_2  and  O_12
REMARK    2  A    between atoms: N_3  and  C_4
REMARK    3  A    between atoms: C_9  and  C_10
REMARK    4  A    between atoms: O_12  and  C_13
REMARK    5  A    between atoms: C_13  and  C_14
REMARK                            x       y       z     vdW  Elec       q    Type
REMARK                         _______ _______ _______ _____ _____    ______ ____
ROOT
ATOM      1  O   UNL     1      36.629   2.984  38.238  0.00  0.00    +0.000 OA
ATOM      2  C   UNL     1      35.604   2.633  37.664  0.00  0.00    +0.000 C 
ATOM      3  N   UNL     1      34.901   3.552  36.977  0.00  0.00    +0.000 NA
ENDROOT
BRANCH   3   4
ATOM      4  C   UNL     1      35.220   5.045  36.831  0.00  0.00    +0.000 C 
ATOM      5  C   UNL     1      36.000   4.940  35.417  0.00  0.00    +0.000 C 
ATOM      6  C   UNL     1      36.146   6.433  35.080  0.00  0.00    +0.000 C 
ATOM      7  C   UNL     1      35.516   7.382  35.960  0.00  0.00    +0.000 C 
ATOM      8  C   UNL     1      34.243   7.196  36.628  0.00  0.00    +0.000 C 
ATOM      9  C   UNL     1      33.726   5.644  36.340  0.00  0.00    +0.000 C 
BRANCH   9  10
ATOM     10  C   UNL     1      33.901   5.850  34.750  0.00  0.00    +0.000 C 
ATOM     11  O   UNL     1      32.645   5.635  34.233  0.00  0.00    +0.000 OA
ENDBRANCH   9  10
ENDBRANCH   3   4
BRANCH   2  12
ATOM     12  O   UNL     1      35.187   1.318  37.730  0.00  0.00    +0.000 OA
BRANCH  12  13
ATOM     13  C   UNL     1      33.885   0.999  37.268  0.00  0.00    +0.000 C 
BRANCH  13  14
ATOM     14  C   UNL     1      33.884   0.262  36.012  0.00  0.00    +0.000 A 
ATOM     15  C   UNL     1      34.238  -1.075  35.875  0.00  0.00    +0.000 A 
ATOM     16  C   UNL     1      34.233  -1.720  34.659  0.00  0.00    +0.000 A 
ATOM     17  C   UNL     1      33.866  -1.056  33.495  0.00  0.00    +0.000 A 
ATOM     18  C   UNL     1      33.506   0.298  33.618  0.00  0.00    +0.000 A 
ATOM     19  C   UNL     1      33.524   0.913  34.851  0.00  0.00    +0.000 A 
ENDBRANCH  13  14
ENDBRANCH  12  13
ENDBRANCH   2  12
TORSDOF 5
ENDMDL
MODEL 9
REMARK VINA RESULT:      -5.1     23.627     25.301
REMARK  Name = 
REMARK  5 active torsions:
REMARK  status: ('A' for Active; 'I' for Inactive)
REMARK    1  A    between atoms: C_2  and  O_12
REMARK    2  A    between atoms: N_3  and  C_4
REMARK    3  A    between atoms: C_9  and  C_10
REMARK    4  A    between atoms: O_12  and  C_13
REMARK    5  A    between atoms: C_13  and  C_14
REMARK                            x       y       z     vdW  Elec       q    Type
REMARK                         _______ _______ _______ _____ _____    ______ ____
ROOT
ATOM      1  O   UNL     1      29.645  24.571  29.121  0.00  0.00    +0.000 OA
ATOM      2  C   UNL     1      29.057  23.563  28.745  0.00  0.00    +0.000 C 
ATOM      3  N   UNL     1      29.234  23.145  27.478  0.00  0.00    +0.000 NA
ENDROOT
BRANCH   3   4
ATOM      4  C   UNL     1      30.095  23.809  26.396  0.00  0.00    +0.000 C 
ATOM      5  C   UNL     1      30.771  22.453  25.826  0.00  0.00    +0.000 C 
ATOM      6  C   UNL     1      31.470  23.007  24.575  0.00  0.00    +0.000 C 
ATOM      7  C   UNL     1      31.251  24.389  24.242  0.00  0.00    +0.000 C 
ATOM      8  C   UNL     1      30.005  25.110  24.415  0.00  0.00    +0.000 C 
ATOM      9  C   UNL     1      28.937  24.120  25.214  0.00  0.00    +0.000 C 
BRANCH   9  10
ATOM     10  C   UNL     1      29.170  22.947  24.132  0.00  0.00    +0.000 C 
ATOM     11  O   UNL     1      28.021  22.939  23.376  0.00  0.00    +0.000 OA
ENDBRANCH   9  10
ENDBRANCH   3   4
BRANCH   2  12
ATOM     12  O   UNL     1      28.231  22.878  29.613  0.00  0.00    +0.000 OA
BRANCH  12  13
ATOM     13  C   UNL     1      26.909  22.580  29.194  0.00  0.00    +0.000 C 
BRANCH  13  14
ATOM     14  C   UNL     1      26.092  23.766  28.979  0.00  0.00    +0.000 A 
ATOM     15  C   UNL     1      25.606  24.183  27.746  0.00  0.00    +0.000 A 
ATOM     16  C   UNL     1      24.848  25.322  27.596  0.00  0.00    +0.000 A 
ATOM     17  C   UNL     1      24.526  26.119  28.689  0.00  0.00    +0.000 A 
ATOM     18  C   UNL     1      25.012  25.710  29.943  0.00  0.00    +0.000 A 
ATOM     19  C   UNL     1      25.770  24.564  30.056  0.00  0.00    +0.000 A 
ENDBRANCH  13  14
ENDBRANCH  12  13
ENDBRANCH   2  12
TORSDOF 5
ENDMDL
MODEL 10
REMARK VINA RESULT:      -5.1      1.943      2.929
REMARK  Name = 
REMARK  5 active torsions:
REMARK  status: ('A' for Active; 'I' for Inactive)
REMARK    1  A    between atoms: C_2  and  O_12
REMARK    2  A    between atoms: N_3  and  C_4
REMARK    3  A    between atoms: C_9  and  C_10
REMARK    4  A    between atoms: O_12  and  C_13
REMARK    5  A    between atoms: C_13  and  C_14
REMARK                            x       y       z     vdW  Elec       q    Type
REMARK                         _______ _______ _______ _____ _____    ______ ____
ROOT
ATOM      1  O   UNL     1      31.940  -0.279  35.611  0.00  0.00    +0.000 OA
ATOM      2  C   UNL     1      32.522  -0.414  34.540  0.00  0.00    +0.000 C 
ATOM      3  N   UNL     1      33.065  -1.610  34.246  0.00  0.00    +0.000 NA
ENDROOT
BRANCH   3   4
ATOM      4  C   UNL     1      33.066  -2.868  35.124  0.00  0.00    +0.000 C 
ATOM      5  C   UNL     1      33.877  -3.821  34.097  0.00  0.00    +0.000 C 
ATOM      6  C   UNL     1      34.131  -5.036  35.003  0.00  0.00    +0.000 C 
ATOM      7  C   UNL     1      33.724  -4.942  36.380  0.00  0.00    +0.000 C 
ATOM      8  C   UNL     1      33.799  -3.748  37.200  0.00  0.00    +0.000 C 
ATOM      9  C   UNL     1      34.270  -2.481  36.234  0.00  0.00    +0.000 C 
BRANCH   9  10
ATOM     10  C   UNL     1      35.550  -3.315  35.716  0.00  0.00    +0.000 C 
ATOM     11  O   UNL     1      36.626  -2.501  35.987  0.00  0.00    +0.000 OA
ENDBRANCH   9  10
ENDBRANCH   3   4
BRANCH   2  12
ATOM     12  O   UNL     1      32.615   0.646  33.661  0.00  0.00    +0.000 OA
BRANCH  12  13
ATOM     13  C   UNL     1      33.806   1.415  33.654  0.00  0.00    +0.000 C 
BRANCH  13  14
ATOM     14  C   UNL     1      33.611   2.785  34.107  0.00  0.00    +0.000 A 
ATOM     15  C   UNL     1      33.012   3.791  33.359  0.00  0.00    +0.000 A 
ATOM     16  C   UNL     1      32.865   5.076  33.831  0.00  0.00    +0.000 A 
ATOM     17  C   UNL     1      33.313   5.432  35.098  0.00  0.00    +0.000 A 
ATOM     18  C   UNL     1      33.923   4.424  35.866  0.00  0.00    +0.000 A 
ATOM     19  C   UNL     1      34.055   3.148  35.361  0.00  0.00    +0.000 A 
ENDBRANCH  13  14
ENDBRANCH  12  13
ENDBRANCH   2  12
TORSDOF 5
ENDMDL
