MODEL 1
REMARK VINA RESULT:      -6.8      0.000      0.000
REMARK  Name = 
REMARK  3 active torsions:
REMARK  status: ('A' for Active; 'I' for Inactive)
REMARK    1  A    between atoms: C_7  and  N_8
REMARK    2  A    between atoms: N_8  and  N_9
REMARK    3  A    between atoms: C_10  and  C_12
REMARK                            x       y       z     vdW  Elec       q    Type
REMARK                         _______ _______ _______ _____ _____    ______ ____
ROOT
ATOM      1  N   UNL     1      16.001  13.008  35.769  0.00  0.00    +0.000 NA
ATOM      2  C   UNL     1      14.852  12.524  35.092  0.00  0.00    +0.000 C 
ATOM      3  O   UNL     1      14.035  11.777  35.675  0.00  0.00    +0.000 OA
ENDROOT
BRANCH   2   4
ATOM      4  C   UNL     1      14.595  12.881  33.707  0.00  0.00    +0.000 A 
ATOM      5  C   UNL     1      13.773  13.955  33.408  0.00  0.00    +0.000 A 
ATOM      6  C   UNL     1      13.527  14.302  32.102  0.00  0.00    +0.000 A 
ATOM      7  C   UNL     1      14.091  13.592  31.060  0.00  0.00    +0.000 A 
ATOM      8  C   UNL     1      14.909  12.522  31.351  0.00  0.00    +0.000 A 
ATOM      9  C   UNL     1      15.153  12.177  32.661  0.00  0.00    +0.000 A 
ATOM     10 BR   UNL     1      16.289  10.697  33.050  0.00  0.00    +0.000 Br
ENDBRANCH   2   4
BRANCH   1  11
ATOM     11  N   UNL     1      16.300  12.708  37.090  0.00  0.00    +0.000 NA
BRANCH  11  18
ATOM     12  C   UNL     1      15.333  10.757  38.484  0.00  0.00    +0.000 C 
ATOM     13  C   UNL     1      16.705  10.286  37.701  0.00  0.00    +0.000 C 
ATOM     14  C   UNL     1      17.525  10.098  39.122  0.00  0.00    +0.000 C 
ATOM     15  C   UNL     1      18.922   9.745  38.648  0.00  0.00    +0.000 C 
ATOM     16  C   UNL     1      19.533  10.900  37.876  0.00  0.00    +0.000 C 
ATOM     17  C   UNL     1      18.504  11.916  37.533  0.00  0.00    +0.000 C 
ATOM     18  C   UNL     1      17.239  11.748  37.431  0.00  0.00    +0.000 C 
ENDBRANCH  11  18
ENDBRANCH   1  11
TORSDOF 3
ENDMDL
MODEL 2
REMARK VINA RESULT:      -6.8      2.159      6.881
REMARK  Name = 
REMARK  3 active torsions:
REMARK  status: ('A' for Active; 'I' for Inactive)
REMARK    1  A    between atoms: C_7  and  N_8
REMARK    2  A    between atoms: N_8  and  N_9
REMARK    3  A    between atoms: C_10  and  C_12
REMARK                            x       y       z     vdW  Elec       q    Type
REMARK                         _______ _______ _______ _____ _____    ______ ____
ROOT
ATOM      1  N   UNL     1      17.013  10.977  34.603  0.00  0.00    +0.000 NA
ATOM      2  C   UNL     1      17.481   9.883  35.375  0.00  0.00    +0.000 C 
ATOM      3  O   UNL     1      17.125   8.714  35.108  0.00  0.00    +0.000 OA
ENDROOT
BRANCH   2   4
ATOM      4  C   UNL     1      18.385  10.090  36.494  0.00  0.00    +0.000 A 
ATOM      5  C   UNL     1      19.736   9.816  36.357  0.00  0.00    +0.000 A 
ATOM      6  C   UNL     1      20.597  10.012  37.408  0.00  0.00    +0.000 A 
ATOM      7  C   UNL     1      20.140  10.486  38.622  0.00  0.00    +0.000 A 
ATOM      8  C   UNL     1      18.797  10.760  38.766  0.00  0.00    +0.000 A 
ATOM      9  C   UNL     1      17.937  10.563  37.710  0.00  0.00    +0.000 A 
ATOM     10 BR   UNL     1      16.082  10.948  37.920  0.00  0.00    +0.000 Br
ENDBRANCH   2   4
BRANCH   1  11
ATOM     11  N   UNL     1      16.155  10.845  33.522  0.00  0.00    +0.000 NA
BRANCH  11  18
ATOM     12  C   UNL     1      15.905  11.268  30.983  0.00  0.00    +0.000 C 
ATOM     13  C   UNL     1      14.536  11.719  31.784  0.00  0.00    +0.000 C 
ATOM     14  C   UNL     1      14.769  13.311  31.414  0.00  0.00    +0.000 C 
ATOM     15  C   UNL     1      13.635  13.988  32.159  0.00  0.00    +0.000 C 
ATOM     16  C   UNL     1      13.793  13.803  33.657  0.00  0.00    +0.000 C 
ATOM     17  C   UNL     1      14.816  12.768  33.961  0.00  0.00    +0.000 C 
ATOM     18  C   UNL     1      15.213  11.812  33.208  0.00  0.00    +0.000 C 
ENDBRANCH  11  18
ENDBRANCH   1  11
TORSDOF 3
ENDMDL
MODEL 3
REMARK VINA RESULT:      -6.5      1.391      2.238
REMARK  Name = 
REMARK  3 active torsions:
REMARK  status: ('A' for Active; 'I' for Inactive)
REMARK    1  A    between atoms: C_7  and  N_8
REMARK    2  A    between atoms: N_8  and  N_9
REMARK    3  A    between atoms: C_10  and  C_12
REMARK                            x       y       z     vdW  Elec       q    Type
REMARK                         _______ _______ _______ _____ _____    ______ ____
ROOT
ATOM      1  N   UNL     1      16.767  11.843  34.977  0.00  0.00    +0.000 NA
ATOM      2  C   UNL     1      15.556  11.607  34.276  0.00  0.00    +0.000 C 
ATOM      3  O   UNL     1      15.123  10.443  34.124  0.00  0.00    +0.000 OA
ENDROOT
BRANCH   2   4
ATOM      4  C   UNL     1      14.788  12.707  33.718  0.00  0.00    +0.000 A 
ATOM      5  C   UNL     1      14.088  13.560  34.556  0.00  0.00    +0.000 A 
ATOM      6  C   UNL     1      13.362  14.605  34.038  0.00  0.00    +0.000 A 
ATOM      7  C   UNL     1      13.313  14.829  32.676  0.00  0.00    +0.000 A 
ATOM      8  C   UNL     1      14.007  13.984  31.837  0.00  0.00    +0.000 A 
ATOM      9  C   UNL     1      14.733  12.938  32.360  0.00  0.00    +0.000 A 
ATOM     10 BR   UNL     1      15.691  11.777  31.191  0.00  0.00    +0.000 Br
ENDBRANCH   2   4
BRANCH   1  11
ATOM     11  N   UNL     1      17.542  10.838  35.536  0.00  0.00    +0.000 NA
BRANCH  11  18
ATOM     12  C   UNL     1      19.670   9.618  36.354  0.00  0.00    +0.000 C 
ATOM     13  C   UNL     1      18.965  10.448  37.592  0.00  0.00    +0.000 C 
ATOM     14  C   UNL     1      18.589   9.054  38.394  0.00  0.00    +0.000 C 
ATOM     15  C   UNL     1      17.803   9.567  39.585  0.00  0.00    +0.000 C 
ATOM     16  C   UNL     1      16.519  10.235  39.131  0.00  0.00    +0.000 C 
ATOM     17  C   UNL     1      16.533  10.480  37.666  0.00  0.00    +0.000 C 
ATOM     18  C   UNL     1      17.552  10.589  36.899  0.00  0.00    +0.000 C 
ENDBRANCH  11  18
ENDBRANCH   1  11
TORSDOF 3
ENDMDL
MODEL 4
REMARK VINA RESULT:      -6.3      3.187      4.555
REMARK  Name = 
REMARK  3 active torsions:
REMARK  status: ('A' for Active; 'I' for Inactive)
REMARK    1  A    between atoms: C_7  and  N_8
REMARK    2  A    between atoms: N_8  and  N_9
REMARK    3  A    between atoms: C_10  and  C_12
REMARK                            x       y       z     vdW  Elec       q    Type
REMARK                         _______ _______ _______ _____ _____    ______ ____
ROOT
ATOM      1  N   UNL     1      17.882   9.166  37.618  0.00  0.00    +0.000 NA
ATOM      2  C   UNL     1      17.968  10.409  36.940  0.00  0.00    +0.000 C 
ATOM      3  O   UNL     1      18.607  11.364  37.436  0.00  0.00    +0.000 OA
ENDROOT
BRANCH   2   4
ATOM      4  C   UNL     1      17.318  10.607  35.655  0.00  0.00    +0.000 A 
ATOM      5  C   UNL     1      17.921  10.150  34.494  0.00  0.00    +0.000 A 
ATOM      6  C   UNL     1      17.313  10.329  33.276  0.00  0.00    +0.000 A 
ATOM      7  C   UNL     1      16.090  10.966  33.179  0.00  0.00    +0.000 A 
ATOM      8  C   UNL     1      15.486  11.424  34.330  0.00  0.00    +0.000 A 
ATOM      9  C   UNL     1      16.099  11.242  35.549  0.00  0.00    +0.000 A 
ATOM     10 BR   UNL     1      15.252  11.876  37.134  0.00  0.00    +0.000 Br
ENDBRANCH   2   4
BRANCH   1  11
ATOM     11  N   UNL     1      18.482   8.913  38.842  0.00  0.00    +0.000 NA
BRANCH  11  18
ATOM     12  C   UNL     1      18.688   6.584  39.947  0.00  0.00    +0.000 C 
ATOM     13  C   UNL     1      18.252   7.720  41.061  0.00  0.00    +0.000 C 
ATOM     14  C   UNL     1      16.770   7.025  41.281  0.00  0.00    +0.000 C 
ATOM     15  C   UNL     1      16.098   7.989  42.239  0.00  0.00    +0.000 C 
ATOM     16  C   UNL     1      15.913   9.347  41.590  0.00  0.00    +0.000 C 
ATOM     17  C   UNL     1      16.705   9.452  40.337  0.00  0.00    +0.000 C 
ATOM     18  C   UNL     1      17.747   8.784  40.009  0.00  0.00    +0.000 C 
ENDBRANCH  11  18
ENDBRANCH   1  11
TORSDOF 3
ENDMDL
MODEL 5
REMARK VINA RESULT:      -6.1      1.710      2.656
REMARK  Name = 
REMARK  3 active torsions:
REMARK  status: ('A' for Active; 'I' for Inactive)
REMARK    1  A    between atoms: C_7  and  N_8
REMARK    2  A    between atoms: N_8  and  N_9
REMARK    3  A    between atoms: C_10  and  C_12
REMARK                            x       y       z     vdW  Elec       q    Type
REMARK                         _______ _______ _______ _____ _____    ______ ____
ROOT
ATOM      1  N   UNL     1      17.163  11.655  35.370  0.00  0.00    +0.000 NA
ATOM      2  C   UNL     1      16.464  11.084  34.275  0.00  0.00    +0.000 C 
ATOM      3  O   UNL     1      16.483   9.848  34.081  0.00  0.00    +0.000 OA
ENDROOT
BRANCH   2   4
ATOM      4  C   UNL     1      15.711  11.916  33.353  0.00  0.00    +0.000 A 
ATOM      5  C   UNL     1      16.038  11.932  32.006  0.00  0.00    +0.000 A 
ATOM      6  C   UNL     1      15.329  12.712  31.126  0.00  0.00    +0.000 A 
ATOM      7  C   UNL     1      14.278  13.497  31.560  0.00  0.00    +0.000 A 
ATOM      8  C   UNL     1      13.948  13.485  32.898  0.00  0.00    +0.000 A 
ATOM      9  C   UNL     1      14.660  12.701  33.777  0.00  0.00    +0.000 A 
ATOM     10 BR   UNL     1      14.193  12.692  35.625  0.00  0.00    +0.000 Br
ENDBRANCH   2   4
BRANCH   1  11
ATOM     11  N   UNL     1      17.895  10.916  36.287  0.00  0.00    +0.000 NA
BRANCH  11  18
ATOM     12  C   UNL     1      19.602   9.685  37.789  0.00  0.00    +0.000 C 
ATOM     13  C   UNL     1      18.517  10.521  38.708  0.00  0.00    +0.000 C 
ATOM     14  C   UNL     1      17.879   9.130  39.329  0.00  0.00    +0.000 C 
ATOM     15  C   UNL     1      16.733   9.648  40.176  0.00  0.00    +0.000 C 
ATOM     16  C   UNL     1      15.688  10.323  39.307  0.00  0.00    +0.000 C 
ATOM     17  C   UNL     1      16.210  10.566  37.937  0.00  0.00    +0.000 C 
ATOM     18  C   UNL     1      17.432  10.669  37.569  0.00  0.00    +0.000 C 
ENDBRANCH  11  18
ENDBRANCH   1  11
TORSDOF 3
ENDMDL
MODEL 6
REMARK VINA RESULT:      -6.1      3.950      7.572
REMARK  Name = 
REMARK  3 active torsions:
REMARK  status: ('A' for Active; 'I' for Inactive)
REMARK    1  A    between atoms: C_7  and  N_8
REMARK    2  A    between atoms: N_8  and  N_9
REMARK    3  A    between atoms: C_10  and  C_12
REMARK                            x       y       z     vdW  Elec       q    Type
REMARK                         _______ _______ _______ _____ _____    ______ ____
ROOT
ATOM      1  N   UNL     1      19.403   9.634  36.670  0.00  0.00    +0.000 NA
ATOM      2  C   UNL     1      20.421  10.399  37.295  0.00  0.00    +0.000 C 
ATOM      3  O   UNL     1      20.147  11.473  37.874  0.00  0.00    +0.000 OA
ENDROOT
BRANCH   2   4
ATOM      4  C   UNL     1      21.806   9.957  37.279  0.00  0.00    +0.000 A 
ATOM      5  C   UNL     1      22.586  10.159  36.152  0.00  0.00    +0.000 A 
ATOM      6  C   UNL     1      23.896   9.748  36.129  0.00  0.00    +0.000 A 
ATOM      7  C   UNL     1      24.465   9.127  37.224  0.00  0.00    +0.000 A 
ATOM      8  C   UNL     1      23.694   8.923  38.348  0.00  0.00    +0.000 A 
ATOM      9  C   UNL     1      22.382   9.337  38.367  0.00  0.00    +0.000 A 
ATOM     10 BR   UNL     1      21.326   9.051  39.928  0.00  0.00    +0.000 Br
ENDBRANCH   2   4
BRANCH   1  11
ATOM     11  N   UNL     1      18.065   9.998  36.654  0.00  0.00    +0.000 NA
BRANCH  11  18
ATOM     12  C   UNL     1      16.225  11.730  37.199  0.00  0.00    +0.000 C 
ATOM     13  C   UNL     1      16.829  11.981  35.686  0.00  0.00    +0.000 C 
ATOM     14  C   UNL     1      15.394  11.577  34.978  0.00  0.00    +0.000 C 
ATOM     15  C   UNL     1      15.731  11.636  33.500  0.00  0.00    +0.000 C 
ATOM     16  C   UNL     1      16.768  10.587  33.146  0.00  0.00    +0.000 C 
ATOM     17  C   UNL     1      17.386  10.013  34.369  0.00  0.00    +0.000 C 
ATOM     18  C   UNL     1      17.465  10.544  35.531  0.00  0.00    +0.000 C 
ENDBRANCH  11  18
ENDBRANCH   1  11
TORSDOF 3
ENDMDL
MODEL 7
REMARK VINA RESULT:      -6.1      3.112      4.308
REMARK  Name = 
REMARK  3 active torsions:
REMARK  status: ('A' for Active; 'I' for Inactive)
REMARK    1  A    between atoms: C_7  and  N_8
REMARK    2  A    between atoms: N_8  and  N_9
REMARK    3  A    between atoms: C_10  and  C_12
REMARK                            x       y       z     vdW  Elec       q    Type
REMARK                         _______ _______ _______ _____ _____    ______ ____
ROOT
ATOM      1  N   UNL     1      16.943  10.053  38.741  0.00  0.00    +0.000 NA
ATOM      2  C   UNL     1      17.465  10.935  37.760  0.00  0.00    +0.000 C 
ATOM      3  O   UNL     1      18.625  11.392  37.865  0.00  0.00    +0.000 OA
ENDROOT
BRANCH   2   4
ATOM      4  C   UNL     1      16.670  11.331  36.610  0.00  0.00    +0.000 A 
ATOM      5  C   UNL     1      15.830  12.430  36.692  0.00  0.00    +0.000 A 
ATOM      6  C   UNL     1      15.077  12.814  35.610  0.00  0.00    +0.000 A 
ATOM      7  C   UNL     1      15.138  12.117  34.419  0.00  0.00    +0.000 A 
ATOM      8  C   UNL     1      15.971  11.023  34.331  0.00  0.00    +0.000 A 
ATOM      9  C   UNL     1      16.724  10.642  35.418  0.00  0.00    +0.000 A 
ATOM     10 BR   UNL     1      17.874   9.128  35.283  0.00  0.00    +0.000 Br
ENDBRANCH   2   4
BRANCH   1  11
ATOM     11  N   UNL     1      17.652   9.634  39.856  0.00  0.00    +0.000 NA
BRANCH  11  18
ATOM     12  C   UNL     1      16.374   9.141  42.049  0.00  0.00    +0.000 C 
ATOM     13  C   UNL     1      16.511   7.775  41.137  0.00  0.00    +0.000 C 
ATOM     14  C   UNL     1      17.489   7.053  42.254  0.00  0.00    +0.000 C 
ATOM     15  C   UNL     1      17.855   5.749  41.572  0.00  0.00    +0.000 C 
ATOM     16  C   UNL     1      18.659   6.012  40.312  0.00  0.00    +0.000 C 
ATOM     17  C   UNL     1      18.598   7.447  39.930  0.00  0.00    +0.000 C 
ATOM     18  C   UNL     1      17.699   8.304  40.241  0.00  0.00    +0.000 C 
ENDBRANCH  11  18
ENDBRANCH   1  11
TORSDOF 3
ENDMDL
MODEL 8
REMARK VINA RESULT:      -6.0     22.888     23.668
REMARK  Name = 
REMARK  3 active torsions:
REMARK  status: ('A' for Active; 'I' for Inactive)
REMARK    1  A    between atoms: C_7  and  N_8
REMARK    2  A    between atoms: N_8  and  N_9
REMARK    3  A    between atoms: C_10  and  C_12
REMARK                            x       y       z     vdW  Elec       q    Type
REMARK                         _______ _______ _______ _____ _____    ______ ____
ROOT
ATOM      1  N   UNL     1      22.130  -8.422  25.670  0.00  0.00    +0.000 NA
ATOM      2  C   UNL     1      20.854  -8.114  25.132  0.00  0.00    +0.000 C 
ATOM      3  O   UNL     1      20.505  -8.566  24.019  0.00  0.00    +0.000 OA
ENDROOT
BRANCH   2   4
ATOM      4  C   UNL     1      19.921  -7.268  25.857  0.00  0.00    +0.000 A 
ATOM      5  C   UNL     1      19.982  -5.890  25.720  0.00  0.00    +0.000 A 
ATOM      6  C   UNL     1      19.102  -5.083  26.398  0.00  0.00    +0.000 A 
ATOM      7  C   UNL     1      18.139  -5.622  27.229  0.00  0.00    +0.000 A 
ATOM      8  C   UNL     1      18.073  -6.991  27.369  0.00  0.00    +0.000 A 
ATOM      9  C   UNL     1      18.956  -7.797  26.688  0.00  0.00    +0.000 A 
ATOM     10 BR   UNL     1      18.853  -9.690  26.888  0.00  0.00    +0.000 Br
ENDBRANCH   2   4
BRANCH   1  11
ATOM     11  N   UNL     1      23.062  -9.225  25.032  0.00  0.00    +0.000 NA
BRANCH  11  18
ATOM     12  C   UNL     1      25.004 -10.871  24.577  0.00  0.00    +0.000 C 
ATOM     13  C   UNL     1      24.928  -9.722  23.397  0.00  0.00    +0.000 C 
ATOM     14  C   UNL     1      26.381  -9.077  23.846  0.00  0.00    +0.000 C 
ATOM     15  C   UNL     1      26.502  -7.877  22.926  0.00  0.00    +0.000 C 
ATOM     16  C   UNL     1      25.405  -6.869  23.216  0.00  0.00    +0.000 C 
ATOM     17  C   UNL     1      24.353  -7.460  24.082  0.00  0.00    +0.000 C 
ATOM     18  C   UNL     1      24.063  -8.698  24.232  0.00  0.00    +0.000 C 
ENDBRANCH  11  18
ENDBRANCH   1  11
TORSDOF 3
ENDMDL
MODEL 9
REMARK VINA RESULT:      -6.0     21.318     23.749
REMARK  Name = 
REMARK  3 active torsions:
REMARK  status: ('A' for Active; 'I' for Inactive)
REMARK    1  A    between atoms: C_7  and  N_8
REMARK    2  A    between atoms: N_8  and  N_9
REMARK    3  A    between atoms: C_10  and  C_12
REMARK                            x       y       z     vdW  Elec       q    Type
REMARK                         _______ _______ _______ _____ _____    ______ ____
ROOT
ATOM      1  N   UNL     1      33.308  -2.673  33.578  0.00  0.00    +0.000 NA
ATOM      2  C   UNL     1      34.141  -1.723  34.224  0.00  0.00    +0.000 C 
ATOM      3  O   UNL     1      35.027  -2.093  35.027  0.00  0.00    +0.000 OA
ENDROOT
BRANCH   2   4
ATOM      4  C   UNL     1      33.987  -0.300  33.973  0.00  0.00    +0.000 A 
ATOM      5  C   UNL     1      34.189   0.206  32.699  0.00  0.00    +0.000 A 
ATOM      6  C   UNL     1      34.042   1.549  32.451  0.00  0.00    +0.000 A 
ATOM      7  C   UNL     1      33.691   2.423  33.461  0.00  0.00    +0.000 A 
ATOM      8  C   UNL     1      33.490   1.926  34.731  0.00  0.00    +0.000 A 
ATOM      9  C   UNL     1      33.637   0.580  34.975  0.00  0.00    +0.000 A 
ATOM     10 BR   UNL     1      33.353  -0.096  36.735  0.00  0.00    +0.000 Br
ENDBRANCH   2   4
BRANCH   1  11
ATOM     11  N   UNL     1      33.407  -4.043  33.771  0.00  0.00    +0.000 NA
BRANCH  11  18
ATOM     12  C   UNL     1      35.444  -5.522  34.363  0.00  0.00    +0.000 C 
ATOM     13  C   UNL     1      34.542  -6.224  33.175  0.00  0.00    +0.000 C 
ATOM     14  C   UNL     1      35.754  -6.051  32.067  0.00  0.00    +0.000 C 
ATOM     15  C   UNL     1      35.106  -6.559  30.794  0.00  0.00    +0.000 C 
ATOM     16  C   UNL     1      33.943  -5.670  30.394  0.00  0.00    +0.000 C 
ATOM     17  C   UNL     1      33.568  -4.752  31.501  0.00  0.00    +0.000 C 
ATOM     18  C   UNL     1      33.785  -4.904  32.753  0.00  0.00    +0.000 C 
ENDBRANCH  11  18
ENDBRANCH   1  11
TORSDOF 3
ENDMDL
MODEL 10
REMARK VINA RESULT:      -5.8      2.811      4.477
REMARK  Name = 
REMARK  3 active torsions:
REMARK  status: ('A' for Active; 'I' for Inactive)
REMARK    1  A    between atoms: C_7  and  N_8
REMARK    2  A    between atoms: N_8  and  N_9
REMARK    3  A    between atoms: C_10  and  C_12
REMARK                            x       y       z     vdW  Elec       q    Type
REMARK                         _______ _______ _______ _____ _____    ______ ____
ROOT
ATOM      1  N   UNL     1      18.863  11.516  37.726  0.00  0.00    +0.000 NA
ATOM      2  C   UNL     1      17.646  10.808  37.556  0.00  0.00    +0.000 C 
ATOM      3  O   UNL     1      17.440   9.736  38.168  0.00  0.00    +0.000 OA
ENDROOT
BRANCH   2   4
ATOM      4  C   UNL     1      16.608  11.306  36.668  0.00  0.00    +0.000 A 
ATOM      5  C   UNL     1      15.641  12.173  37.149  0.00  0.00    +0.000 A 
ATOM      6  C   UNL     1      14.658  12.652  36.317  0.00  0.00    +0.000 A 
ATOM      7  C   UNL     1      14.612  12.282  34.987  0.00  0.00    +0.000 A 
ATOM      8  C   UNL     1      15.572  11.419  34.502  0.00  0.00    +0.000 A 
ATOM      9  C   UNL     1      16.554  10.942  35.339  0.00  0.00    +0.000 A 
ATOM     10 BR   UNL     1      17.878   9.752  34.657  0.00  0.00    +0.000 Br
ENDBRANCH   2   4
BRANCH   1  11
ATOM     11  N   UNL     1      19.889  11.097  38.560  0.00  0.00    +0.000 NA
BRANCH  11  18
ATOM     12  C   UNL     1      21.914  12.460  39.412  0.00  0.00    +0.000 C 
ATOM     13  C   UNL     1      22.386  10.952  38.940  0.00  0.00    +0.000 C 
ATOM     14  C   UNL     1      23.276  11.556  37.687  0.00  0.00    +0.000 C 
ATOM     15  C   UNL     1      23.761  10.297  36.996  0.00  0.00    +0.000 C 
ATOM     16  C   UNL     1      22.591   9.510  36.435  0.00  0.00    +0.000 C 
ATOM     17  C   UNL     1      21.302  10.012  36.975  0.00  0.00    +0.000 C 
ATOM     18  C   UNL     1      21.105  10.656  38.064  0.00  0.00    +0.000 C 
ENDBRANCH  11  18
ENDBRANCH   1  11
TORSDOF 3
ENDMDL
