MODEL 1
REMARK VINA RESULT:      -6.7      0.000      0.000
REMARK  Name = 
REMARK  3 active torsions:
REMARK  status: ('A' for Active; 'I' for Inactive)
REMARK    1  A    between atoms: C_2  and  O_3
REMARK    2  A    between atoms: O_3  and  C_4
REMARK    3  A    between atoms: C_9  and  C_10
REMARK                            x       y       z     vdW  Elec       q    Type
REMARK                         _______ _______ _______ _____ _____    ______ ____
ROOT
ATOM      1  C   UNL     1      18.235   9.043  39.191  0.00  0.00    +0.000 A 
ATOM      2  C   UNL     1      17.151   9.857  39.425  0.00  0.00    +0.000 A 
ATOM      3  C   UNL     1      16.446  10.502  38.468  0.00  0.00    +0.000 A 
ATOM      4  C   UNL     1      16.807  10.363  37.116  0.00  0.00    +0.000 A 
ATOM      5  N   UNL     1      16.206  10.935  36.103  0.00  0.00    +0.000 NA
ATOM      6  C   UNL     1      16.645  10.723  34.880  0.00  0.00    +0.000 A 
ATOM      7  S   UNL     1      17.964   9.676  35.139  0.00  0.00    +0.000 S 
ATOM      8  C   UNL     1      17.879   9.563  36.853  0.00  0.00    +0.000 A 
ATOM      9  C   UNL     1      18.597   8.902  37.857  0.00  0.00    +0.000 A 
ENDROOT
BRANCH   6  10
ATOM     10  C   UNL     1      16.067  11.296  33.665  0.00  0.00    +0.000 A 
ATOM     11  C   UNL     1      15.047  12.245  33.789  0.00  0.00    +0.000 A 
ATOM     12  C   UNL     1      14.487  12.797  32.661  0.00  0.00    +0.000 A 
ATOM     13  C   UNL     1      14.889  12.455  31.382  0.00  0.00    +0.000 A 
ATOM     14  N   UNL     1      14.306  13.030  30.213  0.00  0.00    +0.000 NA
ATOM     15  C   UNL     1      15.896  11.516  31.288  0.00  0.00    +0.000 A 
ATOM     16  C   UNL     1      16.463  10.959  32.413  0.00  0.00    +0.000 A 
ENDBRANCH   6  10
BRANCH   1  17
ATOM     17  O   UNL     1      18.914   8.414  40.197  0.00  0.00    +0.000 OA
BRANCH  17  19
ATOM     18  C   UNL     1      17.643   6.522  40.819  0.00  0.00    +0.000 C 
ATOM     19  C   UNL     1      18.948   6.999  40.210  0.00  0.00    +0.000 C 
ENDBRANCH  17  19
ENDBRANCH   1  17
TORSDOF 3
ENDMDL
MODEL 2
REMARK VINA RESULT:      -6.6      1.679      2.405
REMARK  Name = 
REMARK  3 active torsions:
REMARK  status: ('A' for Active; 'I' for Inactive)
REMARK    1  A    between atoms: C_2  and  O_3
REMARK    2  A    between atoms: O_3  and  C_4
REMARK    3  A    between atoms: C_9  and  C_10
REMARK                            x       y       z     vdW  Elec       q    Type
REMARK                         _______ _______ _______ _____ _____    ______ ____
ROOT
ATOM      1  C   UNL     1      16.952   9.475  40.078  0.00  0.00    +0.000 A 
ATOM      2  C   UNL     1      17.948   9.523  39.130  0.00  0.00    +0.000 A 
ATOM      3  C   UNL     1      17.823  10.077  37.903  0.00  0.00    +0.000 A 
ATOM      4  C   UNL     1      16.603  10.662  37.518  0.00  0.00    +0.000 A 
ATOM      5  N   UNL     1      16.359  11.228  36.362  0.00  0.00    +0.000 NA
ATOM      6  C   UNL     1      15.169  11.740  36.125  0.00  0.00    +0.000 A 
ATOM      7  S   UNL     1      14.337  11.425  37.578  0.00  0.00    +0.000 S 
ATOM      8  C   UNL     1      15.597  10.629  38.437  0.00  0.00    +0.000 A 
ATOM      9  C   UNL     1      15.744  10.051  39.703  0.00  0.00    +0.000 A 
ENDROOT
BRANCH   6  10
ATOM     10  C   UNL     1      14.766  12.398  34.883  0.00  0.00    +0.000 A 
ATOM     11  C   UNL     1      15.223  11.877  33.668  0.00  0.00    +0.000 A 
ATOM     12  C   UNL     1      14.858  12.479  32.487  0.00  0.00    +0.000 A 
ATOM     13  C   UNL     1      14.046  13.597  32.437  0.00  0.00    +0.000 A 
ATOM     14  N   UNL     1      13.669  14.220  31.209  0.00  0.00    +0.000 NA
ATOM     15  C   UNL     1      13.610  14.091  33.649  0.00  0.00    +0.000 A 
ATOM     16  C   UNL     1      13.970  13.494  34.837  0.00  0.00    +0.000 A 
ENDBRANCH   6  10
BRANCH   1  17
ATOM     17  O   UNL     1      17.132   8.901  41.306  0.00  0.00    +0.000 OA
BRANCH  17  19
ATOM     18  C   UNL     1      17.002   6.543  41.250  0.00  0.00    +0.000 C 
ATOM     19  C   UNL     1      17.928   7.735  41.399  0.00  0.00    +0.000 C 
ENDBRANCH  17  19
ENDBRANCH   1  17
TORSDOF 3
ENDMDL
MODEL 3
REMARK VINA RESULT:      -6.2     18.849     20.543
REMARK  Name = 
REMARK  3 active torsions:
REMARK  status: ('A' for Active; 'I' for Inactive)
REMARK    1  A    between atoms: C_2  and  O_3
REMARK    2  A    between atoms: O_3  and  C_4
REMARK    3  A    between atoms: C_9  and  C_10
REMARK                            x       y       z     vdW  Elec       q    Type
REMARK                         _______ _______ _______ _____ _____    ______ ____
ROOT
ATOM      1  C   UNL     1      34.048   4.207  34.883  0.00  0.00    +0.000 A 
ATOM      2  C   UNL     1      33.721   3.896  33.582  0.00  0.00    +0.000 A 
ATOM      3  C   UNL     1      33.437   2.654  33.132  0.00  0.00    +0.000 A 
ATOM      4  C   UNL     1      33.464   1.562  34.018  0.00  0.00    +0.000 A 
ATOM      5  N   UNL     1      33.208   0.317  33.702  0.00  0.00    +0.000 NA
ATOM      6  C   UNL     1      33.268  -0.616  34.630  0.00  0.00    +0.000 A 
ATOM      7  S   UNL     1      33.701   0.272  36.018  0.00  0.00    +0.000 S 
ATOM      8  C   UNL     1      33.785   1.839  35.313  0.00  0.00    +0.000 A 
ATOM      9  C   UNL     1      34.076   3.132  35.763  0.00  0.00    +0.000 A 
ENDROOT
BRANCH   6  10
ATOM     10  C   UNL     1      33.006  -2.038  34.414  0.00  0.00    +0.000 A 
ATOM     11  C   UNL     1      33.602  -2.672  33.318  0.00  0.00    +0.000 A 
ATOM     12  C   UNL     1      33.370  -4.009  33.095  0.00  0.00    +0.000 A 
ATOM     13  C   UNL     1      32.561  -4.775  33.913  0.00  0.00    +0.000 A 
ATOM     14  N   UNL     1      32.322  -6.162  33.677  0.00  0.00    +0.000 NA
ATOM     15  C   UNL     1      31.984  -4.125  34.985  0.00  0.00    +0.000 A 
ATOM     16  C   UNL     1      32.212  -2.787  35.217  0.00  0.00    +0.000 A 
ENDBRANCH   6  10
BRANCH   1  17
ATOM     17  O   UNL     1      34.328   5.483  35.286  0.00  0.00    +0.000 OA
BRANCH  17  19
ATOM     18  C   UNL     1      36.632   5.899  35.602  0.00  0.00    +0.000 C 
ATOM     19  C   UNL     1      35.302   5.676  36.295  0.00  0.00    +0.000 C 
ENDBRANCH  17  19
ENDBRANCH   1  17
TORSDOF 3
ENDMDL
MODEL 4
REMARK VINA RESULT:      -5.9     18.413     19.975
REMARK  Name = 
REMARK  3 active torsions:
REMARK  status: ('A' for Active; 'I' for Inactive)
REMARK    1  A    between atoms: C_2  and  O_3
REMARK    2  A    between atoms: O_3  and  C_4
REMARK    3  A    between atoms: C_9  and  C_10
REMARK                            x       y       z     vdW  Elec       q    Type
REMARK                         _______ _______ _______ _____ _____    ______ ____
ROOT
ATOM      1  C   UNL     1      34.663   5.540  35.988  0.00  0.00    +0.000 A 
ATOM      2  C   UNL     1      34.283   5.377  34.676  0.00  0.00    +0.000 A 
ATOM      3  C   UNL     1      33.914   4.202  34.117  0.00  0.00    +0.000 A 
ATOM      4  C   UNL     1      33.902   3.029  34.892  0.00  0.00    +0.000 A 
ATOM      5  N   UNL     1      33.566   1.837  34.466  0.00  0.00    +0.000 NA
ATOM      6  C   UNL     1      33.598   0.815  35.297  0.00  0.00    +0.000 A 
ATOM      7  S   UNL     1      34.120   1.537  36.749  0.00  0.00    +0.000 S 
ATOM      8  C   UNL     1      34.275   3.159  36.196  0.00  0.00    +0.000 A 
ATOM      9  C   UNL     1      34.653   4.384  36.759  0.00  0.00    +0.000 A 
ENDROOT
BRANCH   6  10
ATOM     10  C   UNL     1      33.248  -0.562  34.953  0.00  0.00    +0.000 A 
ATOM     11  C   UNL     1      33.913  -1.179  33.888  0.00  0.00    +0.000 A 
ATOM     12  C   UNL     1      33.600  -2.473  33.545  0.00  0.00    +0.000 A 
ATOM     13  C   UNL     1      32.642  -3.213  34.213  0.00  0.00    +0.000 A 
ATOM     14  N   UNL     1      32.320  -4.557  33.855  0.00  0.00    +0.000 NA
ATOM     15  C   UNL     1      32.000  -2.581  35.259  0.00  0.00    +0.000 A 
ATOM     16  C   UNL     1      32.308  -1.285  35.609  0.00  0.00    +0.000 A 
ENDBRANCH   6  10
BRANCH   1  17
ATOM     17  O   UNL     1      35.027   6.752  36.504  0.00  0.00    +0.000 OA
BRANCH  17  19
ATOM     18  C   UNL     1      35.312   9.026  35.931  0.00  0.00    +0.000 C 
ATOM     19  C   UNL     1      34.307   7.903  36.104  0.00  0.00    +0.000 C 
ENDBRANCH  17  19
ENDBRANCH   1  17
TORSDOF 3
ENDMDL
MODEL 5
REMARK VINA RESULT:      -5.9     18.244     19.530
REMARK  Name = 
REMARK  3 active torsions:
REMARK  status: ('A' for Active; 'I' for Inactive)
REMARK    1  A    between atoms: C_2  and  O_3
REMARK    2  A    between atoms: O_3  and  C_4
REMARK    3  A    between atoms: C_9  and  C_10
REMARK                            x       y       z     vdW  Elec       q    Type
REMARK                         _______ _______ _______ _____ _____    ______ ____
ROOT
ATOM      1  C   UNL     1      32.973  -0.679  34.675  0.00  0.00    +0.000 A 
ATOM      2  C   UNL     1      33.339  -0.440  35.979  0.00  0.00    +0.000 A 
ATOM      3  C   UNL     1      33.747   0.755  36.462  0.00  0.00    +0.000 A 
ATOM      4  C   UNL     1      33.820   1.870  35.607  0.00  0.00    +0.000 A 
ATOM      5  N   UNL     1      34.199   3.074  35.955  0.00  0.00    +0.000 NA
ATOM      6  C   UNL     1      34.224   4.035  35.055  0.00  0.00    +0.000 A 
ATOM      7  S   UNL     1      33.695   3.234  33.647  0.00  0.00    +0.000 S 
ATOM      8  C   UNL     1      33.464   1.663  34.308  0.00  0.00    +0.000 A 
ATOM      9  C   UNL     1      33.044   0.418  33.826  0.00  0.00    +0.000 A 
ENDROOT
BRANCH   6  10
ATOM     10  C   UNL     1      34.623   5.418  35.309  0.00  0.00    +0.000 A 
ATOM     11  C   UNL     1      35.946   5.794  35.053  0.00  0.00    +0.000 A 
ATOM     12  C   UNL     1      36.345   7.089  35.285  0.00  0.00    +0.000 A 
ATOM     13  C   UNL     1      35.488   8.061  35.769  0.00  0.00    +0.000 A 
ATOM     14  N   UNL     1      35.905   9.404  36.009  0.00  0.00    +0.000 NA
ATOM     15  C   UNL     1      34.189   7.664  36.013  0.00  0.00    +0.000 A 
ATOM     16  C   UNL     1      33.781   6.369  35.783  0.00  0.00    +0.000 A 
ENDBRANCH   6  10
BRANCH   1  17
ATOM     17  O   UNL     1      32.568  -1.910  34.238  0.00  0.00    +0.000 OA
BRANCH  17  19
ATOM     18  C   UNL     1      32.819  -4.198  33.705  0.00  0.00    +0.000 C 
ATOM     19  C   UNL     1      33.550  -2.902  34.001  0.00  0.00    +0.000 C 
ENDBRANCH  17  19
ENDBRANCH   1  17
TORSDOF 3
ENDMDL
MODEL 6
REMARK VINA RESULT:      -5.8     20.343     23.057
REMARK  Name = 
REMARK  3 active torsions:
REMARK  status: ('A' for Active; 'I' for Inactive)
REMARK    1  A    between atoms: C_2  and  O_3
REMARK    2  A    between atoms: O_3  and  C_4
REMARK    3  A    between atoms: C_9  and  C_10
REMARK                            x       y       z     vdW  Elec       q    Type
REMARK                         _______ _______ _______ _____ _____    ______ ____
ROOT
ATOM      1  C   UNL     1      29.499  25.890  21.021  0.00  0.00    +0.000 A 
ATOM      2  C   UNL     1      29.501  26.930  21.922  0.00  0.00    +0.000 A 
ATOM      3  C   UNL     1      29.106  26.838  23.212  0.00  0.00    +0.000 A 
ATOM      4  C   UNL     1      28.651  25.609  23.721  0.00  0.00    +0.000 A 
ATOM      5  N   UNL     1      28.243  25.394  24.947  0.00  0.00    +0.000 NA
ATOM      6  C   UNL     1      27.839  24.191  25.298  0.00  0.00    +0.000 A 
ATOM      7  S   UNL     1      28.030  23.303  23.857  0.00  0.00    +0.000 S 
ATOM      8  C   UNL     1      28.636  24.560  22.851  0.00  0.00    +0.000 A 
ATOM      9  C   UNL     1      29.049  24.673  21.518  0.00  0.00    +0.000 A 
ENDROOT
BRANCH   6  10
ATOM     10  C   UNL     1      27.363  23.817  26.629  0.00  0.00    +0.000 A 
ATOM     11  C   UNL     1      28.085  22.867  27.359  0.00  0.00    +0.000 A 
ATOM     12  C   UNL     1      27.655  22.499  28.613  0.00  0.00    +0.000 A 
ATOM     13  C   UNL     1      26.523  23.031  29.202  0.00  0.00    +0.000 A 
ATOM     14  N   UNL     1      26.080  22.646  30.503  0.00  0.00    +0.000 NA
ATOM     15  C   UNL     1      25.828  23.964  28.460  0.00  0.00    +0.000 A 
ATOM     16  C   UNL     1      26.252  24.339  27.204  0.00  0.00    +0.000 A 
ENDBRANCH   6  10
BRANCH   1  17
ATOM     17  O   UNL     1      29.908  26.038  19.726  0.00  0.00    +0.000 OA
BRANCH  17  19
ATOM     18  C   UNL     1      30.978  27.390  18.111  0.00  0.00    +0.000 C 
ATOM     19  C   UNL     1      29.871  27.329  19.145  0.00  0.00    +0.000 C 
ENDBRANCH  17  19
ENDBRANCH   1  17
TORSDOF 3
ENDMDL
MODEL 7
REMARK VINA RESULT:      -5.7      3.753      5.038
REMARK  Name = 
REMARK  3 active torsions:
REMARK  status: ('A' for Active; 'I' for Inactive)
REMARK    1  A    between atoms: C_2  and  O_3
REMARK    2  A    between atoms: O_3  and  C_4
REMARK    3  A    between atoms: C_9  and  C_10
REMARK                            x       y       z     vdW  Elec       q    Type
REMARK                         _______ _______ _______ _____ _____    ______ ____
ROOT
ATOM      1  C   UNL     1      21.559  10.593  38.422  0.00  0.00    +0.000 A 
ATOM      2  C   UNL     1      20.929   9.511  38.993  0.00  0.00    +0.000 A 
ATOM      3  C   UNL     1      19.591   9.327  39.034  0.00  0.00    +0.000 A 
ATOM      4  C   UNL     1      18.733  10.285  38.464  0.00  0.00    +0.000 A 
ATOM      5  N   UNL     1      17.425  10.220  38.441  0.00  0.00    +0.000 NA
ATOM      6  C   UNL     1      16.734  11.187  37.874  0.00  0.00    +0.000 A 
ATOM      7  S   UNL     1      17.955  12.249  37.342  0.00  0.00    +0.000 S 
ATOM      8  C   UNL     1      19.328  11.369  37.892  0.00  0.00    +0.000 A 
ATOM      9  C   UNL     1      20.716  11.543  37.858  0.00  0.00    +0.000 A 
ENDROOT
BRANCH   6  10
ATOM     10  C   UNL     1      15.276  11.238  37.778  0.00  0.00    +0.000 A 
ATOM     11  C   UNL     1      14.696  11.779  36.626  0.00  0.00    +0.000 A 
ATOM     12  C   UNL     1      13.326  11.837  36.514  0.00  0.00    +0.000 A 
ATOM     13  C   UNL     1      12.475  11.380  37.503  0.00  0.00    +0.000 A 
ATOM     14  N   UNL     1      11.054  11.442  37.383  0.00  0.00    +0.000 NA
ATOM     15  C   UNL     1      13.073  10.852  38.629  0.00  0.00    +0.000 A 
ATOM     16  C   UNL     1      14.443  10.789  38.749  0.00  0.00    +0.000 A 
ENDBRANCH   6  10
BRANCH   1  17
ATOM     17  O   UNL     1      22.919  10.731  38.409  0.00  0.00    +0.000 OA
BRANCH  17  19
ATOM     18  C   UNL     1      24.163   9.971  36.550  0.00  0.00    +0.000 C 
ATOM     19  C   UNL     1      23.706   9.644  37.959  0.00  0.00    +0.000 C 
ENDBRANCH  17  19
ENDBRANCH   1  17
TORSDOF 3
ENDMDL
MODEL 8
REMARK VINA RESULT:      -5.7     18.884     21.525
REMARK  Name = 
REMARK  3 active torsions:
REMARK  status: ('A' for Active; 'I' for Inactive)
REMARK    1  A    between atoms: C_2  and  O_3
REMARK    2  A    between atoms: O_3  and  C_4
REMARK    3  A    between atoms: C_9  and  C_10
REMARK                            x       y       z     vdW  Elec       q    Type
REMARK                         _______ _______ _______ _____ _____    ______ ____
ROOT
ATOM      1  C   UNL     1      33.689   2.928  33.907  0.00  0.00    +0.000 A 
ATOM      2  C   UNL     1      33.954   2.441  32.647  0.00  0.00    +0.000 A 
ATOM      3  C   UNL     1      34.044   1.131  32.327  0.00  0.00    +0.000 A 
ATOM      4  C   UNL     1      33.861   0.151  33.319  0.00  0.00    +0.000 A 
ATOM      5  N   UNL     1      33.923  -1.143  33.134  0.00  0.00    +0.000 NA
ATOM      6  C   UNL     1      33.732  -1.958  34.151  0.00  0.00    +0.000 A 
ATOM      7  S   UNL     1      33.450  -0.878  35.439  0.00  0.00    +0.000 S 
ATOM      8  C   UNL     1      33.597   0.604  34.577  0.00  0.00    +0.000 A 
ATOM      9  C   UNL     1      33.507   1.965  34.892  0.00  0.00    +0.000 A 
ENDROOT
BRANCH   6  10
ATOM     10  C   UNL     1      33.773  -3.418  34.082  0.00  0.00    +0.000 A 
ATOM     11  C   UNL     1      34.039  -4.139  35.250  0.00  0.00    +0.000 A 
ATOM     12  C   UNL     1      34.083  -5.513  35.209  0.00  0.00    +0.000 A 
ATOM     13  C   UNL     1      33.873  -6.234  34.047  0.00  0.00    +0.000 A 
ATOM     14  N   UNL     1      33.920  -7.660  34.008  0.00  0.00    +0.000 NA
ATOM     15  C   UNL     1      33.614  -5.498  32.909  0.00  0.00    +0.000 A 
ATOM     16  C   UNL     1      33.567  -4.122  32.942  0.00  0.00    +0.000 A 
ENDBRANCH   6  10
BRANCH   1  17
ATOM     17  O   UNL     1      33.609   4.266  34.178  0.00  0.00    +0.000 OA
BRANCH  17  19
ATOM     18  C   UNL     1      33.940   6.240  35.432  0.00  0.00    +0.000 C 
ATOM     19  C   UNL     1      34.292   4.770  35.311  0.00  0.00    +0.000 C 
ENDBRANCH  17  19
ENDBRANCH   1  17
TORSDOF 3
ENDMDL
MODEL 9
REMARK VINA RESULT:      -5.7      3.988      5.487
REMARK  Name = 
REMARK  3 active torsions:
REMARK  status: ('A' for Active; 'I' for Inactive)
REMARK    1  A    between atoms: C_2  and  O_3
REMARK    2  A    between atoms: O_3  and  C_4
REMARK    3  A    between atoms: C_9  and  C_10
REMARK                            x       y       z     vdW  Elec       q    Type
REMARK                         _______ _______ _______ _____ _____    ______ ____
ROOT
ATOM      1  C   UNL     1      23.326   9.178  38.198  0.00  0.00    +0.000 A 
ATOM      2  C   UNL     1      23.044   9.345  36.861  0.00  0.00    +0.000 A 
ATOM      3  C   UNL     1      21.856   9.759  36.367  0.00  0.00    +0.000 A 
ATOM      4  C   UNL     1      20.795  10.055  37.242  0.00  0.00    +0.000 A 
ATOM      5  N   UNL     1      19.603  10.462  36.886  0.00  0.00    +0.000 NA
ATOM      6  C   UNL     1      18.694  10.705  37.808  0.00  0.00    +0.000 A 
ATOM      7  S   UNL     1      19.530  10.352  39.250  0.00  0.00    +0.000 S 
ATOM      8  C   UNL     1      21.045   9.897  38.572  0.00  0.00    +0.000 A 
ATOM      9  C   UNL     1      22.281   9.468  39.067  0.00  0.00    +0.000 A 
ENDROOT
BRANCH   6  10
ATOM     10  C   UNL     1      17.331  11.164  37.547  0.00  0.00    +0.000 A 
ATOM     11  C   UNL     1      17.128  12.155  36.581  0.00  0.00    +0.000 A 
ATOM     12  C   UNL     1      15.854  12.603  36.320  0.00  0.00    +0.000 A 
ATOM     13  C   UNL     1      14.740  12.114  36.976  0.00  0.00    +0.000 A 
ATOM     14  N   UNL     1      13.419  12.581  36.703  0.00  0.00    +0.000 NA
ATOM     15  C   UNL     1      14.968  11.138  37.925  0.00  0.00    +0.000 A 
ATOM     16  C   UNL     1      16.240  10.683  38.193  0.00  0.00    +0.000 A 
ENDBRANCH   6  10
BRANCH   1  17
ATOM     17  O   UNL     1      24.546   8.755  38.646  0.00  0.00    +0.000 OA
BRANCH  17  19
ATOM     18  C   UNL     1      26.365  10.205  39.059  0.00  0.00    +0.000 C 
ATOM     19  C   UNL     1      25.711   9.288  38.043  0.00  0.00    +0.000 C 
ENDBRANCH  17  19
ENDBRANCH   1  17
TORSDOF 3
ENDMDL
MODEL 10
REMARK VINA RESULT:      -5.6     18.370     19.604
REMARK  Name = 
REMARK  3 active torsions:
REMARK  status: ('A' for Active; 'I' for Inactive)
REMARK    1  A    between atoms: C_2  and  O_3
REMARK    2  A    between atoms: O_3  and  C_4
REMARK    3  A    between atoms: C_9  and  C_10
REMARK                            x       y       z     vdW  Elec       q    Type
REMARK                         _______ _______ _______ _____ _____    ______ ____
ROOT
ATOM      1  C   UNL     1      31.256  22.432  30.566  0.00  0.00    +0.000 A 
ATOM      2  C   UNL     1      31.999  22.006  29.489  0.00  0.00    +0.000 A 
ATOM      3  C   UNL     1      31.575  22.011  28.205  0.00  0.00    +0.000 A 
ATOM      4  C   UNL     1      30.284  22.477  27.894  0.00  0.00    +0.000 A 
ATOM      5  N   UNL     1      29.762  22.531  26.694  0.00  0.00    +0.000 NA
ATOM      6  C   UNL     1      28.537  22.990  26.537  0.00  0.00    +0.000 A 
ATOM      7  S   UNL     1      28.078  23.369  28.133  0.00  0.00    +0.000 S 
ATOM      8  C   UNL     1      29.524  22.904  28.941  0.00  0.00    +0.000 A 
ATOM      9  C   UNL     1      29.980  22.892  30.264  0.00  0.00    +0.000 A 
ENDROOT
BRANCH   6  10
ATOM     10  C   UNL     1      27.837  23.104  25.258  0.00  0.00    +0.000 A 
ATOM     11  C   UNL     1      28.592  23.270  24.092  0.00  0.00    +0.000 A 
ATOM     12  C   UNL     1      27.955  23.381  22.878  0.00  0.00    +0.000 A 
ATOM     13  C   UNL     1      26.579  23.336  22.747  0.00  0.00    +0.000 A 
ATOM     14  N   UNL     1      25.923  23.451  21.485  0.00  0.00    +0.000 NA
ATOM     15  C   UNL     1      25.859  23.173  23.913  0.00  0.00    +0.000 A 
ATOM     16  C   UNL     1      26.489  23.060  25.133  0.00  0.00    +0.000 A 
ENDBRANCH   6  10
BRANCH   1  17
ATOM     17  O   UNL     1      31.733  22.404  31.846  0.00  0.00    +0.000 OA
BRANCH  17  19
ATOM     18  C   UNL     1      30.543  21.402  33.623  0.00  0.00    +0.000 C 
ATOM     19  C   UNL     1      31.628  21.201  32.584  0.00  0.00    +0.000 C 
ENDBRANCH  17  19
ENDBRANCH   1  17
TORSDOF 3
ENDMDL
