MODEL 1
REMARK VINA RESULT:      -8.3      0.000      0.000
REMARK  Name = 
REMARK  6 active torsions:
REMARK  status: ('A' for Active; 'I' for Inactive)
REMARK    1  A    between atoms: C_2  and  O_3
REMARK    2  A    between atoms: O_3  and  C_4
REMARK    3  A    between atoms: C_8  and  C_9
REMARK    4  A    between atoms: C_19  and  O_20
REMARK    5  A    between atoms: O_20  and  C_21
REMARK    6  A    between atoms: C_21  and  C_22
REMARK                            x       y       z     vdW  Elec       q    Type
REMARK                         _______ _______ _______ _____ _____    ______ ____
ROOT
ATOM      1  C   UNL     1      37.816  -1.202  13.685  0.00  0.00    +0.000 C 
ATOM      2  N   UNL     1      39.278  -0.929  13.098  0.00  0.00    +0.000 NA
ATOM      3  C   UNL     1      40.165  -0.728  14.141  0.00  0.00    +0.000 C 
ATOM      4  C   UNL     1      40.062   0.695  14.629  0.00  0.00    +0.000 C 
ATOM      5  C   UNL     1      38.622   1.057  14.569  0.00  0.00    +0.000 A 
ATOM      6  C   UNL     1      37.605   0.322  14.184  0.00  0.00    +0.000 A 
ATOM      7  N   UNL     1      36.452   0.977  14.261  0.00  0.00    +0.000 NA
ATOM      8  C   UNL     1      36.736   2.210  14.722  0.00  0.00    +0.000 A 
ATOM      9  C   UNL     1      35.968   3.319  15.006  0.00  0.00    +0.000 A 
ATOM     10  C   UNL     1      36.526   4.478  15.478  0.00  0.00    +0.000 A 
ATOM     11  C   UNL     1      37.887   4.591  15.693  0.00  0.00    +0.000 A 
ATOM     12  C   UNL     1      38.657   3.470  15.406  0.00  0.00    +0.000 A 
ATOM     13  C   UNL     1      38.094   2.296  14.927  0.00  0.00    +0.000 A 
ENDROOT
BRANCH   1  18
ATOM     14  C   UNL     1      38.224  -1.734  17.472  0.00  0.00    +0.000 A 
ATOM     15  C   UNL     1      38.946  -2.896  17.483  0.00  0.00    +0.000 A 
ATOM     16  C   UNL     1      39.329  -3.553  16.337  0.00  0.00    +0.000 A 
ATOM     17  C   UNL     1      38.942  -2.967  15.117  0.00  0.00    +0.000 A 
ATOM     18  C   UNL     1      38.224  -1.812  15.094  0.00  0.00    +0.000 A 
ATOM     19  C   UNL     1      37.861  -1.190  16.236  0.00  0.00    +0.000 A 
BRANCH  14  20
ATOM     20  O   UNL     1      37.840  -1.078  18.658  0.00  0.00    +0.000 OA
BRANCH  20  22
ATOM     21  C   UNL     1      35.611  -0.264  19.151  0.00  0.00    +0.000 C 
ATOM     22  C   UNL     1      36.619  -1.406  19.255  0.00  0.00    +0.000 C 
ENDBRANCH  20  22
ENDBRANCH  14  20
ENDBRANCH   1  18
BRANCH  11  23
ATOM     23  O   UNL     1      38.450   5.756  16.167  0.00  0.00    +0.000 OA
BRANCH  23  24
ATOM     24  C   UNL     1      38.336   6.252  17.467  0.00  0.00    +0.000 C 
BRANCH  24  25
ATOM     25  C   UNL     1      39.631   6.354  18.177  0.00  0.00    +0.000 A 
ATOM     26  C   UNL     1      40.841   6.406  17.491  0.00  0.00    +0.000 A 
ATOM     27  C   UNL     1      42.033   6.503  18.176  0.00  0.00    +0.000 A 
ATOM     28  C   UNL     1      42.080   6.553  19.556  0.00  0.00    +0.000 A 
ATOM     29  C   UNL     1      40.888   6.502  20.228  0.00  0.00    +0.000 A 
ATOM     30  C   UNL     1      39.692   6.405  19.541  0.00  0.00    +0.000 A 
ENDBRANCH  24  25
ENDBRANCH  23  24
ENDBRANCH  11  23
TORSDOF 6
ENDMDL
MODEL 2
REMARK VINA RESULT:      -8.1      4.055      6.689
REMARK  Name = 
REMARK  6 active torsions:
REMARK  status: ('A' for Active; 'I' for Inactive)
REMARK    1  A    between atoms: C_2  and  O_3
REMARK    2  A    between atoms: O_3  and  C_4
REMARK    3  A    between atoms: C_8  and  C_9
REMARK    4  A    between atoms: C_19  and  O_20
REMARK    5  A    between atoms: O_20  and  C_21
REMARK    6  A    between atoms: C_21  and  C_22
REMARK                            x       y       z     vdW  Elec       q    Type
REMARK                         _______ _______ _______ _____ _____    ______ ____
ROOT
ATOM      1  C   UNL     1      36.318  -3.671  15.232  0.00  0.00    +0.000 C 
ATOM      2  N   UNL     1      36.988  -4.240  16.568  0.00  0.00    +0.000 NA
ATOM      3  C   UNL     1      37.449  -3.187  17.338  0.00  0.00    +0.000 C 
ATOM      4  C   UNL     1      38.790  -2.729  16.824  0.00  0.00    +0.000 C 
ATOM      5  C   UNL     1      38.725  -2.820  15.341  0.00  0.00    +0.000 A 
ATOM      6  C   UNL     1      37.725  -3.207  14.585  0.00  0.00    +0.000 A 
ATOM      7  N   UNL     1      38.025  -3.162  13.291  0.00  0.00    +0.000 NA
ATOM      8  C   UNL     1      39.294  -2.721  13.203  0.00  0.00    +0.000 A 
ATOM      9  C   UNL     1      40.143  -2.472  12.144  0.00  0.00    +0.000 A 
ATOM     10  C   UNL     1      41.419  -2.014  12.338  0.00  0.00    +0.000 A 
ATOM     11  C   UNL     1      41.919  -1.780  13.605  0.00  0.00    +0.000 A 
ATOM     12  C   UNL     1      41.060  -2.032  14.669  0.00  0.00    +0.000 A 
ATOM     13  C   UNL     1      39.767  -2.496  14.474  0.00  0.00    +0.000 A 
ENDROOT
BRANCH   1  18
ATOM     14  C   UNL     1      35.928   0.132  15.649  0.00  0.00    +0.000 A 
ATOM     15  C   UNL     1      35.074   0.178  16.718  0.00  0.00    +0.000 A 
ATOM     16  C   UNL     1      34.592  -0.948  17.344  0.00  0.00    +0.000 A 
ATOM     17  C   UNL     1      35.023  -2.186  16.829  0.00  0.00    +0.000 A 
ATOM     18  C   UNL     1      35.870  -2.244  15.766  0.00  0.00    +0.000 A 
ATOM     19  C   UNL     1      36.326  -1.121  15.173  0.00  0.00    +0.000 A 
BRANCH  14  20
ATOM     20  O   UNL     1      36.408   1.298  15.022  0.00  0.00    +0.000 OA
BRANCH  20  22
ATOM     21  C   UNL     1      38.781   1.226  14.536  0.00  0.00    +0.000 C 
ATOM     22  C   UNL     1      37.354   1.183  13.998  0.00  0.00    +0.000 C 
ENDBRANCH  20  22
ENDBRANCH  14  20
ENDBRANCH   1  18
BRANCH  11  23
ATOM     23  O   UNL     1      43.202  -1.321  13.803  0.00  0.00    +0.000 OA
BRANCH  23  24
ATOM     24  C   UNL     1      44.313  -2.102  14.129  0.00  0.00    +0.000 C 
BRANCH  24  25
ATOM     25  C   UNL     1      44.955  -1.714  15.405  0.00  0.00    +0.000 A 
ATOM     26  C   UNL     1      45.601  -2.645  16.213  0.00  0.00    +0.000 A 
ATOM     27  C   UNL     1      46.194  -2.257  17.396  0.00  0.00    +0.000 A 
ATOM     28  C   UNL     1      46.174  -0.944  17.827  0.00  0.00    +0.000 A 
ATOM     29  C   UNL     1      45.538  -0.031  17.029  0.00  0.00    +0.000 A 
ATOM     30  C   UNL     1      44.944  -0.420  15.843  0.00  0.00    +0.000 A 
ENDBRANCH  24  25
ENDBRANCH  23  24
ENDBRANCH  11  23
TORSDOF 6
ENDMDL
MODEL 3
REMARK VINA RESULT:      -7.8      4.352      6.597
REMARK  Name = 
REMARK  6 active torsions:
REMARK  status: ('A' for Active; 'I' for Inactive)
REMARK    1  A    between atoms: C_2  and  O_3
REMARK    2  A    between atoms: O_3  and  C_4
REMARK    3  A    between atoms: C_8  and  C_9
REMARK    4  A    between atoms: C_19  and  O_20
REMARK    5  A    between atoms: O_20  and  C_21
REMARK    6  A    between atoms: C_21  and  C_22
REMARK                            x       y       z     vdW  Elec       q    Type
REMARK                         _______ _______ _______ _____ _____    ______ ____
ROOT
ATOM      1  C   UNL     1      37.041  -3.169  14.225  0.00  0.00    +0.000 C 
ATOM      2  N   UNL     1      37.462  -3.709  15.669  0.00  0.00    +0.000 NA
ATOM      3  C   UNL     1      37.883  -2.651  16.455  0.00  0.00    +0.000 C 
ATOM      4  C   UNL     1      39.316  -2.314  16.130  0.00  0.00    +0.000 C 
ATOM      5  C   UNL     1      39.464  -2.479  14.660  0.00  0.00    +0.000 A 
ATOM      6  C   UNL     1      38.560  -2.837  13.778  0.00  0.00    +0.000 A 
ATOM      7  N   UNL     1      39.050  -2.882  12.544  0.00  0.00    +0.000 NA
ATOM      8  C   UNL     1      40.348  -2.534  12.629  0.00  0.00    +0.000 A 
ATOM      9  C   UNL     1      41.359  -2.400  11.701  0.00  0.00    +0.000 A 
ATOM     10  C   UNL     1      42.624  -2.022  12.066  0.00  0.00    +0.000 A 
ATOM     11  C   UNL     1      42.948  -1.755  13.383  0.00  0.00    +0.000 A 
ATOM     12  C   UNL     1      41.925  -1.890  14.315  0.00  0.00    +0.000 A 
ATOM     13  C   UNL     1      40.643  -2.274  13.947  0.00  0.00    +0.000 A 
ENDROOT
BRANCH   1  18
ATOM     14  C   UNL     1      35.499  -0.157  16.053  0.00  0.00    +0.000 A 
ATOM     15  C   UNL     1      35.948   0.868  15.266  0.00  0.00    +0.000 A 
ATOM     16  C   UNL     1      36.735   0.673  14.155  0.00  0.00    +0.000 A 
ATOM     17  C   UNL     1      37.070  -0.661  13.848  0.00  0.00    +0.000 A 
ATOM     18  C   UNL     1      36.629  -1.688  14.624  0.00  0.00    +0.000 A 
ATOM     19  C   UNL     1      35.858  -1.464  15.709  0.00  0.00    +0.000 A 
BRANCH  14  20
ATOM     20  O   UNL     1      34.694   0.066  17.188  0.00  0.00    +0.000 OA
BRANCH  20  22
ATOM     21  C   UNL     1      36.101  -0.037  19.158  0.00  0.00    +0.000 C 
ATOM     22  C   UNL     1      34.954  -0.650  18.360  0.00  0.00    +0.000 C 
ENDBRANCH  20  22
ENDBRANCH  14  20
ENDBRANCH   1  18
BRANCH  11  23
ATOM     23  O   UNL     1      44.219  -1.374  13.752  0.00  0.00    +0.000 OA
BRANCH  23  24
ATOM     24  C   UNL     1      45.165  -2.180  14.389  0.00  0.00    +0.000 C 
BRANCH  24  25
ATOM     25  C   UNL     1      45.490  -1.737  15.764  0.00  0.00    +0.000 A 
ATOM     26  C   UNL     1      45.333  -0.413  16.163  0.00  0.00    +0.000 A 
ATOM     27  C   UNL     1      45.640  -0.026  17.450  0.00  0.00    +0.000 A 
ATOM     28  C   UNL     1      46.111  -0.924  18.390  0.00  0.00    +0.000 A 
ATOM     29  C   UNL     1      46.263  -2.226  17.993  0.00  0.00    +0.000 A 
ATOM     30  C   UNL     1      45.955  -2.613  16.703  0.00  0.00    +0.000 A 
ENDBRANCH  24  25
ENDBRANCH  23  24
ENDBRANCH  11  23
TORSDOF 6
ENDMDL
MODEL 4
REMARK VINA RESULT:      -7.7      2.894      7.922
REMARK  Name = 
REMARK  6 active torsions:
REMARK  status: ('A' for Active; 'I' for Inactive)
REMARK    1  A    between atoms: C_2  and  O_3
REMARK    2  A    between atoms: O_3  and  C_4
REMARK    3  A    between atoms: C_8  and  C_9
REMARK    4  A    between atoms: C_19  and  O_20
REMARK    5  A    between atoms: O_20  and  C_21
REMARK    6  A    between atoms: C_21  and  C_22
REMARK                            x       y       z     vdW  Elec       q    Type
REMARK                         _______ _______ _______ _____ _____    ______ ____
ROOT
ATOM      1  C   UNL     1      38.949   7.833  17.606  0.00  0.00    +0.000 C 
ATOM      2  N   UNL     1      38.613   7.145  19.009  0.00  0.00    +0.000 NA
ATOM      3  C   UNL     1      39.453   6.064  19.207  0.00  0.00    +0.000 C 
ATOM      4  C   UNL     1      38.926   4.866  18.458  0.00  0.00    +0.000 C 
ATOM      5  C   UNL     1      38.380   5.380  17.174  0.00  0.00    +0.000 A 
ATOM      6  C   UNL     1      38.346   6.614  16.731  0.00  0.00    +0.000 A 
ATOM      7  N   UNL     1      37.779   6.704  15.533  0.00  0.00    +0.000 NA
ATOM      8  C   UNL     1      37.423   5.456  15.177  0.00  0.00    +0.000 A 
ATOM      9  C   UNL     1      36.807   4.923  14.064  0.00  0.00    +0.000 A 
ATOM     10  C   UNL     1      36.557   3.580  13.955  0.00  0.00    +0.000 A 
ATOM     11  C   UNL     1      36.910   2.694  14.955  0.00  0.00    +0.000 A 
ATOM     12  C   UNL     1      37.532   3.236  16.075  0.00  0.00    +0.000 A 
ATOM     13  C   UNL     1      37.786   4.595  16.187  0.00  0.00    +0.000 A 
ENDROOT
BRANCH   1  18
ATOM     14  C   UNL     1      42.669   7.268  18.403  0.00  0.00    +0.000 A 
ATOM     15  C   UNL     1      43.089   6.697  17.233  0.00  0.00    +0.000 A 
ATOM     16  C   UNL     1      42.252   6.466  16.166  0.00  0.00    +0.000 A 
ATOM     17  C   UNL     1      40.907   6.852  16.328  0.00  0.00    +0.000 A 
ATOM     18  C   UNL     1      40.478   7.421  17.486  0.00  0.00    +0.000 A 
ATOM     19  C   UNL     1      41.324   7.634  18.516  0.00  0.00    +0.000 A 
BRANCH  14  20
ATOM     20  O   UNL     1      43.543   7.494  19.484  0.00  0.00    +0.000 OA
BRANCH  20  22
ATOM     21  C   UNL     1      43.206   6.022  21.378  0.00  0.00    +0.000 C 
ATOM     22  C   UNL     1      43.049   7.421  20.789  0.00  0.00    +0.000 C 
ENDBRANCH  20  22
ENDBRANCH  14  20
ENDBRANCH   1  18
BRANCH  11  23
ATOM     23  O   UNL     1      36.659   1.345  14.847  0.00  0.00    +0.000 OA
BRANCH  23  24
ATOM     24  C   UNL     1      35.629   0.648  15.482  0.00  0.00    +0.000 C 
BRANCH  24  25
ATOM     25  C   UNL     1      36.040   0.010  16.753  0.00  0.00    +0.000 A 
ATOM     26  C   UNL     1      37.021  -0.977  16.794  0.00  0.00    +0.000 A 
ATOM     27  C   UNL     1      37.388  -1.553  17.990  0.00  0.00    +0.000 A 
ATOM     28  C   UNL     1      36.808  -1.181  19.189  0.00  0.00    +0.000 A 
ATOM     29  C   UNL     1      35.844  -0.209  19.145  0.00  0.00    +0.000 A 
ATOM     30  C   UNL     1      35.476   0.368  17.944  0.00  0.00    +0.000 A 
ENDBRANCH  24  25
ENDBRANCH  23  24
ENDBRANCH  11  23
TORSDOF 6
ENDMDL
MODEL 5
REMARK VINA RESULT:      -7.7     22.701     26.414
REMARK  Name = 
REMARK  6 active torsions:
REMARK  status: ('A' for Active; 'I' for Inactive)
REMARK    1  A    between atoms: C_2  and  O_3
REMARK    2  A    between atoms: O_3  and  C_4
REMARK    3  A    between atoms: C_8  and  C_9
REMARK    4  A    between atoms: C_19  and  O_20
REMARK    5  A    between atoms: O_20  and  C_21
REMARK    6  A    between atoms: C_21  and  C_22
REMARK                            x       y       z     vdW  Elec       q    Type
REMARK                         _______ _______ _______ _____ _____    ______ ____
ROOT
ATOM      1  C   UNL     1      11.574   0.012  28.284  0.00  0.00    +0.000 C 
ATOM      2  N   UNL     1      11.201   0.392  26.777  0.00  0.00    +0.000 NA
ATOM      3  C   UNL     1      11.462  -0.686  25.949  0.00  0.00    +0.000 C 
ATOM      4  C   UNL     1      12.930  -0.723  25.609  0.00  0.00    +0.000 C 
ATOM      5  C   UNL     1      13.658  -0.316  26.840  0.00  0.00    +0.000 A 
ATOM      6  C   UNL     1      13.169   0.012  28.013  0.00  0.00    +0.000 A 
ATOM      7  N   UNL     1      14.120   0.324  28.886  0.00  0.00    +0.000 NA
ATOM      8  C   UNL     1      15.295   0.192  28.243  0.00  0.00    +0.000 A 
ATOM      9  C   UNL     1      16.611   0.372  28.618  0.00  0.00    +0.000 A 
ATOM     10  C   UNL     1      17.643   0.162  27.742  0.00  0.00    +0.000 A 
ATOM     11  C   UNL     1      17.416  -0.242  26.439  0.00  0.00    +0.000 A 
ATOM     12  C   UNL     1      16.089  -0.423  26.066  0.00  0.00    +0.000 A 
ATOM     13  C   UNL     1      15.043  -0.210  26.952  0.00  0.00    +0.000 A 
ENDROOT
BRANCH   1  18
ATOM     14  C   UNL     1      12.085  -3.781  28.666  0.00  0.00    +0.000 A 
ATOM     15  C   UNL     1      10.961  -4.247  28.038  0.00  0.00    +0.000 A 
ATOM     16  C   UNL     1      10.014  -3.420  27.481  0.00  0.00    +0.000 A 
ATOM     17  C   UNL     1      10.252  -2.035  27.581  0.00  0.00    +0.000 A 
ATOM     18  C   UNL     1      11.365  -1.561  28.203  0.00  0.00    +0.000 A 
ATOM     19  C   UNL     1      12.276  -2.398  28.741  0.00  0.00    +0.000 A 
BRANCH  14  20
ATOM     20  O   UNL     1      13.041  -4.647  29.231  0.00  0.00    +0.000 OA
BRANCH  20  22
ATOM     21  C   UNL     1      13.876  -6.780  30.022  0.00  0.00    +0.000 C 
ATOM     22  C   UNL     1      12.703  -5.985  29.456  0.00  0.00    +0.000 C 
ENDBRANCH  20  22
ENDBRANCH  14  20
ENDBRANCH   1  18
BRANCH  11  23
ATOM     23  O   UNL     1      18.453  -0.453  25.557  0.00  0.00    +0.000 OA
BRANCH  23  24
ATOM     24  C   UNL     1      18.997   0.494  24.688  0.00  0.00    +0.000 C 
BRANCH  24  25
ATOM     25  C   UNL     1      19.761  -0.100  23.568  0.00  0.00    +0.000 A 
ATOM     26  C   UNL     1      19.798  -1.475  23.354  0.00  0.00    +0.000 A 
ATOM     27  C   UNL     1      20.515  -2.003  22.303  0.00  0.00    +0.000 A 
ATOM     28  C   UNL     1      21.220  -1.203  21.424  0.00  0.00    +0.000 A 
ATOM     29  C   UNL     1      21.181   0.149  21.637  0.00  0.00    +0.000 A 
ATOM     30  C   UNL     1      20.462   0.679  22.692  0.00  0.00    +0.000 A 
ENDBRANCH  24  25
ENDBRANCH  23  24
ENDBRANCH  11  23
TORSDOF 6
ENDMDL
MODEL 6
REMARK VINA RESULT:      -7.6     22.890     26.587
REMARK  Name = 
REMARK  6 active torsions:
REMARK  status: ('A' for Active; 'I' for Inactive)
REMARK    1  A    between atoms: C_2  and  O_3
REMARK    2  A    between atoms: O_3  and  C_4
REMARK    3  A    between atoms: C_8  and  C_9
REMARK    4  A    between atoms: C_19  and  O_20
REMARK    5  A    between atoms: O_20  and  C_21
REMARK    6  A    between atoms: C_21  and  C_22
REMARK                            x       y       z     vdW  Elec       q    Type
REMARK                         _______ _______ _______ _____ _____    ______ ____
ROOT
ATOM      1  C   UNL     1      11.566  -0.242  28.299  0.00  0.00    +0.000 C 
ATOM      2  N   UNL     1      11.181   0.231  26.821  0.00  0.00    +0.000 NA
ATOM      3  C   UNL     1      11.520  -0.760  25.916  0.00  0.00    +0.000 C 
ATOM      4  C   UNL     1      12.990  -0.673  25.594  0.00  0.00    +0.000 C 
ATOM      5  C   UNL     1      13.679  -0.317  26.863  0.00  0.00    +0.000 A 
ATOM      6  C   UNL     1      13.159  -0.116  28.051  0.00  0.00    +0.000 A 
ATOM      7  N   UNL     1      14.080   0.189  28.958  0.00  0.00    +0.000 NA
ATOM      8  C   UNL     1      15.267   0.185  28.323  0.00  0.00    +0.000 A 
ATOM      9  C   UNL     1      16.564   0.421  28.729  0.00  0.00    +0.000 A 
ATOM     10  C   UNL     1      17.615   0.348  27.854  0.00  0.00    +0.000 A 
ATOM     11  C   UNL     1      17.428   0.035  26.521  0.00  0.00    +0.000 A 
ATOM     12  C   UNL     1      16.119  -0.203  26.116  0.00  0.00    +0.000 A 
ATOM     13  C   UNL     1      15.052  -0.130  27.001  0.00  0.00    +0.000 A 
ENDROOT
BRANCH   1  18
ATOM     14  C   UNL     1      10.344  -3.728  27.229  0.00  0.00    +0.000 A 
ATOM     15  C   UNL     1      11.328  -4.512  27.767  0.00  0.00    +0.000 A 
ATOM     16  C   UNL     1      12.393  -4.002  28.472  0.00  0.00    +0.000 A 
ATOM     17  C   UNL     1      12.434  -2.603  28.624  0.00  0.00    +0.000 A 
ATOM     18  C   UNL     1      11.462  -1.813  28.093  0.00  0.00    +0.000 A 
ATOM     19  C   UNL     1      10.428  -2.343  27.406  0.00  0.00    +0.000 A 
BRANCH  14  20
ATOM     20  O   UNL     1       9.261  -4.271  26.510  0.00  0.00    +0.000 OA
BRANCH  20  22
ATOM     21  C   UNL     1      10.261  -4.146  24.306  0.00  0.00    +0.000 C 
ATOM     22  C   UNL     1       9.048  -3.867  25.189  0.00  0.00    +0.000 C 
ENDBRANCH  20  22
ENDBRANCH  14  20
ENDBRANCH   1  18
BRANCH  11  23
ATOM     23  O   UNL     1      18.483  -0.038  25.640  0.00  0.00    +0.000 OA
BRANCH  23  24
ATOM     24  C   UNL     1      19.032  -1.209  25.111  0.00  0.00    +0.000 C 
BRANCH  24  25
ATOM     25  C   UNL     1      19.702  -1.011  23.806  0.00  0.00    +0.000 A 
ATOM     26  C   UNL     1      19.973  -2.077  22.953  0.00  0.00    +0.000 A 
ATOM     27  C   UNL     1      20.596  -1.867  21.742  0.00  0.00    +0.000 A 
ATOM     28  C   UNL     1      20.974  -0.605  21.324  0.00  0.00    +0.000 A 
ATOM     29  C   UNL     1      20.706   0.441  22.166  0.00  0.00    +0.000 A 
ATOM     30  C   UNL     1      20.081   0.230  23.381  0.00  0.00    +0.000 A 
ENDBRANCH  24  25
ENDBRANCH  23  24
ENDBRANCH  11  23
TORSDOF 6
ENDMDL
MODEL 7
REMARK VINA RESULT:      -7.6     22.585     26.361
REMARK  Name = 
REMARK  6 active torsions:
REMARK  status: ('A' for Active; 'I' for Inactive)
REMARK    1  A    between atoms: C_2  and  O_3
REMARK    2  A    between atoms: O_3  and  C_4
REMARK    3  A    between atoms: C_8  and  C_9
REMARK    4  A    between atoms: C_19  and  O_20
REMARK    5  A    between atoms: O_20  and  C_21
REMARK    6  A    between atoms: C_21  and  C_22
REMARK                            x       y       z     vdW  Elec       q    Type
REMARK                         _______ _______ _______ _____ _____    ______ ____
ROOT
ATOM      1  C   UNL     1      11.759   0.565  27.912  0.00  0.00    +0.000 C 
ATOM      2  N   UNL     1      11.227  -0.549  26.898  0.00  0.00    +0.000 NA
ATOM      3  C   UNL     1      11.682  -1.794  27.297  0.00  0.00    +0.000 C 
ATOM      4  C   UNL     1      13.099  -1.994  26.821  0.00  0.00    +0.000 C 
ATOM      5  C   UNL     1      13.780  -0.680  26.964  0.00  0.00    +0.000 A 
ATOM      6  C   UNL     1      13.293   0.453  27.414  0.00  0.00    +0.000 A 
ATOM      7  N   UNL     1      14.194   1.429  27.398  0.00  0.00    +0.000 NA
ATOM      8  C   UNL     1      15.331   0.900  26.909  0.00  0.00    +0.000 A 
ATOM      9  C   UNL     1      16.589   1.411  26.662  0.00  0.00    +0.000 A 
ATOM     10  C   UNL     1      17.592   0.633  26.148  0.00  0.00    +0.000 A 
ATOM     11  C   UNL     1      17.393  -0.703  25.852  0.00  0.00    +0.000 A 
ATOM     12  C   UNL     1      16.125  -1.214  26.104  0.00  0.00    +0.000 A 
ATOM     13  C   UNL     1      15.107  -0.427  26.625  0.00  0.00    +0.000 A 
ENDROOT
BRANCH   1  18
ATOM     14  C   UNL     1      13.141  -1.029  31.128  0.00  0.00    +0.000 A 
ATOM     15  C   UNL     1      12.127  -1.898  31.430  0.00  0.00    +0.000 A 
ATOM     16  C   UNL     1      10.993  -2.024  30.663  0.00  0.00    +0.000 A 
ATOM     17  C   UNL     1      10.911  -1.202  29.522  0.00  0.00    +0.000 A 
ATOM     18  C   UNL     1      11.912  -0.335  29.212  0.00  0.00    +0.000 A 
ATOM     19  C   UNL     1      13.014  -0.233  29.985  0.00  0.00    +0.000 A 
BRANCH  14  20
ATOM     20  O   UNL     1      14.294  -0.915  31.929  0.00  0.00    +0.000 OA
BRANCH  20  22
ATOM     21  C   UNL     1      15.598  -1.190  33.953  0.00  0.00    +0.000 C 
ATOM     22  C   UNL     1      14.252  -1.359  33.254  0.00  0.00    +0.000 C 
ENDBRANCH  20  22
ENDBRANCH  14  20
ENDBRANCH   1  18
BRANCH  11  23
ATOM     23  O   UNL     1      18.401  -1.486  25.335  0.00  0.00    +0.000 OA
BRANCH  23  24
ATOM     24  C   UNL     1      19.710  -1.075  25.077  0.00  0.00    +0.000 C 
BRANCH  24  25
ATOM     25  C   UNL     1      19.948  -0.709  23.663  0.00  0.00    +0.000 A 
ATOM     26  C   UNL     1      19.857   0.608  23.222  0.00  0.00    +0.000 A 
ATOM     27  C   UNL     1      20.085   0.924  21.900  0.00  0.00    +0.000 A 
ATOM     28  C   UNL     1      20.412  -0.040  20.965  0.00  0.00    +0.000 A 
ATOM     29  C   UNL     1      20.501  -1.334  21.402  0.00  0.00    +0.000 A 
ATOM     30  C   UNL     1      20.272  -1.651  22.728  0.00  0.00    +0.000 A 
ENDBRANCH  24  25
ENDBRANCH  23  24
ENDBRANCH  11  23
TORSDOF 6
ENDMDL
MODEL 8
REMARK VINA RESULT:      -7.3      3.260      6.604
REMARK  Name = 
REMARK  6 active torsions:
REMARK  status: ('A' for Active; 'I' for Inactive)
REMARK    1  A    between atoms: C_2  and  O_3
REMARK    2  A    between atoms: O_3  and  C_4
REMARK    3  A    between atoms: C_8  and  C_9
REMARK    4  A    between atoms: C_19  and  O_20
REMARK    5  A    between atoms: O_20  and  C_21
REMARK    6  A    between atoms: C_21  and  C_22
REMARK                            x       y       z     vdW  Elec       q    Type
REMARK                         _______ _______ _______ _____ _____    ______ ____
ROOT
ATOM      1  C   UNL     1      35.765  -2.649  15.604  0.00  0.00    +0.000 C 
ATOM      2  N   UNL     1      36.308  -3.152  17.020  0.00  0.00    +0.000 NA
ATOM      3  C   UNL     1      37.019  -2.134  17.631  0.00  0.00    +0.000 C 
ATOM      4  C   UNL     1      38.420  -2.088  17.076  0.00  0.00    +0.000 C 
ATOM      5  C   UNL     1      38.307  -2.383  15.624  0.00  0.00    +0.000 A 
ATOM      6  C   UNL     1      37.230  -2.632  14.917  0.00  0.00    +0.000 A 
ATOM      7  N   UNL     1      37.507  -2.854  13.637  0.00  0.00    +0.000 NA
ATOM      8  C   UNL     1      38.842  -2.743  13.504  0.00  0.00    +0.000 A 
ATOM      9  C   UNL     1      39.704  -2.863  12.434  0.00  0.00    +0.000 A 
ATOM     10  C   UNL     1      41.056  -2.695  12.579  0.00  0.00    +0.000 A 
ATOM     11  C   UNL     1      41.622  -2.398  13.805  0.00  0.00    +0.000 A 
ATOM     12  C   UNL     1      40.748  -2.277  14.880  0.00  0.00    +0.000 A 
ATOM     13  C   UNL     1      39.379  -2.447  14.735  0.00  0.00    +0.000 A 
ENDROOT
BRANCH   1  18
ATOM     14  C   UNL     1      36.291   1.157  15.437  0.00  0.00    +0.000 A 
ATOM     15  C   UNL     1      35.493   1.564  16.472  0.00  0.00    +0.000 A 
ATOM     16  C   UNL     1      34.771   0.691  17.252  0.00  0.00    +0.000 A 
ATOM     17  C   UNL     1      34.888  -0.677  16.936  0.00  0.00    +0.000 A 
ATOM     18  C   UNL     1      35.677  -1.093  15.909  0.00  0.00    +0.000 A 
ATOM     19  C   UNL     1      36.374  -0.211  15.161  0.00  0.00    +0.000 A 
BRANCH  14  20
ATOM     20  O   UNL     1      37.021   2.070  14.650  0.00  0.00    +0.000 OA
BRANCH  20  22
ATOM     21  C   UNL     1      39.107   3.276  14.905  0.00  0.00    +0.000 C 
ATOM     22  C   UNL     1      38.413   1.955  14.586  0.00  0.00    +0.000 C 
ENDBRANCH  20  22
ENDBRANCH  14  20
ENDBRANCH   1  18
BRANCH  11  23
ATOM     23  O   UNL     1      42.981  -2.230  13.952  0.00  0.00    +0.000 OA
BRANCH  23  24
ATOM     24  C   UNL     1      43.644  -1.012  14.111  0.00  0.00    +0.000 C 
BRANCH  24  25
ATOM     25  C   UNL     1      43.202   0.032  13.159  0.00  0.00    +0.000 A 
ATOM     26  C   UNL     1      43.714   0.111  11.867  0.00  0.00    +0.000 A 
ATOM     27  C   UNL     1      43.284   1.091  10.999  0.00  0.00    +0.000 A 
ATOM     28  C   UNL     1      42.335   2.027  11.366  0.00  0.00    +0.000 A 
ATOM     29  C   UNL     1      41.833   1.946  12.638  0.00  0.00    +0.000 A 
ATOM     30  C   UNL     1      42.265   0.963  13.508  0.00  0.00    +0.000 A 
ENDBRANCH  24  25
ENDBRANCH  23  24
ENDBRANCH  11  23
TORSDOF 6
ENDMDL
MODEL 9
REMARK VINA RESULT:      -7.2      4.104      7.646
REMARK  Name = 
REMARK  6 active torsions:
REMARK  status: ('A' for Active; 'I' for Inactive)
REMARK    1  A    between atoms: C_2  and  O_3
REMARK    2  A    between atoms: O_3  and  C_4
REMARK    3  A    between atoms: C_8  and  C_9
REMARK    4  A    between atoms: C_19  and  O_20
REMARK    5  A    between atoms: O_20  and  C_21
REMARK    6  A    between atoms: C_21  and  C_22
REMARK                            x       y       z     vdW  Elec       q    Type
REMARK                         _______ _______ _______ _____ _____    ______ ____
ROOT
ATOM      1  C   UNL     1      36.255  -3.793  15.367  0.00  0.00    +0.000 C 
ATOM      2  N   UNL     1      36.987  -4.358  16.670  0.00  0.00    +0.000 NA
ATOM      3  C   UNL     1      37.436  -3.301  17.443  0.00  0.00    +0.000 C 
ATOM      4  C   UNL     1      38.743  -2.788  16.893  0.00  0.00    +0.000 C 
ATOM      5  C   UNL     1      38.633  -2.859  15.412  0.00  0.00    +0.000 A 
ATOM      6  C   UNL     1      37.623  -3.269  14.682  0.00  0.00    +0.000 A 
ATOM      7  N   UNL     1      37.879  -3.194  13.381  0.00  0.00    +0.000 NA
ATOM      8  C   UNL     1      39.128  -2.708  13.258  0.00  0.00    +0.000 A 
ATOM      9  C   UNL     1      39.932  -2.412  12.177  0.00  0.00    +0.000 A 
ATOM     10  C   UNL     1      41.198  -1.913  12.338  0.00  0.00    +0.000 A 
ATOM     11  C   UNL     1      41.731  -1.681  13.592  0.00  0.00    +0.000 A 
ATOM     12  C   UNL     1      40.916  -1.979  14.679  0.00  0.00    +0.000 A 
ATOM     13  C   UNL     1      39.634  -2.485  14.518  0.00  0.00    +0.000 A 
ENDROOT
BRANCH   1  18
ATOM     14  C   UNL     1      35.716  -0.014  15.835  0.00  0.00    +0.000 A 
ATOM     15  C   UNL     1      34.929  -0.013  16.955  0.00  0.00    +0.000 A 
ATOM     16  C   UNL     1      34.539  -1.163  17.601  0.00  0.00    +0.000 A 
ATOM     17  C   UNL     1      34.993  -2.377  17.051  0.00  0.00    +0.000 A 
ATOM     18  C   UNL     1      35.775  -2.391  15.938  0.00  0.00    +0.000 A 
ATOM     19  C   UNL     1      36.142  -1.245  15.326  0.00  0.00    +0.000 A 
BRANCH  14  20
ATOM     20  O   UNL     1      36.103   1.176  15.189  0.00  0.00    +0.000 OA
BRANCH  20  22
ATOM     21  C   UNL     1      34.637   3.102  15.054  0.00  0.00    +0.000 C 
ATOM     22  C   UNL     1      35.787   2.405  15.777  0.00  0.00    +0.000 C 
ENDBRANCH  20  22
ENDBRANCH  14  20
ENDBRANCH   1  18
BRANCH  11  23
ATOM     23  O   UNL     1      43.003  -1.180  13.756  0.00  0.00    +0.000 OA
BRANCH  23  24
ATOM     24  C   UNL     1      44.097  -1.872  14.279  0.00  0.00    +0.000 C 
BRANCH  24  25
ATOM     25  C   UNL     1      44.935  -2.523  13.247  0.00  0.00    +0.000 A 
ATOM     26  C   UNL     1      44.620  -3.777  12.731  0.00  0.00    +0.000 A 
ATOM     27  C   UNL     1      45.414  -4.360  11.768  0.00  0.00    +0.000 A 
ATOM     28  C   UNL     1      46.545  -3.735  11.277  0.00  0.00    +0.000 A 
ATOM     29  C   UNL     1      46.852  -2.502  11.786  0.00  0.00    +0.000 A 
ATOM     30  C   UNL     1      46.054  -1.917  12.752  0.00  0.00    +0.000 A 
ENDBRANCH  24  25
ENDBRANCH  23  24
ENDBRANCH  11  23
TORSDOF 6
ENDMDL
MODEL 10
REMARK VINA RESULT:      -7.2      1.822      3.041
REMARK  Name = 
REMARK  6 active torsions:
REMARK  status: ('A' for Active; 'I' for Inactive)
REMARK    1  A    between atoms: C_2  and  O_3
REMARK    2  A    between atoms: O_3  and  C_4
REMARK    3  A    between atoms: C_8  and  C_9
REMARK    4  A    between atoms: C_19  and  O_20
REMARK    5  A    between atoms: O_20  and  C_21
REMARK    6  A    between atoms: C_21  and  C_22
REMARK                            x       y       z     vdW  Elec       q    Type
REMARK                         _______ _______ _______ _____ _____    ______ ____
ROOT
ATOM      1  C   UNL     1      36.381   1.746  13.364  0.00  0.00    +0.000 C 
ATOM      2  N   UNL     1      37.960   1.499  13.337  0.00  0.00    +0.000 NA
ATOM      3  C   UNL     1      38.446   1.463  14.632  0.00  0.00    +0.000 C 
ATOM      4  C   UNL     1      38.644   2.869  15.140  0.00  0.00    +0.000 C 
ATOM      5  C   UNL     1      37.512   3.672  14.607  0.00  0.00    +0.000 A 
ATOM      6  C   UNL     1      36.513   3.283  13.851  0.00  0.00    +0.000 A 
ATOM      7  N   UNL     1      35.681   4.279  13.564  0.00  0.00    +0.000 NA
ATOM      8  C   UNL     1      36.168   5.378  14.169  0.00  0.00    +0.000 A 
ATOM      9  C   UNL     1      35.750   6.691  14.236  0.00  0.00    +0.000 A 
ATOM     10  C   UNL     1      36.451   7.633  14.942  0.00  0.00    +0.000 A 
ATOM     11  C   UNL     1      37.613   7.314  15.620  0.00  0.00    +0.000 A 
ATOM     12  C   UNL     1      38.030   5.989  15.549  0.00  0.00    +0.000 A 
ATOM     13  C   UNL     1      37.321   5.034  14.835  0.00  0.00    +0.000 A 
ENDROOT
BRANCH   1  18
ATOM     14  C   UNL     1      36.303  -0.608  16.404  0.00  0.00    +0.000 A 
ATOM     15  C   UNL     1      35.467   0.088  17.235  0.00  0.00    +0.000 A 
ATOM     16  C   UNL     1      34.903   1.295  16.895  0.00  0.00    +0.000 A 
ATOM     17  C   UNL     1      35.226   1.802  15.621  0.00  0.00    +0.000 A 
ATOM     18  C   UNL     1      36.056   1.120  14.787  0.00  0.00    +0.000 A 
ATOM     19  C   UNL     1      36.595  -0.063  15.150  0.00  0.00    +0.000 A 
BRANCH  14  20
ATOM     20  O   UNL     1      36.872  -1.842  16.774  0.00  0.00    +0.000 OA
BRANCH  20  22
ATOM     21  C   UNL     1      38.039  -2.384  18.827  0.00  0.00    +0.000 C 
ATOM     22  C   UNL     1      36.709  -2.304  18.084  0.00  0.00    +0.000 C 
ENDBRANCH  20  22
ENDBRANCH  14  20
ENDBRANCH   1  18
BRANCH  11  23
ATOM     23  O   UNL     1      38.319   8.260  16.329  0.00  0.00    +0.000 OA
BRANCH  23  24
ATOM     24  C   UNL     1      38.330   8.405  17.718  0.00  0.00    +0.000 C 
BRANCH  24  25
ATOM     25  C   UNL     1      39.485   7.749  18.372  0.00  0.00    +0.000 A 
ATOM     26  C   UNL     1      40.691   7.554  17.705  0.00  0.00    +0.000 A 
ATOM     27  C   UNL     1      41.752   6.942  18.337  0.00  0.00    +0.000 A 
ATOM     28  C   UNL     1      41.668   6.502  19.645  0.00  0.00    +0.000 A 
ATOM     29  C   UNL     1      40.480   6.696  20.298  0.00  0.00    +0.000 A 
ATOM     30  C   UNL     1      39.416   7.309  19.663  0.00  0.00    +0.000 A 
ENDBRANCH  24  25
ENDBRANCH  23  24
ENDBRANCH  11  23
TORSDOF 6
ENDMDL
