MODEL 1
REMARK VINA RESULT:      -8.8      0.000      0.000
REMARK  Name = 
REMARK  0 active torsions:
REMARK  status: ('A' for Active; 'I' for Inactive)
REMARK                            x       y       z     vdW  Elec       q    Type
REMARK                         _______ _______ _______ _____ _____    ______ ____
ROOT
ATOM      1  C   UNL     1      25.578  23.595  23.730  0.00  0.00    +0.000 C 
ATOM      2  C   UNL     1      27.059  23.556  23.645  0.00  0.00    +0.000 A 
ATOM      3  C   UNL     1      27.621  23.914  22.433  0.00  0.00    +0.000 A 
ATOM      4  C   UNL     1      28.974  23.915  22.243  0.00  0.00    +0.000 A 
ATOM      5  O   UNL     1      29.608  24.259  21.066  0.00  0.00    +0.000 OA
ATOM      6  C   UNL     1      29.764  23.545  23.305  0.00  0.00    +0.000 A 
ATOM      7  C   UNL     1      29.212  23.177  24.547  0.00  0.00    +0.000 A 
ATOM      8  C   UNL     1      27.882  23.185  24.707  0.00  0.00    +0.000 A 
ATOM      9  C   UNL     1      27.091  22.834  25.958  0.00  0.00    +0.000 C 
ATOM     10  C   UNL     1      26.667  24.347  26.351  0.00  0.00    +0.000 C 
ATOM     11  C   UNL     1      25.761  23.810  27.458  0.00  0.00    +0.000 C 
ATOM     12  C   UNL     1      26.631  23.806  28.625  0.00  0.00    +0.000 C 
ATOM     13  C   UNL     1      26.542  25.297  28.976  0.00  0.00    +0.000 C 
ATOM     14  C   UNL     1      26.522  23.032  29.755  0.00  0.00    +0.000 C 
ATOM     15  O   UNL     1      25.798  23.061  30.709  0.00  0.00    +0.000 OA
ATOM     16  C   UNL     1      27.553  21.962  29.708  0.00  0.00    +0.000 C 
ATOM     17  C   UNL     1      28.722  22.869  29.379  0.00  0.00    +0.000 C 
ATOM     18  C   UNL     1      28.180  23.734  28.134  0.00  0.00    +0.000 C 
ATOM     19  C   UNL     1      28.092  22.390  27.131  0.00  0.00    +0.000 C 
ATOM     20  C   UNL     1      29.521  22.452  26.749  0.00  0.00    +0.000 C 
ATOM     21  C   UNL     1      29.999  22.784  25.655  0.00  0.00    +0.000 C 
ENDROOT
TORSDOF 0
ENDMDL
MODEL 2
REMARK VINA RESULT:      -8.2      1.046      6.226
REMARK  Name = 
REMARK  0 active torsions:
REMARK  status: ('A' for Active; 'I' for Inactive)
REMARK                            x       y       z     vdW  Elec       q    Type
REMARK                         _______ _______ _______ _____ _____    ______ ____
ROOT
ATOM      1  C   UNL     1      29.556  21.860  27.512  0.00  0.00    +0.000 C 
ATOM      2  C   UNL     1      28.254  22.525  27.771  0.00  0.00    +0.000 A 
ATOM      3  C   UNL     1      27.840  22.584  29.090  0.00  0.00    +0.000 A 
ATOM      4  C   UNL     1      26.659  23.174  29.443  0.00  0.00    +0.000 A 
ATOM      5  O   UNL     1      26.178  23.273  30.734  0.00  0.00    +0.000 OA
ATOM      6  C   UNL     1      25.890  23.709  28.437  0.00  0.00    +0.000 A 
ATOM      7  C   UNL     1      26.295  23.659  27.089  0.00  0.00    +0.000 A 
ATOM      8  C   UNL     1      27.458  23.075  26.769  0.00  0.00    +0.000 A 
ATOM      9  C   UNL     1      28.077  22.925  25.388  0.00  0.00    +0.000 C 
ATOM     10  C   UNL     1      29.236  24.040  25.572  0.00  0.00    +0.000 C 
ATOM     11  C   UNL     1      29.847  23.630  24.232  0.00  0.00    +0.000 C 
ATOM     12  C   UNL     1      29.204  24.530  23.285  0.00  0.00    +0.000 C 
ATOM     13  C   UNL     1      30.061  25.777  23.543  0.00  0.00    +0.000 C 
ATOM     14  C   UNL     1      29.013  24.340  21.938  0.00  0.00    +0.000 C 
ATOM     15  O   UNL     1      29.737  24.393  20.986  0.00  0.00    +0.000 OA
ATOM     16  C   UNL     1      27.585  24.004  21.697  0.00  0.00    +0.000 C 
ATOM     17  C   UNL     1      27.004  25.144  22.510  0.00  0.00    +0.000 C 
ATOM     18  C   UNL     1      27.790  25.038  23.910  0.00  0.00    +0.000 C 
ATOM     19  C   UNL     1      27.100  23.552  24.280  0.00  0.00    +0.000 C 
ATOM     20  C   UNL     1      25.866  24.147  24.843  0.00  0.00    +0.000 C 
ATOM     21  C   UNL     1      25.522  24.193  26.032  0.00  0.00    +0.000 C 
ENDROOT
TORSDOF 0
ENDMDL
MODEL 3
REMARK VINA RESULT:      -7.3      1.118      5.805
REMARK  Name = 
REMARK  0 active torsions:
REMARK  status: ('A' for Active; 'I' for Inactive)
REMARK                            x       y       z     vdW  Elec       q    Type
REMARK                         _______ _______ _______ _____ _____    ______ ____
ROOT
ATOM      1  C   UNL     1      25.226  25.433  27.930  0.00  0.00    +0.000 C 
ATOM      2  C   UNL     1      26.062  24.265  28.305  0.00  0.00    +0.000 A 
ATOM      3  C   UNL     1      25.748  23.634  29.495  0.00  0.00    +0.000 A 
ATOM      4  C   UNL     1      26.451  22.550  29.938  0.00  0.00    +0.000 A 
ATOM      5  O   UNL     1      26.198  21.867  31.111  0.00  0.00    +0.000 OA
ATOM      6  C   UNL     1      27.489  22.103  29.155  0.00  0.00    +0.000 A 
ATOM      7  C   UNL     1      27.824  22.731  27.940  0.00  0.00    +0.000 A 
ATOM      8  C   UNL     1      27.119  23.794  27.529  0.00  0.00    +0.000 A 
ATOM      9  C   UNL     1      27.311  24.604  26.256  0.00  0.00    +0.000 C 
ATOM     10  C   UNL     1      26.014  24.038  25.469  0.00  0.00    +0.000 C 
ATOM     11  C   UNL     1      26.244  25.056  24.352  0.00  0.00    +0.000 C 
ATOM     12  C   UNL     1      27.073  24.325  23.404  0.00  0.00    +0.000 C 
ATOM     13  C   UNL     1      25.968  23.504  22.726  0.00  0.00    +0.000 C 
ATOM     14  C   UNL     1      27.940  24.840  22.471  0.00  0.00    +0.000 C 
ATOM     15  O   UNL     1      27.788  25.379  21.412  0.00  0.00    +0.000 OA
ATOM     16  C   UNL     1      29.334  24.644  22.949  0.00  0.00    +0.000 C 
ATOM     17  C   UNL     1      29.190  23.175  23.291  0.00  0.00    +0.000 C 
ATOM     18  C   UNL     1      27.855  23.133  24.189  0.00  0.00    +0.000 C 
ATOM     19  C   UNL     1      28.557  24.028  25.424  0.00  0.00    +0.000 C 
ATOM     20  C   UNL     1      29.199  22.851  26.053  0.00  0.00    +0.000 C 
ATOM     21  C   UNL     1      28.892  22.300  27.119  0.00  0.00    +0.000 C 
ENDROOT
TORSDOF 0
ENDMDL
MODEL 4
REMARK VINA RESULT:      -7.2     23.402     25.801
REMARK  Name = 
REMARK  0 active torsions:
REMARK  status: ('A' for Active; 'I' for Inactive)
REMARK                            x       y       z     vdW  Elec       q    Type
REMARK                         _______ _______ _______ _____ _____    ______ ____
ROOT
ATOM      1  C   UNL     1      34.183   2.477  38.194  0.00  0.00    +0.000 C 
ATOM      2  C   UNL     1      34.140   2.917  36.777  0.00  0.00    +0.000 A 
ATOM      3  C   UNL     1      34.479   4.234  36.526  0.00  0.00    +0.000 A 
ATOM      4  C   UNL     1      34.475   4.745  35.259  0.00  0.00    +0.000 A 
ATOM      5  O   UNL     1      34.800   6.046  34.929  0.00  0.00    +0.000 OA
ATOM      6  C   UNL     1      34.120   3.900  34.234  0.00  0.00    +0.000 A 
ATOM      7  C   UNL     1      33.772   2.556  34.470  0.00  0.00    +0.000 A 
ATOM      8  C   UNL     1      33.784   2.080  35.722  0.00  0.00    +0.000 A 
ATOM      9  C   UNL     1      33.454   0.669  36.186  0.00  0.00    +0.000 C 
ATOM     10  C   UNL     1      34.973   0.209  36.505  0.00  0.00    +0.000 C 
ATOM     11  C   UNL     1      34.454  -1.092  37.116  0.00  0.00    +0.000 C 
ATOM     12  C   UNL     1      34.466  -2.015  35.990  0.00  0.00    +0.000 C 
ATOM     13  C   UNL     1      35.963  -2.355  35.995  0.00  0.00    +0.000 C 
ATOM     14  C   UNL     1      33.710  -3.149  35.821  0.00  0.00    +0.000 C 
ATOM     15  O   UNL     1      33.755  -4.249  36.293  0.00  0.00    +0.000 OA
ATOM     16  C   UNL     1      32.638  -2.870  34.829  0.00  0.00    +0.000 C 
ATOM     17  C   UNL     1      33.538  -2.255  33.776  0.00  0.00    +0.000 C 
ATOM     18  C   UNL     1      34.385  -1.165  34.605  0.00  0.00    +0.000 C 
ATOM     19  C   UNL     1      33.025  -0.233  34.930  0.00  0.00    +0.000 C 
ATOM     20  C   UNL     1      33.080   0.484  33.636  0.00  0.00    +0.000 C 
ATOM     21  C   UNL     1      33.394   1.666  33.437  0.00  0.00    +0.000 C 
ENDROOT
TORSDOF 0
ENDMDL
MODEL 5
REMARK VINA RESULT:      -7.0      2.049      2.836
REMARK  Name = 
REMARK  0 active torsions:
REMARK  status: ('A' for Active; 'I' for Inactive)
REMARK                            x       y       z     vdW  Elec       q    Type
REMARK                         _______ _______ _______ _____ _____    ______ ____
ROOT
ATOM      1  C   UNL     1      25.850  23.589  26.440  0.00  0.00    +0.000 C 
ATOM      2  C   UNL     1      26.800  23.431  25.310  0.00  0.00    +0.000 A 
ATOM      3  C   UNL     1      26.296  23.652  24.041  0.00  0.00    +0.000 A 
ATOM      4  C   UNL     1      27.081  23.535  22.929  0.00  0.00    +0.000 A 
ATOM      5  O   UNL     1      26.652  23.738  21.632  0.00  0.00    +0.000 OA
ATOM      6  C   UNL     1      28.398  23.188  23.115  0.00  0.00    +0.000 A 
ATOM      7  C   UNL     1      28.930  22.960  24.398  0.00  0.00    +0.000 A 
ATOM      8  C   UNL     1      28.139  23.081  25.473  0.00  0.00    +0.000 A 
ATOM      9  C   UNL     1      28.515  22.890  26.934  0.00  0.00    +0.000 C 
ATOM     10  C   UNL     1      28.506  24.455  27.345  0.00  0.00    +0.000 C 
ATOM     11  C   UNL     1      28.698  24.076  28.812  0.00  0.00    +0.000 C 
ATOM     12  C   UNL     1      30.146  24.095  28.972  0.00  0.00    +0.000 C 
ATOM     13  C   UNL     1      30.335  25.612  29.114  0.00  0.00    +0.000 C 
ATOM     14  C   UNL     1      30.901  23.422  29.901  0.00  0.00    +0.000 C 
ATOM     15  O   UNL     1      31.103  23.578  31.071  0.00  0.00    +0.000 OA
ATOM     16  C   UNL     1      31.574  22.275  29.235  0.00  0.00    +0.000 C 
ATOM     17  C   UNL     1      32.128  23.063  28.064  0.00  0.00    +0.000 C 
ATOM     18  C   UNL     1      30.845  23.868  27.520  0.00  0.00    +0.000 C 
ATOM     19  C   UNL     1      30.057  22.461  27.050  0.00  0.00    +0.000 C 
ATOM     20  C   UNL     1      30.753  22.385  25.745  0.00  0.00    +0.000 C 
ATOM     21  C   UNL     1      30.278  22.594  24.620  0.00  0.00    +0.000 C 
ENDROOT
TORSDOF 0
ENDMDL
MODEL 6
REMARK VINA RESULT:      -6.8     20.606     21.832
REMARK  Name = 
REMARK  0 active torsions:
REMARK  status: ('A' for Active; 'I' for Inactive)
REMARK                            x       y       z     vdW  Elec       q    Type
REMARK                         _______ _______ _______ _____ _____    ______ ____
ROOT
ATOM      1  C   UNL     1      24.022   4.098  14.044  0.00  0.00    +0.000 C 
ATOM      2  C   UNL     1      23.788   3.392  15.328  0.00  0.00    +0.000 A 
ATOM      3  C   UNL     1      22.934   2.305  15.291  0.00  0.00    +0.000 A 
ATOM      4  C   UNL     1      22.647   1.582  16.414  0.00  0.00    +0.000 A 
ATOM      5  O   UNL     1      21.806   0.487  16.458  0.00  0.00    +0.000 OA
ATOM      6  C   UNL     1      23.240   1.973  17.591  0.00  0.00    +0.000 A 
ATOM      7  C   UNL     1      24.113   3.077  17.649  0.00  0.00    +0.000 A 
ATOM      8  C   UNL     1      24.378   3.769  16.533  0.00  0.00    +0.000 A 
ATOM      9  C   UNL     1      25.291   4.976  16.379  0.00  0.00    +0.000 C 
ATOM     10  C   UNL     1      26.498   4.211  15.619  0.00  0.00    +0.000 C 
ATOM     11  C   UNL     1      27.199   5.547  15.379  0.00  0.00    +0.000 C 
ATOM     12  C   UNL     1      28.076   5.672  16.535  0.00  0.00    +0.000 C 
ATOM     13  C   UNL     1      29.205   4.747  16.061  0.00  0.00    +0.000 C 
ATOM     14  C   UNL     1      28.588   6.823  17.085  0.00  0.00    +0.000 C 
ATOM     15  O   UNL     1      29.461   7.576  16.759  0.00  0.00    +0.000 OA
ATOM     16  C   UNL     1      27.853   7.125  18.341  0.00  0.00    +0.000 C 
ATOM     17  C   UNL     1      27.974   5.739  18.944  0.00  0.00    +0.000 C 
ATOM     18  C   UNL     1      27.482   4.774  17.754  0.00  0.00    +0.000 C 
ATOM     19  C   UNL     1      25.914   5.375  17.804  0.00  0.00    +0.000 C 
ATOM     20  C   UNL     1      25.495   4.481  18.907  0.00  0.00    +0.000 C 
ATOM     21  C   UNL     1      24.732   3.508  18.846  0.00  0.00    +0.000 C 
ENDROOT
TORSDOF 0
ENDMDL
MODEL 7
REMARK VINA RESULT:      -6.8     15.140     17.710
REMARK  Name = 
REMARK  0 active torsions:
REMARK  status: ('A' for Active; 'I' for Inactive)
REMARK                            x       y       z     vdW  Elec       q    Type
REMARK                         _______ _______ _______ _____ _____    ______ ____
ROOT
ATOM      1  C   UNL     1       8.417  22.382  22.610  0.00  0.00    +0.000 C 
ATOM      2  C   UNL     1       8.949  21.451  21.585  0.00  0.00    +0.000 A 
ATOM      3  C   UNL     1       8.033  20.613  20.973  0.00  0.00    +0.000 A 
ATOM      4  C   UNL     1       8.412  19.716  20.015  0.00  0.00    +0.000 A 
ATOM      5  O   UNL     1       7.560  18.850  19.360  0.00  0.00    +0.000 OA
ATOM      6  C   UNL     1       9.744  19.673  19.676  0.00  0.00    +0.000 A 
ATOM      7  C   UNL     1      10.691  20.518  20.286  0.00  0.00    +0.000 A 
ATOM      8  C   UNL     1      10.294  21.388  21.224  0.00  0.00    +0.000 A 
ATOM      9  C   UNL     1      11.147  22.386  21.991  0.00  0.00    +0.000 C 
ATOM     10  C   UNL     1      10.635  23.715  21.221  0.00  0.00    +0.000 C 
ATOM     11  C   UNL     1      11.408  24.590  22.207  0.00  0.00    +0.000 C 
ATOM     12  C   UNL     1      12.696  24.769  21.550  0.00  0.00    +0.000 C 
ATOM     13  C   UNL     1      12.291  25.867  20.557  0.00  0.00    +0.000 C 
ATOM     14  C   UNL     1      13.905  25.061  22.133  0.00  0.00    +0.000 C 
ATOM     15  O   UNL     1      14.378  26.058  22.597  0.00  0.00    +0.000 OA
ATOM     16  C   UNL     1      14.741  23.832  22.149  0.00  0.00    +0.000 C 
ATOM     17  C   UNL     1      14.538  23.470  20.691  0.00  0.00    +0.000 C 
ATOM     18  C   UNL     1      12.940  23.540  20.513  0.00  0.00    +0.000 C 
ATOM     19  C   UNL     1      12.684  22.244  21.551  0.00  0.00    +0.000 C 
ATOM     20  C   UNL     1      12.910  21.224  20.501  0.00  0.00    +0.000 C 
ATOM     21  C   UNL     1      12.069  20.490  19.965  0.00  0.00    +0.000 C 
ENDROOT
TORSDOF 0
ENDMDL
MODEL 8
REMARK VINA RESULT:      -6.6      2.381      5.881
REMARK  Name = 
REMARK  0 active torsions:
REMARK  status: ('A' for Active; 'I' for Inactive)
REMARK                            x       y       z     vdW  Elec       q    Type
REMARK                         _______ _______ _______ _____ _____    ______ ____
ROOT
ATOM      1  C   UNL     1      32.588  24.206  25.440  0.00  0.00    +0.000 C 
ATOM      2  C   UNL     1      31.652  23.606  26.424  0.00  0.00    +0.000 A 
ATOM      3  C   UNL     1      32.159  23.350  27.685  0.00  0.00    +0.000 A 
ATOM      4  C   UNL     1      31.387  22.800  28.669  0.00  0.00    +0.000 A 
ATOM      5  O   UNL     1      31.820  22.516  29.949  0.00  0.00    +0.000 OA
ATOM      6  C   UNL     1      30.080  22.506  28.361  0.00  0.00    +0.000 A 
ATOM      7  C   UNL     1      29.545  22.759  27.083  0.00  0.00    +0.000 A 
ATOM      8  C   UNL     1      30.324  23.300  26.136  0.00  0.00    +0.000 A 
ATOM      9  C   UNL     1      29.943  23.658  24.708  0.00  0.00    +0.000 C 
ATOM     10  C   UNL     1      29.899  25.263  24.914  0.00  0.00    +0.000 C 
ATOM     11  C   UNL     1      29.707  25.455  23.411  0.00  0.00    +0.000 C 
ATOM     12  C   UNL     1      28.258  25.487  23.263  0.00  0.00    +0.000 C 
ATOM     13  C   UNL     1      28.021  26.939  23.700  0.00  0.00    +0.000 C 
ATOM     14  C   UNL     1      27.518  25.187  22.146  0.00  0.00    +0.000 C 
ATOM     15  O   UNL     1      27.301  25.764  21.119  0.00  0.00    +0.000 OA
ATOM     16  C   UNL     1      26.886  23.854  22.330  0.00  0.00    +0.000 C 
ATOM     17  C   UNL     1      26.317  24.127  23.709  0.00  0.00    +0.000 C 
ATOM     18  C   UNL     1      27.578  24.710  24.521  0.00  0.00    +0.000 C 
ATOM     19  C   UNL     1      28.413  23.255  24.433  0.00  0.00    +0.000 C 
ATOM     20  C   UNL     1      27.731  22.673  25.611  0.00  0.00    +0.000 C 
ATOM     21  C   UNL     1      28.207  22.460  26.734  0.00  0.00    +0.000 C 
ENDROOT
TORSDOF 0
ENDMDL
MODEL 9
REMARK VINA RESULT:      -6.5     20.886     22.238
REMARK  Name = 
REMARK  0 active torsions:
REMARK  status: ('A' for Active; 'I' for Inactive)
REMARK                            x       y       z     vdW  Elec       q    Type
REMARK                         _______ _______ _______ _____ _____    ______ ____
ROOT
ATOM      1  C   UNL     1      24.072   4.335  18.491  0.00  0.00    +0.000 C 
ATOM      2  C   UNL     1      24.713   3.111  17.949  0.00  0.00    +0.000 A 
ATOM      3  C   UNL     1      24.010   1.928  18.091  0.00  0.00    +0.000 A 
ATOM      4  C   UNL     1      24.505   0.741  17.629  0.00  0.00    +0.000 A 
ATOM      5  O   UNL     1      23.865  -0.478  17.732  0.00  0.00    +0.000 OA
ATOM      6  C   UNL     1      25.735   0.762  17.014  0.00  0.00    +0.000 A 
ATOM      7  C   UNL     1      26.466   1.956  16.860  0.00  0.00    +0.000 A 
ATOM      8  C   UNL     1      25.958   3.106  17.322  0.00  0.00    +0.000 A 
ATOM      9  C   UNL     1      26.575   4.494  17.249  0.00  0.00    +0.000 C 
ATOM     10  C   UNL     1      25.601   5.081  16.097  0.00  0.00    +0.000 C 
ATOM     11  C   UNL     1      26.207   6.471  16.287  0.00  0.00    +0.000 C 
ATOM     12  C   UNL     1      27.288   6.496  15.312  0.00  0.00    +0.000 C 
ATOM     13  C   UNL     1      26.453   6.793  14.059  0.00  0.00    +0.000 C 
ATOM     14  C   UNL     1      28.425   7.267  15.333  0.00  0.00    +0.000 C 
ATOM     15  O   UNL     1      28.643   8.423  15.109  0.00  0.00    +0.000 OA
ATOM     16  C   UNL     1      29.579   6.414  15.723  0.00  0.00    +0.000 C 
ATOM     17  C   UNL     1      29.300   5.295  14.740  0.00  0.00    +0.000 C 
ATOM     18  C   UNL     1      27.742   4.969  14.981  0.00  0.00    +0.000 C 
ATOM     19  C   UNL     1      28.015   4.416  16.544  0.00  0.00    +0.000 C 
ATOM     20  C   UNL     1      28.389   3.051  16.106  0.00  0.00    +0.000 C 
ATOM     21  C   UNL     1      27.736   2.007  16.240  0.00  0.00    +0.000 C 
ENDROOT
TORSDOF 0
ENDMDL
MODEL 10
REMARK VINA RESULT:      -6.4     31.829     32.970
REMARK  Name = 
REMARK  0 active torsions:
REMARK  status: ('A' for Active; 'I' for Inactive)
REMARK                            x       y       z     vdW  Elec       q    Type
REMARK                         _______ _______ _______ _____ _____    ______ ____
ROOT
ATOM      1  C   UNL     1      23.007 -10.521  25.725  0.00  0.00    +0.000 C 
ATOM      2  C   UNL     1      22.938  -9.128  25.218  0.00  0.00    +0.000 A 
ATOM      3  C   UNL     1      24.006  -8.694  24.453  0.00  0.00    +0.000 A 
ATOM      4  C   UNL     1      24.048  -7.430  23.934  0.00  0.00    +0.000 A 
ATOM      5  O   UNL     1      25.076  -6.924  23.164  0.00  0.00    +0.000 OA
ATOM      6  C   UNL     1      22.985  -6.599  24.200  0.00  0.00    +0.000 A 
ATOM      7  C   UNL     1      21.889  -7.023  24.976  0.00  0.00    +0.000 A 
ATOM      8  C   UNL     1      21.873  -8.267  25.473  0.00  0.00    +0.000 A 
ATOM      9  C   UNL     1      20.790  -8.919  26.319  0.00  0.00    +0.000 C 
ATOM     10  C   UNL     1      20.196  -9.885  25.164  0.00  0.00    +0.000 C 
ATOM     11  C   UNL     1      19.298 -10.570  26.194  0.00  0.00    +0.000 C 
ATOM     12  C   UNL     1      18.062  -9.804  26.117  0.00  0.00    +0.000 C 
ATOM     13  C   UNL     1      17.476 -10.450  24.855  0.00  0.00    +0.000 C 
ATOM     14  C   UNL     1      17.097  -9.662  27.085  0.00  0.00    +0.000 C 
ATOM     15  O   UNL     1      16.235 -10.380  27.502  0.00  0.00    +0.000 OA
ATOM     16  C   UNL     1      17.214  -8.308  27.687  0.00  0.00    +0.000 C 
ATOM     17  C   UNL     1      17.259  -7.544  26.378  0.00  0.00    +0.000 C 
ATOM     18  C   UNL     1      18.390  -8.320  25.537  0.00  0.00    +0.000 C 
ATOM     19  C   UNL     1      19.610  -7.869  26.600  0.00  0.00    +0.000 C 
ATOM     20  C   UNL     1      19.822  -6.550  25.961  0.00  0.00    +0.000 C 
ATOM     21  C   UNL     1      20.787  -6.188  25.273  0.00  0.00    +0.000 C 
ENDROOT
TORSDOF 0
ENDMDL
