MODEL 1
REMARK VINA RESULT:      -6.7      0.000      0.000
REMARK  Name = 
REMARK  3 active torsions:
REMARK  status: ('A' for Active; 'I' for Inactive)
REMARK    1  A    between atoms: C_6  and  C_7
REMARK    2  A    between atoms: N_9  and  C_10
REMARK    3  A    between atoms: C_10  and  C_11
REMARK                            x       y       z     vdW  Elec       q    Type
REMARK                         _______ _______ _______ _____ _____    ______ ____
ROOT
ATOM      1  C   UNL     1      16.979  10.339  36.995  0.00  0.00    +0.000 C 
ATOM      2  O   UNL     1      17.375   9.319  36.395  0.00  0.00    +0.000 OA
ATOM      3  N   UNL     1      17.511  10.704  38.260  0.00  0.00    +0.000 NA
ENDROOT
BRANCH   1   9
ATOM      4  N   UNL     1      17.326  11.622  34.254  0.00  0.00    +0.000 NA
ATOM      5  C   UNL     1      16.158  11.711  35.100  0.00  0.00    +0.000 A 
ATOM      6  S   UNL     1      14.710  12.547  34.765  0.00  0.00    +0.000 S 
ATOM      7  C   UNL     1      13.845  12.200  36.175  0.00  0.00    +0.000 A 
ATOM      8  C   UNL     1      14.707  11.431  36.893  0.00  0.00    +0.000 A 
ATOM      9  C   UNL     1      15.926  11.165  36.338  0.00  0.00    +0.000 A 
ATOM     10  C   UNL     1      13.968  11.091  38.183  0.00  0.00    +0.000 C 
ATOM     11  C   UNL     1      12.512  11.298  37.868  0.00  0.00    +0.000 C 
ATOM     12  C   UNL     1      12.551  12.429  36.865  0.00  0.00    +0.000 C 
ENDBRANCH   1   9
BRANCH   3  13
ATOM     13  C   UNL     1      18.526   9.874  38.855  0.00  0.00    +0.000 C 
BRANCH  13  14
ATOM     14  C   UNL     1      17.910   8.848  39.771  0.00  0.00    +0.000 A 
ATOM     15  C   UNL     1      16.784   9.145  40.507  0.00  0.00    +0.000 A 
ATOM     16  C   UNL     1      16.238   8.190  41.338  0.00  0.00    +0.000 A 
ATOM     17  C   UNL     1      16.791   6.940  41.450  0.00  0.00    +0.000 A 
ATOM     18  C   UNL     1      17.919   6.632  40.717  0.00  0.00    +0.000 A 
ATOM     19  C   UNL     1      18.474   7.584  39.882  0.00  0.00    +0.000 A 
ENDBRANCH  13  14
ENDBRANCH   3  13
TORSDOF 3
ENDMDL
MODEL 2
REMARK VINA RESULT:      -6.1     20.841     23.304
REMARK  Name = 
REMARK  3 active torsions:
REMARK  status: ('A' for Active; 'I' for Inactive)
REMARK    1  A    between atoms: C_6  and  C_7
REMARK    2  A    between atoms: N_9  and  C_10
REMARK    3  A    between atoms: C_10  and  C_11
REMARK                            x       y       z     vdW  Elec       q    Type
REMARK                         _______ _______ _______ _____ _____    ______ ____
ROOT
ATOM      1  C   UNL     1      33.648  -4.558  33.355  0.00  0.00    +0.000 C 
ATOM      2  O   UNL     1      34.652  -5.024  33.932  0.00  0.00    +0.000 OA
ATOM      3  N   UNL     1      33.235  -3.216  33.562  0.00  0.00    +0.000 NA
ENDROOT
BRANCH   1   9
ATOM      4  N   UNL     1      31.050  -5.946  34.131  0.00  0.00    +0.000 NA
ATOM      5  C   UNL     1      31.730  -6.050  32.860  0.00  0.00    +0.000 A 
ATOM      6  S   UNL     1      31.242  -6.966  31.508  0.00  0.00    +0.000 S 
ATOM      7  C   UNL     1      32.500  -6.596  30.442  0.00  0.00    +0.000 A 
ATOM      8  C   UNL     1      33.289  -5.756  31.164  0.00  0.00    +0.000 A 
ATOM      9  C   UNL     1      32.895  -5.461  32.438  0.00  0.00    +0.000 A 
ATOM     10  C   UNL     1      34.446  -5.393  30.239  0.00  0.00    +0.000 C 
ATOM     11  C   UNL     1      33.945  -5.681  28.851  0.00  0.00    +0.000 C 
ATOM     12  C   UNL     1      33.016  -6.853  29.074  0.00  0.00    +0.000 C 
ENDBRANCH   1   9
BRANCH   3  13
ATOM     13  C   UNL     1      33.994  -2.383  34.458  0.00  0.00    +0.000 C 
BRANCH  13  14
ATOM     14  C   UNL     1      33.881  -0.932  34.065  0.00  0.00    +0.000 A 
ATOM     15  C   UNL     1      34.218  -0.518  32.796  0.00  0.00    +0.000 A 
ATOM     16  C   UNL     1      34.107   0.815  32.459  0.00  0.00    +0.000 A 
ATOM     17  C   UNL     1      33.664   1.746  33.365  0.00  0.00    +0.000 A 
ATOM     18  C   UNL     1      33.324   1.340  34.639  0.00  0.00    +0.000 A 
ATOM     19  C   UNL     1      33.433   0.006  34.985  0.00  0.00    +0.000 A 
ENDBRANCH  13  14
ENDBRANCH   3  13
TORSDOF 3
ENDMDL
MODEL 3
REMARK VINA RESULT:      -6.1     21.858     23.186
REMARK  Name = 
REMARK  3 active torsions:
REMARK  status: ('A' for Active; 'I' for Inactive)
REMARK    1  A    between atoms: C_6  and  C_7
REMARK    2  A    between atoms: N_9  and  C_10
REMARK    3  A    between atoms: C_10  and  C_11
REMARK                            x       y       z     vdW  Elec       q    Type
REMARK                         _______ _______ _______ _____ _____    ______ ____
ROOT
ATOM      1  C   UNL     1      21.291  -9.370  26.307  0.00  0.00    +0.000 C 
ATOM      2  O   UNL     1      22.143  -9.742  27.139  0.00  0.00    +0.000 OA
ATOM      3  N   UNL     1      21.540  -9.447  24.911  0.00  0.00    +0.000 NA
ENDROOT
BRANCH   1   9
ATOM      4  N   UNL     1      19.405 -10.990  28.068  0.00  0.00    +0.000 NA
ATOM      5  C   UNL     1      19.202  -9.632  27.617  0.00  0.00    +0.000 A 
ATOM      6  S   UNL     1      17.870  -8.626  27.962  0.00  0.00    +0.000 S 
ATOM      7  C   UNL     1      18.332  -7.238  27.116  0.00  0.00    +0.000 A 
ATOM      8  C   UNL     1      19.529  -7.584  26.572  0.00  0.00    +0.000 A 
ATOM      9  C   UNL     1      19.998  -8.840  26.828  0.00  0.00    +0.000 A 
ATOM     10  C   UNL     1      19.989  -6.356  25.793  0.00  0.00    +0.000 C 
ATOM     11  C   UNL     1      19.219  -5.206  26.381  0.00  0.00    +0.000 C 
ATOM     12  C   UNL     1      17.912  -5.854  26.778  0.00  0.00    +0.000 C 
ENDBRANCH   1   9
BRANCH   3  13
ATOM     13  C   UNL     1      22.804  -9.965  24.457  0.00  0.00    +0.000 C 
BRANCH  13  14
ATOM     14  C   UNL     1      23.748  -8.844  24.105  0.00  0.00    +0.000 A 
ATOM     15  C   UNL     1      24.981  -9.108  23.553  0.00  0.00    +0.000 A 
ATOM     16  C   UNL     1      25.828  -8.065  23.239  0.00  0.00    +0.000 A 
ATOM     17  C   UNL     1      25.468  -6.761  23.464  0.00  0.00    +0.000 A 
ATOM     18  C   UNL     1      24.235  -6.486  24.018  0.00  0.00    +0.000 A 
ATOM     19  C   UNL     1      23.380  -7.525  24.336  0.00  0.00    +0.000 A 
ENDBRANCH  13  14
ENDBRANCH   3  13
TORSDOF 3
ENDMDL
MODEL 4
REMARK VINA RESULT:      -6.0      4.600      7.551
REMARK  Name = 
REMARK  3 active torsions:
REMARK  status: ('A' for Active; 'I' for Inactive)
REMARK    1  A    between atoms: C_6  and  C_7
REMARK    2  A    between atoms: N_9  and  C_10
REMARK    3  A    between atoms: C_10  and  C_11
REMARK                            x       y       z     vdW  Elec       q    Type
REMARK                         _______ _______ _______ _____ _____    ______ ____
ROOT
ATOM      1  C   UNL     1      20.561  11.815  38.218  0.00  0.00    +0.000 C 
ATOM      2  O   UNL     1      19.976  12.895  38.001  0.00  0.00    +0.000 OA
ATOM      3  N   UNL     1      19.835  10.616  38.443  0.00  0.00    +0.000 NA
ENDROOT
BRANCH   1   9
ATOM      4  N   UNL     1      22.205  13.421  40.217  0.00  0.00    +0.000 NA
ATOM      5  C   UNL     1      22.722  12.574  39.166  0.00  0.00    +0.000 A 
ATOM      6  S   UNL     1      24.361  12.277  38.802  0.00  0.00    +0.000 S 
ATOM      7  C   UNL     1      24.178  11.224  37.493  0.00  0.00    +0.000 A 
ATOM      8  C   UNL     1      22.828  11.119  37.359  0.00  0.00    +0.000 A 
ATOM      9  C   UNL     1      22.051  11.824  38.233  0.00  0.00    +0.000 A 
ATOM     10  C   UNL     1      22.611  10.173  36.182  0.00  0.00    +0.000 C 
ATOM     11  C   UNL     1      23.899   9.408  36.050  0.00  0.00    +0.000 C 
ATOM     12  C   UNL     1      24.930  10.420  36.497  0.00  0.00    +0.000 C 
ENDBRANCH   1   9
BRANCH   3  13
ATOM     13  C   UNL     1      18.396  10.657  38.419  0.00  0.00    +0.000 C 
BRANCH  13  14
ATOM     14  C   UNL     1      17.877  10.456  37.018  0.00  0.00    +0.000 A 
ATOM     15  C   UNL     1      18.351   9.429  36.232  0.00  0.00    +0.000 A 
ATOM     16  C   UNL     1      17.861   9.264  34.954  0.00  0.00    +0.000 A 
ATOM     17  C   UNL     1      16.904  10.104  34.441  0.00  0.00    +0.000 A 
ATOM     18  C   UNL     1      16.424  11.136  35.221  0.00  0.00    +0.000 A 
ATOM     19  C   UNL     1      16.910  11.308  36.504  0.00  0.00    +0.000 A 
ENDBRANCH  13  14
ENDBRANCH   3  13
TORSDOF 3
ENDMDL
MODEL 5
REMARK VINA RESULT:      -5.9     19.147     21.988
REMARK  Name = 
REMARK  3 active torsions:
REMARK  status: ('A' for Active; 'I' for Inactive)
REMARK    1  A    between atoms: C_6  and  C_7
REMARK    2  A    between atoms: N_9  and  C_10
REMARK    3  A    between atoms: C_10  and  C_11
REMARK                            x       y       z     vdW  Elec       q    Type
REMARK                         _______ _______ _______ _____ _____    ______ ____
ROOT
ATOM      1  C   UNL     1      27.147  23.403  27.556  0.00  0.00    +0.000 C 
ATOM      2  O   UNL     1      26.481  24.458  27.588  0.00  0.00    +0.000 OA
ATOM      3  N   UNL     1      27.092  22.531  26.438  0.00  0.00    +0.000 NA
ENDROOT
BRANCH   1   9
ATOM      4  N   UNL     1      26.045  22.986  30.365  0.00  0.00    +0.000 NA
ATOM      5  C   UNL     1      27.433  22.913  29.970  0.00  0.00    +0.000 A 
ATOM      6  S   UNL     1      28.770  22.580  30.974  0.00  0.00    +0.000 S 
ATOM      7  C   UNL     1      30.014  22.665  29.834  0.00  0.00    +0.000 A 
ATOM      8  C   UNL     1      29.362  22.955  28.676  0.00  0.00    +0.000 A 
ATOM      9  C   UNL     1      28.004  23.088  28.734  0.00  0.00    +0.000 A 
ATOM     10  C   UNL     1      30.450  23.043  27.611  0.00  0.00    +0.000 C 
ATOM     11  C   UNL     1      31.619  22.288  28.179  0.00  0.00    +0.000 C 
ATOM     12  C   UNL     1      31.484  22.541  29.664  0.00  0.00    +0.000 C 
ENDBRANCH   1   9
BRANCH   3  13
ATOM     13  C   UNL     1      26.248  22.877  25.323  0.00  0.00    +0.000 C 
BRANCH  13  14
ATOM     14  C   UNL     1      27.076  23.289  24.133  0.00  0.00    +0.000 A 
ATOM     15  C   UNL     1      28.450  23.220  24.172  0.00  0.00    +0.000 A 
ATOM     16  C   UNL     1      29.187  23.602  23.070  0.00  0.00    +0.000 A 
ATOM     17  C   UNL     1      28.578  24.051  21.925  0.00  0.00    +0.000 A 
ATOM     18  C   UNL     1      27.201  24.124  21.876  0.00  0.00    +0.000 A 
ATOM     19  C   UNL     1      26.456  23.744  22.977  0.00  0.00    +0.000 A 
ENDBRANCH  13  14
ENDBRANCH   3  13
TORSDOF 3
ENDMDL
MODEL 6
REMARK VINA RESULT:      -5.9      3.951      7.116
REMARK  Name = 
REMARK  3 active torsions:
REMARK  status: ('A' for Active; 'I' for Inactive)
REMARK    1  A    between atoms: C_6  and  C_7
REMARK    2  A    between atoms: N_9  and  C_10
REMARK    3  A    between atoms: C_10  and  C_11
REMARK                            x       y       z     vdW  Elec       q    Type
REMARK                         _______ _______ _______ _____ _____    ______ ____
ROOT
ATOM      1  C   UNL     1      19.888  10.746  38.735  0.00  0.00    +0.000 C 
ATOM      2  O   UNL     1      19.773  10.051  39.765  0.00  0.00    +0.000 OA
ATOM      3  N   UNL     1      18.777  10.993  37.885  0.00  0.00    +0.000 NA
ENDROOT
BRANCH   1   9
ATOM      4  N   UNL     1      21.029  13.209  40.116  0.00  0.00    +0.000 NA
ATOM      5  C   UNL     1      21.677  12.424  39.091  0.00  0.00    +0.000 A 
ATOM      6  S   UNL     1      23.222  12.690  38.418  0.00  0.00    +0.000 S 
ATOM      7  C   UNL     1      23.281  11.407  37.320  0.00  0.00    +0.000 A 
ATOM      8  C   UNL     1      22.085  10.785  37.496  0.00  0.00    +0.000 A 
ATOM      9  C   UNL     1      21.232  11.310  38.424  0.00  0.00    +0.000 A 
ATOM     10  C   UNL     1      22.091   9.613  36.520  0.00  0.00    +0.000 C 
ATOM     11  C   UNL     1      23.542   9.370  36.206  0.00  0.00    +0.000 C 
ATOM     12  C   UNL     1      24.133  10.759  36.291  0.00  0.00    +0.000 C 
ENDBRANCH   1   9
BRANCH   3  13
ATOM     13  C   UNL     1      17.499  10.426  38.227  0.00  0.00    +0.000 C 
BRANCH  13  14
ATOM     14  C   UNL     1      16.382  11.174  37.545  0.00  0.00    +0.000 A 
ATOM     15  C   UNL     1      16.634  11.976  36.455  0.00  0.00    +0.000 A 
ATOM     16  C   UNL     1      15.596  12.651  35.847  0.00  0.00    +0.000 A 
ATOM     17  C   UNL     1      14.307  12.540  36.304  0.00  0.00    +0.000 A 
ATOM     18  C   UNL     1      14.044  11.739  37.397  0.00  0.00    +0.000 A 
ATOM     19  C   UNL     1      15.080  11.059  38.012  0.00  0.00    +0.000 A 
ENDBRANCH  13  14
ENDBRANCH   3  13
TORSDOF 3
ENDMDL
MODEL 7
REMARK VINA RESULT:      -5.9     21.705     22.496
REMARK  Name = 
REMARK  3 active torsions:
REMARK  status: ('A' for Active; 'I' for Inactive)
REMARK    1  A    between atoms: C_6  and  C_7
REMARK    2  A    between atoms: N_9  and  C_10
REMARK    3  A    between atoms: C_10  and  C_11
REMARK                            x       y       z     vdW  Elec       q    Type
REMARK                         _______ _______ _______ _____ _____    ______ ____
ROOT
ATOM      1  C   UNL     1      15.692  -8.559  25.951  0.00  0.00    +0.000 C 
ATOM      2  O   UNL     1      16.073  -9.499  26.677  0.00  0.00    +0.000 OA
ATOM      3  N   UNL     1      16.215  -7.248  26.107  0.00  0.00    +0.000 NA
ENDROOT
BRANCH   1   9
ATOM      4  N   UNL     1      16.387  -9.423  23.114  0.00  0.00    +0.000 NA
ATOM      5  C   UNL     1      15.058  -9.242  23.653  0.00  0.00    +0.000 A 
ATOM      6  S   UNL     1      13.580  -9.467  22.835  0.00  0.00    +0.000 S 
ATOM      7  C   UNL     1      12.502  -9.077  24.077  0.00  0.00    +0.000 A 
ATOM      8  C   UNL     1      13.320  -8.774  25.120  0.00  0.00    +0.000 A 
ATOM      9  C   UNL     1      14.666  -8.857  24.911  0.00  0.00    +0.000 A 
ATOM     10  C   UNL     1      12.388  -8.413  26.273  0.00  0.00    +0.000 C 
ATOM     11  C   UNL     1      11.065  -9.034  25.918  0.00  0.00    +0.000 C 
ATOM     12  C   UNL     1      11.060  -8.956  24.408  0.00  0.00    +0.000 C 
ENDBRANCH   1   9
BRANCH   3  13
ATOM     13  C   UNL     1      17.204  -7.009  27.126  0.00  0.00    +0.000 C 
BRANCH  13  14
ATOM     14  C   UNL     1      18.579  -6.888  26.521  0.00  0.00    +0.000 A 
ATOM     15  C   UNL     1      19.097  -5.655  26.191  0.00  0.00    +0.000 A 
ATOM     16  C   UNL     1      20.358  -5.569  25.639  0.00  0.00    +0.000 A 
ATOM     17  C   UNL     1      21.115  -6.689  25.409  0.00  0.00    +0.000 A 
ATOM     18  C   UNL     1      20.604  -7.929  25.735  0.00  0.00    +0.000 A 
ATOM     19  C   UNL     1      19.341  -8.024  26.289  0.00  0.00    +0.000 A 
ENDBRANCH  13  14
ENDBRANCH   3  13
TORSDOF 3
ENDMDL
MODEL 8
REMARK VINA RESULT:      -5.9      4.260      6.387
REMARK  Name = 
REMARK  3 active torsions:
REMARK  status: ('A' for Active; 'I' for Inactive)
REMARK    1  A    between atoms: C_6  and  C_7
REMARK    2  A    between atoms: N_9  and  C_10
REMARK    3  A    between atoms: C_10  and  C_11
REMARK                            x       y       z     vdW  Elec       q    Type
REMARK                         _______ _______ _______ _____ _____    ______ ____
ROOT
ATOM      1  C   UNL     1      20.101  11.427  38.395  0.00  0.00    +0.000 C 
ATOM      2  O   UNL     1      19.307  12.268  37.925  0.00  0.00    +0.000 OA
ATOM      3  N   UNL     1      19.635  10.290  39.106  0.00  0.00    +0.000 NA
ENDROOT
BRANCH   1   9
ATOM      4  N   UNL     1      21.659  13.656  39.768  0.00  0.00    +0.000 NA
ATOM      5  C   UNL     1      22.191  12.684  38.841  0.00  0.00    +0.000 A 
ATOM      6  S   UNL     1      23.804  12.556  38.302  0.00  0.00    +0.000 S 
ATOM      7  C   UNL     1      23.657  11.226  37.270  0.00  0.00    +0.000 A 
ATOM      8  C   UNL     1      22.340  10.899  37.362  0.00  0.00    +0.000 A 
ATOM      9  C   UNL     1      21.558  11.657  38.185  0.00  0.00    +0.000 A 
ATOM     10  C   UNL     1      22.157   9.696  36.442  0.00  0.00    +0.000 C 
ATOM     11  C   UNL     1      23.535   9.117  36.273  0.00  0.00    +0.000 C 
ATOM     12  C   UNL     1      24.418  10.342  36.351  0.00  0.00    +0.000 C 
ENDBRANCH   1   9
BRANCH   3  13
ATOM     13  C   UNL     1      18.217  10.111  39.283  0.00  0.00    +0.000 C 
BRANCH  13  14
ATOM     14  C   UNL     1      17.920   8.769  39.901  0.00  0.00    +0.000 A 
ATOM     15  C   UNL     1      16.804   8.587  40.687  0.00  0.00    +0.000 A 
ATOM     16  C   UNL     1      16.552   7.350  41.242  0.00  0.00    +0.000 A 
ATOM     17  C   UNL     1      17.391   6.287  41.027  0.00  0.00    +0.000 A 
ATOM     18  C   UNL     1      18.513   6.459  40.242  0.00  0.00    +0.000 A 
ATOM     19  C   UNL     1      18.773   7.696  39.682  0.00  0.00    +0.000 A 
ENDBRANCH  13  14
ENDBRANCH   3  13
TORSDOF 3
ENDMDL
MODEL 9
REMARK VINA RESULT:      -5.9      4.286      7.615
REMARK  Name = 
REMARK  3 active torsions:
REMARK  status: ('A' for Active; 'I' for Inactive)
REMARK    1  A    between atoms: C_6  and  C_7
REMARK    2  A    between atoms: N_9  and  C_10
REMARK    3  A    between atoms: C_10  and  C_11
REMARK                            x       y       z     vdW  Elec       q    Type
REMARK                         _______ _______ _______ _____ _____    ______ ____
ROOT
ATOM      1  C   UNL     1      20.085   9.977  38.778  0.00  0.00    +0.000 C 
ATOM      2  O   UNL     1      19.811  11.052  39.351  0.00  0.00    +0.000 OA
ATOM      3  N   UNL     1      19.099   9.254  38.058  0.00  0.00    +0.000 NA
ENDROOT
BRANCH   1   9
ATOM      4  N   UNL     1      21.118   8.333  41.126  0.00  0.00    +0.000 NA
ATOM      5  C   UNL     1      21.877   8.741  39.965  0.00  0.00    +0.000 A 
ATOM      6  S   UNL     1      23.515   8.401  39.641  0.00  0.00    +0.000 S 
ATOM      7  C   UNL     1      23.681   9.182  38.151  0.00  0.00    +0.000 A 
ATOM      8  C   UNL     1      22.444   9.702  37.928  0.00  0.00    +0.000 A 
ATOM      9  C   UNL     1      21.486   9.477  38.875  0.00  0.00    +0.000 A 
ATOM     10  C   UNL     1      22.544  10.422  36.588  0.00  0.00    +0.000 C 
ATOM     11  C   UNL     1      23.739   9.817  35.904  0.00  0.00    +0.000 C 
ATOM     12  C   UNL     1      24.647   9.483  37.065  0.00  0.00    +0.000 C 
ENDBRANCH   1   9
BRANCH   3  13
ATOM     13  C   UNL     1      17.759   9.777  37.993  0.00  0.00    +0.000 C 
BRANCH  13  14
ATOM     14  C   UNL     1      17.400  10.159  36.580  0.00  0.00    +0.000 A 
ATOM     15  C   UNL     1      16.362  11.028  36.327  0.00  0.00    +0.000 A 
ATOM     16  C   UNL     1      16.053  11.364  35.025  0.00  0.00    +0.000 A 
ATOM     17  C   UNL     1      16.760  10.850  33.968  0.00  0.00    +0.000 A 
ATOM     18  C   UNL     1      17.801   9.977  34.211  0.00  0.00    +0.000 A 
ATOM     19  C   UNL     1      18.118   9.636  35.513  0.00  0.00    +0.000 A 
ENDBRANCH  13  14
ENDBRANCH   3  13
TORSDOF 3
ENDMDL
MODEL 10
REMARK VINA RESULT:      -5.8     20.313     21.610
REMARK  Name = 
REMARK  3 active torsions:
REMARK  status: ('A' for Active; 'I' for Inactive)
REMARK    1  A    between atoms: C_6  and  C_7
REMARK    2  A    between atoms: N_9  and  C_10
REMARK    3  A    between atoms: C_10  and  C_11
REMARK                            x       y       z     vdW  Elec       q    Type
REMARK                         _______ _______ _______ _____ _____    ______ ____
ROOT
ATOM      1  C   UNL     1      26.729  23.487  25.426  0.00  0.00    +0.000 C 
ATOM      2  O   UNL     1      25.865  22.638  25.124  0.00  0.00    +0.000 OA
ATOM      3  N   UNL     1      26.365  24.801  25.821  0.00  0.00    +0.000 NA
ENDROOT
BRANCH   1   9
ATOM      4  N   UNL     1      28.276  23.225  22.814  0.00  0.00    +0.000 NA
ATOM      5  C   UNL     1      28.789  22.979  24.143  0.00  0.00    +0.000 A 
ATOM      6  S   UNL     1      30.368  22.488  24.557  0.00  0.00    +0.000 S 
ATOM      7  C   UNL     1      30.213  22.411  26.238  0.00  0.00    +0.000 A 
ATOM      8  C   UNL     1      28.920  22.772  26.452  0.00  0.00    +0.000 A 
ATOM      9  C   UNL     1      28.160  23.074  25.359  0.00  0.00    +0.000 A 
ATOM     10  C   UNL     1      28.730  22.717  27.965  0.00  0.00    +0.000 C 
ATOM     11  C   UNL     1      30.117  22.804  28.539  0.00  0.00    +0.000 C 
ATOM     12  C   UNL     1      30.951  22.104  27.489  0.00  0.00    +0.000 C 
ENDBRANCH   1   9
BRANCH   3  13
ATOM     13  C   UNL     1      24.970  25.153  25.870  0.00  0.00    +0.000 C 
BRANCH  13  14
ATOM     14  C   UNL     1      24.575  25.587  27.258  0.00  0.00    +0.000 A 
ATOM     15  C   UNL     1      25.370  25.287  28.342  0.00  0.00    +0.000 A 
ATOM     16  C   UNL     1      24.988  25.695  29.603  0.00  0.00    +0.000 A 
ATOM     17  C   UNL     1      23.828  26.399  29.806  0.00  0.00    +0.000 A 
ATOM     18  C   UNL     1      23.025  26.703  28.726  0.00  0.00    +0.000 A 
ATOM     19  C   UNL     1      23.400  26.298  27.459  0.00  0.00    +0.000 A 
ENDBRANCH  13  14
ENDBRANCH   3  13
TORSDOF 3
ENDMDL
