MODEL 1
REMARK VINA RESULT:      -8.7      0.000      0.000
REMARK  Name = 
REMARK  7 active torsions:
REMARK  status: ('A' for Active; 'I' for Inactive)
REMARK    1  A    between atoms: C_2  and  C_3
REMARK    2  A    between atoms: C_3  and  C_5
REMARK    3  A    between atoms: C_10  and  N_11
REMARK    4  A    between atoms: C_12  and  C_14
REMARK    5  A    between atoms: C_14  and  O_15
REMARK    6  A    between atoms: O_15  and  C_16
REMARK    7  A    between atoms: C_16  and  C_18
REMARK                            x       y       z     vdW  Elec       q    Type
REMARK                         _______ _______ _______ _____ _____    ______ ____
ROOT
ATOM      1  C   UNL     1      35.804   0.232  16.869  0.00  0.00    +0.000 C 
ATOM      2  O   UNL     1      34.629  -0.157  16.932  0.00  0.00    +0.000 OA
ENDROOT
BRANCH   1   3
ATOM      3  C   UNL     1      36.836  -0.694  16.482  0.00  0.00    +0.000 A 
ATOM      4  C   UNL     1      37.380  -1.519  17.445  0.00  0.00    +0.000 A 
ATOM      5  C   UNL     1      36.928  -1.435  18.737  0.00  0.00    +0.000 A 
ATOM      6  C   UNL     1      37.445  -2.236  19.712  0.00  0.00    +0.000 A 
ATOM      7  C   UNL     1      38.422  -3.135  19.423  0.00  0.00    +0.000 A 
ATOM      8  C   UNL     1      38.881  -3.225  18.132  0.00  0.00    +0.000 A 
ATOM      9  C   UNL     1      38.384  -2.439  17.135  0.00  0.00    +0.000 A 
ATOM     10  C   UNL     1      38.823  -2.502  15.825  0.00  0.00    +0.000 A 
ATOM     11  C   UNL     1      38.308  -1.701  14.838  0.00  0.00    +0.000 A 
ATOM     12  C   UNL     1      38.766  -1.788  13.540  0.00  0.00    +0.000 A 
ATOM     13  C   UNL     1      38.199  -0.949  12.608  0.00  0.00    +0.000 A 
ATOM     14  C   UNL     1      37.220  -0.053  12.915  0.00  0.00    +0.000 A 
ATOM     15  C   UNL     1      36.772   0.018  14.234  0.00  0.00    +0.000 A 
ATOM     16  C   UNL     1      37.318  -0.808  15.191  0.00  0.00    +0.000 A 
ENDBRANCH   1   3
BRANCH   1  17
ATOM     17  O   UNL     1      36.120   1.532  17.166  0.00  0.00    +0.000 OA
BRANCH  17  18
ATOM     18  C   UNL     1      35.583   2.650  16.549  0.00  0.00    +0.000 C 
BRANCH  18  20
ATOM     19  N   UNL     1      37.999   3.457  16.642  0.00  0.00    +0.000 NA
ATOM     20  C   UNL     1      36.684   3.534  16.105  0.00  0.00    +0.000 C 
ATOM     21  O   UNL     1      36.467   4.387  15.227  0.00  0.00    +0.000 OA
BRANCH  19  27
ATOM     22  C   UNL     1      39.382   5.355  16.989  0.00  0.00    +0.000 A 
ATOM     23  C   UNL     1      40.313   6.235  16.563  0.00  0.00    +0.000 A 
ATOM     24  C   UNL     1      40.879   6.159  15.281  0.00  0.00    +0.000 A 
ATOM     25  C   UNL     1      40.452   5.145  14.463  0.00  0.00    +0.000 A 
ATOM     26  C   UNL     1      39.507   4.227  14.856  0.00  0.00    +0.000 A 
ATOM     27  C   UNL     1      38.982   4.357  16.142  0.00  0.00    +0.000 A 
BRANCH  22  28
ATOM     28  C   UNL     1      38.750   5.426  18.412  0.00  0.00    +0.000 C 
ATOM     29  C   UNL     1      38.186   6.982  18.259  0.00  0.00    +0.000 C 
BRANCH  28  31
ATOM     30  C   UNL     1      39.702   7.051  20.085  0.00  0.00    +0.000 C 
ATOM     31  C   UNL     1      40.091   5.893  19.221  0.00  0.00    +0.000 C 
ENDBRANCH  28  31
ENDBRANCH  22  28
ENDBRANCH  19  27
ENDBRANCH  18  20
ENDBRANCH  17  18
ENDBRANCH   1  17
TORSDOF 7
ENDMDL
MODEL 2
REMARK VINA RESULT:      -8.6      0.171      3.210
REMARK  Name = 
REMARK  7 active torsions:
REMARK  status: ('A' for Active; 'I' for Inactive)
REMARK    1  A    between atoms: C_2  and  C_3
REMARK    2  A    between atoms: C_3  and  C_5
REMARK    3  A    between atoms: C_10  and  N_11
REMARK    4  A    between atoms: C_12  and  C_14
REMARK    5  A    between atoms: C_14  and  O_15
REMARK    6  A    between atoms: O_15  and  C_16
REMARK    7  A    between atoms: C_16  and  C_18
REMARK                            x       y       z     vdW  Elec       q    Type
REMARK                         _______ _______ _______ _____ _____    ______ ____
ROOT
ATOM      1  C   UNL     1      35.825   0.336  16.908  0.00  0.00    +0.000 C 
ATOM      2  O   UNL     1      34.633  -0.005  16.930  0.00  0.00    +0.000 OA
ENDROOT
BRANCH   1   3
ATOM      3  C   UNL     1      36.834  -0.641  16.593  0.00  0.00    +0.000 A 
ATOM      4  C   UNL     1      37.272  -0.744  15.288  0.00  0.00    +0.000 A 
ATOM      5  C   UNL     1      36.736   0.081  14.332  0.00  0.00    +0.000 A 
ATOM      6  C   UNL     1      37.148   0.004  13.033  0.00  0.00    +0.000 A 
ATOM      7  C   UNL     1      38.096  -0.894  12.660  0.00  0.00    +0.000 A 
ATOM      8  C   UNL     1      38.636  -1.724  13.611  0.00  0.00    +0.000 A 
ATOM      9  C   UNL     1      38.247  -1.672  14.917  0.00  0.00    +0.000 A 
ATOM     10  C   UNL     1      38.769  -2.492  15.901  0.00  0.00    +0.000 A 
ATOM     11  C   UNL     1      38.362  -2.421  17.209  0.00  0.00    +0.000 A 
ATOM     12  C   UNL     1      38.902  -3.253  18.167  0.00  0.00    +0.000 A 
ATOM     13  C   UNL     1      38.440  -3.120  19.457  0.00  0.00    +0.000 A 
ATOM     14  C   UNL     1      37.488  -2.214  19.815  0.00  0.00    +0.000 A 
ATOM     15  C   UNL     1      36.956  -1.383  18.829  0.00  0.00    +0.000 A 
ATOM     16  C   UNL     1      37.397  -1.490  17.529  0.00  0.00    +0.000 A 
ENDBRANCH   1   3
BRANCH   1  17
ATOM     17  O   UNL     1      36.180   1.631  17.180  0.00  0.00    +0.000 OA
BRANCH  17  18
ATOM     18  C   UNL     1      35.657   2.755  16.561  0.00  0.00    +0.000 C 
BRANCH  18  20
ATOM     19  N   UNL     1      38.098   3.488  16.564  0.00  0.00    +0.000 NA
ATOM     20  C   UNL     1      36.769   3.598  16.069  0.00  0.00    +0.000 C 
ATOM     21  O   UNL     1      36.550   4.445  15.185  0.00  0.00    +0.000 OA
BRANCH  19  27
ATOM     22  C   UNL     1      39.577   5.322  16.852  0.00  0.00    +0.000 A 
ATOM     23  C   UNL     1      40.521   6.167  16.384  0.00  0.00    +0.000 A 
ATOM     24  C   UNL     1      41.017   6.078  15.074  0.00  0.00    +0.000 A 
ATOM     25  C   UNL     1      40.505   5.091  14.272  0.00  0.00    +0.000 A 
ATOM     26  C   UNL     1      39.543   4.210  14.708  0.00  0.00    +0.000 A 
ATOM     27  C   UNL     1      39.091   4.350  16.021  0.00  0.00    +0.000 A 
BRANCH  22  28
ATOM     28  C   UNL     1      39.023   5.407  18.307  0.00  0.00    +0.000 C 
ATOM     29  C   UNL     1      38.207   6.838  18.084  0.00  0.00    +0.000 C 
BRANCH  28  31
ATOM     30  C   UNL     1      39.804   6.946  20.142  0.00  0.00    +0.000 C 
ATOM     31  C   UNL     1      40.314   6.142  18.987  0.00  0.00    +0.000 C 
ENDBRANCH  28  31
ENDBRANCH  22  28
ENDBRANCH  19  27
ENDBRANCH  18  20
ENDBRANCH  17  18
ENDBRANCH   1  17
TORSDOF 7
ENDMDL
MODEL 3
REMARK VINA RESULT:      -8.4      1.648      3.002
REMARK  Name = 
REMARK  7 active torsions:
REMARK  status: ('A' for Active; 'I' for Inactive)
REMARK    1  A    between atoms: C_2  and  C_3
REMARK    2  A    between atoms: C_3  and  C_5
REMARK    3  A    between atoms: C_10  and  N_11
REMARK    4  A    between atoms: C_12  and  C_14
REMARK    5  A    between atoms: C_14  and  O_15
REMARK    6  A    between atoms: O_15  and  C_16
REMARK    7  A    between atoms: C_16  and  C_18
REMARK                            x       y       z     vdW  Elec       q    Type
REMARK                         _______ _______ _______ _____ _____    ______ ____
ROOT
ATOM      1  C   UNL     1      36.918   0.632  15.163  0.00  0.00    +0.000 C 
ATOM      2  O   UNL     1      36.277   0.839  14.122  0.00  0.00    +0.000 OA
ENDROOT
BRANCH   1   3
ATOM      3  C   UNL     1      37.770  -0.524  15.249  0.00  0.00    +0.000 A 
ATOM      4  C   UNL     1      39.091  -0.404  14.864  0.00  0.00    +0.000 A 
ATOM      5  C   UNL     1      39.552   0.806  14.413  0.00  0.00    +0.000 A 
ATOM      6  C   UNL     1      40.851   0.957  14.026  0.00  0.00    +0.000 A 
ATOM      7  C   UNL     1      41.716  -0.090  14.077  0.00  0.00    +0.000 A 
ATOM      8  C   UNL     1      41.261  -1.305  14.528  0.00  0.00    +0.000 A 
ATOM      9  C   UNL     1      39.969  -1.489  14.922  0.00  0.00    +0.000 A 
ATOM     10  C   UNL     1      39.477  -2.697  15.380  0.00  0.00    +0.000 A 
ATOM     11  C   UNL     1      38.173  -2.859  15.773  0.00  0.00    +0.000 A 
ATOM     12  C   UNL     1      37.712  -4.077  16.225  0.00  0.00    +0.000 A 
ATOM     13  C   UNL     1      36.390  -4.157  16.600  0.00  0.00    +0.000 A 
ATOM     14  C   UNL     1      35.536  -3.098  16.541  0.00  0.00    +0.000 A 
ATOM     15  C   UNL     1      36.024  -1.875  16.080  0.00  0.00    +0.000 A 
ATOM     16  C   UNL     1      37.342  -1.760  15.698  0.00  0.00    +0.000 A 
ENDBRANCH   1   3
BRANCH   1  17
ATOM     17  O   UNL     1      36.819   1.496  16.222  0.00  0.00    +0.000 OA
BRANCH  17  18
ATOM     18  C   UNL     1      36.200   2.734  16.194  0.00  0.00    +0.000 C 
BRANCH  18  20
ATOM     19  N   UNL     1      38.543   3.714  16.406  0.00  0.00    +0.000 NA
ATOM     20  C   UNL     1      37.213   3.774  15.907  0.00  0.00    +0.000 C 
ATOM     21  O   UNL     1      36.904   4.751  15.202  0.00  0.00    +0.000 OA
BRANCH  19  27
ATOM     22  C   UNL     1      39.697   5.685  17.052  0.00  0.00    +0.000 A 
ATOM     23  C   UNL     1      40.537   6.707  16.783  0.00  0.00    +0.000 A 
ATOM     24  C   UNL     1      41.150   6.858  15.530  0.00  0.00    +0.000 A 
ATOM     25  C   UNL     1      40.863   5.920  14.571  0.00  0.00    +0.000 A 
ATOM     26  C   UNL     1      40.014   4.864  14.802  0.00  0.00    +0.000 A 
ATOM     27  C   UNL     1      39.436   4.769  16.069  0.00  0.00    +0.000 A 
BRANCH  22  28
ATOM     28  C   UNL     1      39.015   5.504  18.442  0.00  0.00    +0.000 C 
ATOM     29  C   UNL     1      38.202   6.954  18.412  0.00  0.00    +0.000 C 
BRANCH  28  31
ATOM     30  C   UNL     1      39.641   7.155  20.239  0.00  0.00    +0.000 C 
ATOM     31  C   UNL     1      40.231   6.099  19.358  0.00  0.00    +0.000 C 
ENDBRANCH  28  31
ENDBRANCH  22  28
ENDBRANCH  19  27
ENDBRANCH  18  20
ENDBRANCH  17  18
ENDBRANCH   1  17
TORSDOF 7
ENDMDL
MODEL 4
REMARK VINA RESULT:      -8.4      2.199      3.713
REMARK  Name = 
REMARK  7 active torsions:
REMARK  status: ('A' for Active; 'I' for Inactive)
REMARK    1  A    between atoms: C_2  and  C_3
REMARK    2  A    between atoms: C_3  and  C_5
REMARK    3  A    between atoms: C_10  and  N_11
REMARK    4  A    between atoms: C_12  and  C_14
REMARK    5  A    between atoms: C_14  and  O_15
REMARK    6  A    between atoms: O_15  and  C_16
REMARK    7  A    between atoms: C_16  and  C_18
REMARK                            x       y       z     vdW  Elec       q    Type
REMARK                         _______ _______ _______ _____ _____    ______ ____
ROOT
ATOM      1  C   UNL     1      38.195   1.965  14.893  0.00  0.00    +0.000 C 
ATOM      2  O   UNL     1      37.802   2.327  13.775  0.00  0.00    +0.000 OA
ENDROOT
BRANCH   1   3
ATOM      3  C   UNL     1      38.161   0.567  15.236  0.00  0.00    +0.000 A 
ATOM      4  C   UNL     1      37.030   0.063  15.847  0.00  0.00    +0.000 A 
ATOM      5  C   UNL     1      35.978   0.902  16.111  0.00  0.00    +0.000 A 
ATOM      6  C   UNL     1      34.847   0.435  16.714  0.00  0.00    +0.000 A 
ATOM      7  C   UNL     1      34.740  -0.872  17.068  0.00  0.00    +0.000 A 
ATOM      8  C   UNL     1      35.790  -1.719  16.807  0.00  0.00    +0.000 A 
ATOM      9  C   UNL     1      36.934  -1.283  16.205  0.00  0.00    +0.000 A 
ATOM     10  C   UNL     1      38.010  -2.107  15.929  0.00  0.00    +0.000 A 
ATOM     11  C   UNL     1      39.150  -1.646  15.322  0.00  0.00    +0.000 A 
ATOM     12  C   UNL     1      40.206  -2.493  15.058  0.00  0.00    +0.000 A 
ATOM     13  C   UNL     1      41.316  -1.953  14.448  0.00  0.00    +0.000 A 
ATOM     14  C   UNL     1      41.407  -0.639  14.100  0.00  0.00    +0.000 A 
ATOM     15  C   UNL     1      40.326   0.198  14.376  0.00  0.00    +0.000 A 
ATOM     16  C   UNL     1      39.201  -0.310  14.986  0.00  0.00    +0.000 A 
ENDBRANCH   1   3
BRANCH   1  17
ATOM     17  O   UNL     1      38.660   2.884  15.797  0.00  0.00    +0.000 OA
BRANCH  17  18
ATOM     18  C   UNL     1      38.955   4.208  15.516  0.00  0.00    +0.000 C 
BRANCH  18  20
ATOM     19  N   UNL     1      39.309   6.301  16.926  0.00  0.00    +0.000 NA
ATOM     20  C   UNL     1      38.715   5.024  16.726  0.00  0.00    +0.000 C 
ATOM     21  O   UNL     1      37.963   4.591  17.618  0.00  0.00    +0.000 OA
BRANCH  19  27
ATOM     22  C   UNL     1      39.947   6.932  19.124  0.00  0.00    +0.000 A 
ATOM     23  C   UNL     1      39.711   7.579  20.286  0.00  0.00    +0.000 A 
ATOM     24  C   UNL     1      38.537   8.316  20.502  0.00  0.00    +0.000 A 
ATOM     25  C   UNL     1      37.623   8.361  19.481  0.00  0.00    +0.000 A 
ATOM     26  C   UNL     1      37.823   7.718  18.282  0.00  0.00    +0.000 A 
ATOM     27  C   UNL     1      39.010   7.001  18.129  0.00  0.00    +0.000 A 
BRANCH  22  28
ATOM     28  C   UNL     1      41.250   6.115  18.869  0.00  0.00    +0.000 C 
ATOM     29  C   UNL     1      41.825   6.242  20.424  0.00  0.00    +0.000 C 
BRANCH  28  31
ATOM     30  C   UNL     1      43.016   6.809  17.212  0.00  0.00    +0.000 C 
ATOM     31  C   UNL     1      42.175   7.348  18.327  0.00  0.00    +0.000 C 
ENDBRANCH  28  31
ENDBRANCH  22  28
ENDBRANCH  19  27
ENDBRANCH  18  20
ENDBRANCH  17  18
ENDBRANCH   1  17
TORSDOF 7
ENDMDL
MODEL 5
REMARK VINA RESULT:      -8.3      2.202      4.114
REMARK  Name = 
REMARK  7 active torsions:
REMARK  status: ('A' for Active; 'I' for Inactive)
REMARK    1  A    between atoms: C_2  and  C_3
REMARK    2  A    between atoms: C_3  and  C_5
REMARK    3  A    between atoms: C_10  and  N_11
REMARK    4  A    between atoms: C_12  and  C_14
REMARK    5  A    between atoms: C_14  and  O_15
REMARK    6  A    between atoms: O_15  and  C_16
REMARK    7  A    between atoms: C_16  and  C_18
REMARK                            x       y       z     vdW  Elec       q    Type
REMARK                         _______ _______ _______ _____ _____    ______ ____
ROOT
ATOM      1  C   UNL     1      38.197   1.970  14.885  0.00  0.00    +0.000 C 
ATOM      2  O   UNL     1      37.858   2.334  13.750  0.00  0.00    +0.000 OA
ENDROOT
BRANCH   1   3
ATOM      3  C   UNL     1      38.211   0.566  15.202  0.00  0.00    +0.000 A 
ATOM      4  C   UNL     1      39.340  -0.170  14.904  0.00  0.00    +0.000 A 
ATOM      5  C   UNL     1      40.412   0.453  14.317  0.00  0.00    +0.000 A 
ATOM      6  C   UNL     1      41.543  -0.246  14.010  0.00  0.00    +0.000 A 
ATOM      7  C   UNL     1      41.630  -1.575  14.278  0.00  0.00    +0.000 A 
ATOM      8  C   UNL     1      40.560  -2.205  14.865  0.00  0.00    +0.000 A 
ATOM      9  C   UNL     1      39.416  -1.535  15.185  0.00  0.00    +0.000 A 
ATOM     10  C   UNL     1      38.321  -2.138  15.775  0.00  0.00    +0.000 A 
ATOM     11  C   UNL     1      37.180  -1.443  16.088  0.00  0.00    +0.000 A 
ATOM     12  C   UNL     1      36.104  -2.073  16.677  0.00  0.00    +0.000 A 
ATOM     13  C   UNL     1      34.996  -1.306  16.959  0.00  0.00    +0.000 A 
ATOM     14  C   UNL     1      34.925   0.026  16.684  0.00  0.00    +0.000 A 
ATOM     15  C   UNL     1      36.026   0.641  16.088  0.00  0.00    +0.000 A 
ATOM     16  C   UNL     1      37.150  -0.097  15.793  0.00  0.00    +0.000 A 
ENDBRANCH   1   3
BRANCH   1  17
ATOM     17  O   UNL     1      38.557   2.893  15.831  0.00  0.00    +0.000 OA
BRANCH  17  18
ATOM     18  C   UNL     1      38.949   4.197  15.574  0.00  0.00    +0.000 C 
BRANCH  18  20
ATOM     19  N   UNL     1      39.260   6.328  16.936  0.00  0.00    +0.000 NA
ATOM     20  C   UNL     1      38.731   5.016  16.786  0.00  0.00    +0.000 C 
ATOM     21  O   UNL     1      38.059   4.554  17.725  0.00  0.00    +0.000 OA
BRANCH  19  27
ATOM     22  C   UNL     1      39.951   6.960  19.118  0.00  0.00    +0.000 A 
ATOM     23  C   UNL     1      39.742   7.606  20.285  0.00  0.00    +0.000 A 
ATOM     24  C   UNL     1      38.573   8.343  20.530  0.00  0.00    +0.000 A 
ATOM     25  C   UNL     1      37.635   8.386  19.531  0.00  0.00    +0.000 A 
ATOM     26  C   UNL     1      37.806   7.743  18.328  0.00  0.00    +0.000 A 
ATOM     27  C   UNL     1      38.990   7.027  18.146  0.00  0.00    +0.000 A 
BRANCH  22  28
ATOM     28  C   UNL     1      41.248   6.144  18.831  0.00  0.00    +0.000 C 
ATOM     29  C   UNL     1      41.842   6.239  20.381  0.00  0.00    +0.000 C 
BRANCH  28  31
ATOM     30  C   UNL     1      43.067   6.839  17.233  0.00  0.00    +0.000 C 
ATOM     31  C   UNL     1      42.171   7.384  18.301  0.00  0.00    +0.000 C 
ENDBRANCH  28  31
ENDBRANCH  22  28
ENDBRANCH  19  27
ENDBRANCH  18  20
ENDBRANCH  17  18
ENDBRANCH   1  17
TORSDOF 7
ENDMDL
MODEL 6
REMARK VINA RESULT:      -8.2      2.093      3.936
REMARK  Name = 
REMARK  7 active torsions:
REMARK  status: ('A' for Active; 'I' for Inactive)
REMARK    1  A    between atoms: C_2  and  C_3
REMARK    2  A    between atoms: C_3  and  C_5
REMARK    3  A    between atoms: C_10  and  N_11
REMARK    4  A    between atoms: C_12  and  C_14
REMARK    5  A    between atoms: C_14  and  O_15
REMARK    6  A    between atoms: O_15  and  C_16
REMARK    7  A    between atoms: C_16  and  C_18
REMARK                            x       y       z     vdW  Elec       q    Type
REMARK                         _______ _______ _______ _____ _____    ______ ____
ROOT
ATOM      1  C   UNL     1      38.044   1.427  14.743  0.00  0.00    +0.000 C 
ATOM      2  O   UNL     1      37.658   1.598  13.577  0.00  0.00    +0.000 OA
ENDROOT
BRANCH   1   3
ATOM      3  C   UNL     1      38.002   0.106  15.314  0.00  0.00    +0.000 A 
ATOM      4  C   UNL     1      39.085  -0.730  15.131  0.00  0.00    +0.000 A 
ATOM      5  C   UNL     1      40.166  -0.283  14.414  0.00  0.00    +0.000 A 
ATOM      6  C   UNL     1      41.251  -1.085  14.216  0.00  0.00    +0.000 A 
ATOM      7  C   UNL     1      41.284  -2.344  14.724  0.00  0.00    +0.000 A 
ATOM      8  C   UNL     1      40.205  -2.799  15.443  0.00  0.00    +0.000 A 
ATOM      9  C   UNL     1      39.105  -2.023  15.659  0.00  0.00    +0.000 A 
ATOM     10  C   UNL     1      38.002  -2.448  16.376  0.00  0.00    +0.000 A 
ATOM     11  C   UNL     1      36.906  -1.648  16.582  0.00  0.00    +0.000 A 
ATOM     12  C   UNL     1      35.822  -2.101  17.303  0.00  0.00    +0.000 A 
ATOM     13  C   UNL     1      34.761  -1.238  17.463  0.00  0.00    +0.000 A 
ATOM     14  C   UNL     1      34.744   0.022  16.947  0.00  0.00    +0.000 A 
ATOM     15  C   UNL     1      35.853   0.458  16.221  0.00  0.00    +0.000 A 
ATOM     16  C   UNL     1      36.931  -0.379  16.043  0.00  0.00    +0.000 A 
ENDBRANCH   1   3
BRANCH   1  17
ATOM     17  O   UNL     1      38.508   2.483  15.482  0.00  0.00    +0.000 OA
BRANCH  17  18
ATOM     18  C   UNL     1      38.043   3.785  15.401  0.00  0.00    +0.000 C 
BRANCH  18  20
ATOM     19  N   UNL     1      38.891   5.812  16.694  0.00  0.00    +0.000 NA
ATOM     20  C   UNL     1      38.361   4.492  16.661  0.00  0.00    +0.000 C 
ATOM     21  O   UNL     1      38.165   3.922  17.749  0.00  0.00    +0.000 OA
BRANCH  19  27
ATOM     22  C   UNL     1      38.465   7.534  18.271  0.00  0.00    +0.000 A 
ATOM     23  C   UNL     1      38.686   8.128  19.463  0.00  0.00    +0.000 A 
ATOM     24  C   UNL     1      39.606   7.617  20.391  0.00  0.00    +0.000 A 
ATOM     25  C   UNL     1      40.284   6.477  20.045  0.00  0.00    +0.000 A 
ATOM     26  C   UNL     1      40.089   5.839  18.843  0.00  0.00    +0.000 A 
ATOM     27  C   UNL     1      39.161   6.397  17.962  0.00  0.00    +0.000 A 
BRANCH  22  28
ATOM     28  C   UNL     1      37.442   8.088  17.234  0.00  0.00    +0.000 C 
ATOM     29  C   UNL     1      38.435   9.291  16.657  0.00  0.00    +0.000 C 
BRANCH  28  31
ATOM     30  C   UNL     1      35.843  10.029  17.380  0.00  0.00    +0.000 C 
ATOM     31  C   UNL     1      36.644   9.101  18.238  0.00  0.00    +0.000 C 
ENDBRANCH  28  31
ENDBRANCH  22  28
ENDBRANCH  19  27
ENDBRANCH  18  20
ENDBRANCH  17  18
ENDBRANCH   1  17
TORSDOF 7
ENDMDL
MODEL 7
REMARK VINA RESULT:      -8.2      2.101      3.481
REMARK  Name = 
REMARK  7 active torsions:
REMARK  status: ('A' for Active; 'I' for Inactive)
REMARK    1  A    between atoms: C_2  and  C_3
REMARK    2  A    between atoms: C_3  and  C_5
REMARK    3  A    between atoms: C_10  and  N_11
REMARK    4  A    between atoms: C_12  and  C_14
REMARK    5  A    between atoms: C_14  and  O_15
REMARK    6  A    between atoms: O_15  and  C_16
REMARK    7  A    between atoms: C_16  and  C_18
REMARK                            x       y       z     vdW  Elec       q    Type
REMARK                         _______ _______ _______ _____ _____    ______ ____
ROOT
ATOM      1  C   UNL     1      37.752   1.448  14.937  0.00  0.00    +0.000 C 
ATOM      2  O   UNL     1      37.280   1.688  13.815  0.00  0.00    +0.000 OA
ENDROOT
BRANCH   1   3
ATOM      3  C   UNL     1      37.861   0.083  15.380  0.00  0.00    +0.000 A 
ATOM      4  C   UNL     1      36.804  -0.475  16.070  0.00  0.00    +0.000 A 
ATOM      5  C   UNL     1      35.685   0.281  16.314  0.00  0.00    +0.000 A 
ATOM      6  C   UNL     1      34.624  -0.242  16.993  0.00  0.00    +0.000 A 
ATOM      7  C   UNL     1      34.653  -1.523  17.444  0.00  0.00    +0.000 A 
ATOM      8  C   UNL     1      35.770  -2.286  17.204  0.00  0.00    +0.000 A 
ATOM      9  C   UNL     1      36.847  -1.794  16.528  0.00  0.00    +0.000 A 
ATOM     10  C   UNL     1      37.987  -2.533  16.270  0.00  0.00    +0.000 A 
ATOM     11  C   UNL     1      39.059  -2.016  15.587  0.00  0.00    +0.000 A 
ATOM     12  C   UNL     1      40.181  -2.779  15.344  0.00  0.00    +0.000 A 
ATOM     13  C   UNL     1      41.214  -2.187  14.653  0.00  0.00    +0.000 A 
ATOM     14  C   UNL     1      41.169  -0.901  14.209  0.00  0.00    +0.000 A 
ATOM     15  C   UNL     1      40.023  -0.148  14.465  0.00  0.00    +0.000 A 
ATOM     16  C   UNL     1      38.971  -0.710  15.154  0.00  0.00    +0.000 A 
ENDBRANCH   1   3
BRANCH   1  17
ATOM     17  O   UNL     1      38.166   2.472  15.748  0.00  0.00    +0.000 OA
BRANCH  17  18
ATOM     18  C   UNL     1      37.764   3.793  15.644  0.00  0.00    +0.000 C 
BRANCH  18  20
ATOM     19  N   UNL     1      38.671   5.855  16.834  0.00  0.00    +0.000 NA
ATOM     20  C   UNL     1      38.177   4.522  16.863  0.00  0.00    +0.000 C 
ATOM     21  O   UNL     1      38.096   3.960  17.970  0.00  0.00    +0.000 OA
BRANCH  19  27
ATOM     22  C   UNL     1      38.425   7.645  18.374  0.00  0.00    +0.000 A 
ATOM     23  C   UNL     1      38.742   8.261  19.533  0.00  0.00    +0.000 A 
ATOM     24  C   UNL     1      39.682   7.728  20.428  0.00  0.00    +0.000 A 
ATOM     25  C   UNL     1      40.278   6.542  20.084  0.00  0.00    +0.000 A 
ATOM     26  C   UNL     1      39.985   5.881  18.915  0.00  0.00    +0.000 A 
ATOM     27  C   UNL     1      39.042   6.462  18.067  0.00  0.00    +0.000 A 
BRANCH  22  28
ATOM     28  C   UNL     1      37.378   8.224  17.375  0.00  0.00    +0.000 C 
ATOM     29  C   UNL     1      38.319   9.502  16.880  0.00  0.00    +0.000 C 
BRANCH  28  31
ATOM     30  C   UNL     1      36.263  10.446  17.779  0.00  0.00    +0.000 C 
ATOM     31  C   UNL     1      36.540   9.134  18.443  0.00  0.00    +0.000 C 
ENDBRANCH  28  31
ENDBRANCH  22  28
ENDBRANCH  19  27
ENDBRANCH  18  20
ENDBRANCH  17  18
ENDBRANCH   1  17
TORSDOF 7
ENDMDL
MODEL 8
REMARK VINA RESULT:      -8.1      2.974      4.730
REMARK  Name = 
REMARK  7 active torsions:
REMARK  status: ('A' for Active; 'I' for Inactive)
REMARK    1  A    between atoms: C_2  and  C_3
REMARK    2  A    between atoms: C_3  and  C_5
REMARK    3  A    between atoms: C_10  and  N_11
REMARK    4  A    between atoms: C_12  and  C_14
REMARK    5  A    between atoms: C_14  and  O_15
REMARK    6  A    between atoms: O_15  and  C_16
REMARK    7  A    between atoms: C_16  and  C_18
REMARK                            x       y       z     vdW  Elec       q    Type
REMARK                         _______ _______ _______ _____ _____    ______ ____
ROOT
ATOM      1  C   UNL     1      36.797  -1.060  17.290  0.00  0.00    +0.000 C 
ATOM      2  O   UNL     1      37.602  -1.251  18.214  0.00  0.00    +0.000 OA
ENDROOT
BRANCH   1   3
ATOM      3  C   UNL     1      36.830  -1.920  16.137  0.00  0.00    +0.000 A 
ATOM      4  C   UNL     1      37.970  -1.943  15.359  0.00  0.00    +0.000 A 
ATOM      5  C   UNL     1      39.035  -1.150  15.704  0.00  0.00    +0.000 A 
ATOM      6  C   UNL     1      40.176  -1.150  14.957  0.00  0.00    +0.000 A 
ATOM      7  C   UNL     1      40.281  -1.935  13.853  0.00  0.00    +0.000 A 
ATOM      8  C   UNL     1      39.219  -2.731  13.501  0.00  0.00    +0.000 A 
ATOM      9  C   UNL     1      38.065  -2.755  14.227  0.00  0.00    +0.000 A 
ATOM     10  C   UNL     1      36.977  -3.543  13.902  0.00  0.00    +0.000 A 
ATOM     11  C   UNL     1      35.825  -3.551  14.648  0.00  0.00    +0.000 A 
ATOM     12  C   UNL     1      34.757  -4.349  14.297  0.00  0.00    +0.000 A 
ATOM     13  C   UNL     1      33.638  -4.299  15.097  0.00  0.00    +0.000 A 
ATOM     14  C   UNL     1      33.549  -3.505  16.200  0.00  0.00    +0.000 A 
ATOM     15  C   UNL     1      34.642  -2.707  16.535  0.00  0.00    +0.000 A 
ATOM     16  C   UNL     1      35.777  -2.734  15.757  0.00  0.00    +0.000 A 
ENDBRANCH   1   3
BRANCH   1  17
ATOM     17  O   UNL     1      35.885  -0.040  17.364  0.00  0.00    +0.000 OA
BRANCH  17  18
ATOM     18  C   UNL     1      36.114   1.203  17.931  0.00  0.00    +0.000 C 
BRANCH  18  20
ATOM     19  N   UNL     1      35.715   2.069  15.568  0.00  0.00    +0.000 NA
ATOM     20  C   UNL     1      36.309   2.197  16.853  0.00  0.00    +0.000 C 
ATOM     21  O   UNL     1      37.023   3.194  17.063  0.00  0.00    +0.000 OA
BRANCH  19  27
ATOM     22  C   UNL     1      37.046   2.888  13.782  0.00  0.00    +0.000 A 
ATOM     23  C   UNL     1      37.332   3.824  12.851  0.00  0.00    +0.000 A 
ATOM     24  C   UNL     1      36.562   4.987  12.702  0.00  0.00    +0.000 A 
ATOM     25  C   UNL     1      35.493   5.147  13.545  0.00  0.00    +0.000 A 
ATOM     26  C   UNL     1      35.165   4.221  14.507  0.00  0.00    +0.000 A 
ATOM     27  C   UNL     1      35.970   3.085  14.605  0.00  0.00    +0.000 A 
BRANCH  22  28
ATOM     28  C   UNL     1      37.891   1.589  13.953  0.00  0.00    +0.000 C 
ATOM     29  C   UNL     1      39.337   2.370  14.202  0.00  0.00    +0.000 C 
BRANCH  28  31
ATOM     30  C   UNL     1      37.345   0.172  11.942  0.00  0.00    +0.000 C 
ATOM     31  C   UNL     1      38.201   1.324  12.371  0.00  0.00    +0.000 C 
ENDBRANCH  28  31
ENDBRANCH  22  28
ENDBRANCH  19  27
ENDBRANCH  18  20
ENDBRANCH  17  18
ENDBRANCH   1  17
TORSDOF 7
ENDMDL
MODEL 9
REMARK VINA RESULT:      -8.1      1.746      2.327
REMARK  Name = 
REMARK  7 active torsions:
REMARK  status: ('A' for Active; 'I' for Inactive)
REMARK    1  A    between atoms: C_2  and  C_3
REMARK    2  A    between atoms: C_3  and  C_5
REMARK    3  A    between atoms: C_10  and  N_11
REMARK    4  A    between atoms: C_12  and  C_14
REMARK    5  A    between atoms: C_14  and  O_15
REMARK    6  A    between atoms: O_15  and  C_16
REMARK    7  A    between atoms: C_16  and  C_18
REMARK                            x       y       z     vdW  Elec       q    Type
REMARK                         _______ _______ _______ _____ _____    ______ ____
ROOT
ATOM      1  C   UNL     1      37.469   1.107  14.900  0.00  0.00    +0.000 C 
ATOM      2  O   UNL     1      37.031   1.345  13.765  0.00  0.00    +0.000 OA
ENDROOT
BRANCH   1   3
ATOM      3  C   UNL     1      38.007  -0.196  15.190  0.00  0.00    +0.000 A 
ATOM      4  C   UNL     1      37.189  -1.133  15.790  0.00  0.00    +0.000 A 
ATOM      5  C   UNL     1      35.893  -0.798  16.092  0.00  0.00    +0.000 A 
ATOM      6  C   UNL     1      35.059  -1.700  16.684  0.00  0.00    +0.000 A 
ATOM      7  C   UNL     1      35.495  -2.950  16.989  0.00  0.00    +0.000 A 
ATOM      8  C   UNL     1      36.792  -3.292  16.690  0.00  0.00    +0.000 A 
ATOM      9  C   UNL     1      37.650  -2.414  16.098  0.00  0.00    +0.000 A 
ATOM     10  C   UNL     1      38.961  -2.724  15.784  0.00  0.00    +0.000 A 
ATOM     11  C   UNL     1      39.807  -1.824  15.188  0.00  0.00    +0.000 A 
ATOM     12  C   UNL     1      41.108  -2.164  14.886  0.00  0.00    +0.000 A 
ATOM     13  C   UNL     1      41.893  -1.203  14.289  0.00  0.00    +0.000 A 
ATOM     14  C   UNL     1      41.440   0.046  13.990  0.00  0.00    +0.000 A 
ATOM     15  C   UNL     1      40.119   0.367  14.304  0.00  0.00    +0.000 A 
ATOM     16  C   UNL     1      39.307  -0.571  14.901  0.00  0.00    +0.000 A 
ENDBRANCH   1   3
BRANCH   1  17
ATOM     17  O   UNL     1      37.442   2.073  15.871  0.00  0.00    +0.000 OA
BRANCH  17  18
ATOM     18  C   UNL     1      36.783   3.288  15.778  0.00  0.00    +0.000 C 
BRANCH  18  20
ATOM     19  N   UNL     1      39.109   4.225  16.230  0.00  0.00    +0.000 NA
ATOM     20  C   UNL     1      37.781   4.379  15.746  0.00  0.00    +0.000 C 
ATOM     21  O   UNL     1      37.461   5.488  15.281  0.00  0.00    +0.000 OA
BRANCH  19  27
ATOM     22  C   UNL     1      40.127   6.088  17.290  0.00  0.00    +0.000 A 
ATOM     23  C   UNL     1      40.949   7.160  17.268  0.00  0.00    +0.000 A 
ATOM     24  C   UNL     1      41.661   7.529  16.117  0.00  0.00    +0.000 A 
ATOM     25  C   UNL     1      41.494   6.756  14.997  0.00  0.00    +0.000 A 
ATOM     26  C   UNL     1      40.668   5.657  14.975  0.00  0.00    +0.000 A 
ATOM     27  C   UNL     1      39.987   5.341  16.152  0.00  0.00    +0.000 A 
BRANCH  22  28
ATOM     28  C   UNL     1      39.336   5.664  18.564  0.00  0.00    +0.000 C 
ATOM     29  C   UNL     1      38.273   6.942  18.524  0.00  0.00    +0.000 C 
BRANCH  28  31
ATOM     30  C   UNL     1      39.469   7.393  20.391  0.00  0.00    +0.000 C 
ATOM     31  C   UNL     1      40.303   6.383  19.668  0.00  0.00    +0.000 C 
ENDBRANCH  28  31
ENDBRANCH  22  28
ENDBRANCH  19  27
ENDBRANCH  18  20
ENDBRANCH  17  18
ENDBRANCH   1  17
TORSDOF 7
ENDMDL
MODEL 10
REMARK VINA RESULT:      -7.7      4.020      6.813
REMARK  Name = 
REMARK  7 active torsions:
REMARK  status: ('A' for Active; 'I' for Inactive)
REMARK    1  A    between atoms: C_2  and  C_3
REMARK    2  A    between atoms: C_3  and  C_5
REMARK    3  A    between atoms: C_10  and  N_11
REMARK    4  A    between atoms: C_12  and  C_14
REMARK    5  A    between atoms: C_14  and  O_15
REMARK    6  A    between atoms: O_15  and  C_16
REMARK    7  A    between atoms: C_16  and  C_18
REMARK                            x       y       z     vdW  Elec       q    Type
REMARK                         _______ _______ _______ _____ _____    ______ ____
ROOT
ATOM      1  C   UNL     1      37.693   0.968  14.839  0.00  0.00    +0.000 C 
ATOM      2  O   UNL     1      37.807   1.843  15.710  0.00  0.00    +0.000 OA
ENDROOT
BRANCH   1   3
ATOM      3  C   UNL     1      38.243  -0.341  15.076  0.00  0.00    +0.000 A 
ATOM      4  C   UNL     1      39.578  -0.558  14.799  0.00  0.00    +0.000 A 
ATOM      5  C   UNL     1      40.339   0.471  14.307  0.00  0.00    +0.000 A 
ATOM      6  C   UNL     1      41.660   0.289  14.023  0.00  0.00    +0.000 A 
ATOM      7  C   UNL     1      42.250  -0.919  14.220  0.00  0.00    +0.000 A 
ATOM      8  C   UNL     1      41.494  -1.955  14.712  0.00  0.00    +0.000 A 
ATOM      9  C   UNL     1      40.172  -1.805  15.006  0.00  0.00    +0.000 A 
ATOM     10  C   UNL     1      39.381  -2.826  15.501  0.00  0.00    +0.000 A 
ATOM     11  C   UNL     1      38.051  -2.651  15.791  0.00  0.00    +0.000 A 
ATOM     12  C   UNL     1      37.289  -3.689  16.285  0.00  0.00    +0.000 A 
ATOM     13  C   UNL     1      35.963  -3.433  16.549  0.00  0.00    +0.000 A 
ATOM     14  C   UNL     1      35.387  -2.216  16.345  0.00  0.00    +0.000 A 
ATOM     15  C   UNL     1      36.177  -1.181  15.845  0.00  0.00    +0.000 A 
ATOM     16  C   UNL     1      37.508  -1.403  15.571  0.00  0.00    +0.000 A 
ENDBRANCH   1   3
BRANCH   1  17
ATOM     17  O   UNL     1      37.049   1.242  13.661  0.00  0.00    +0.000 OA
BRANCH  17  18
ATOM     18  C   UNL     1      37.435   2.202  12.739  0.00  0.00    +0.000 C 
BRANCH  18  20
ATOM     19  N   UNL     1      38.896   1.756  10.700  0.00  0.00    +0.000 NA
ATOM     20  C   UNL     1      37.701   1.545  11.440  0.00  0.00    +0.000 C 
ATOM     21  O   UNL     1      36.852   0.773  10.960  0.00  0.00    +0.000 OA
BRANCH  19  27
ATOM     22  C   UNL     1      39.936   0.032   9.442  0.00  0.00    +0.000 A 
ATOM     23  C   UNL     1      40.118  -0.647   8.290  0.00  0.00    +0.000 A 
ATOM     24  C   UNL     1      39.427  -0.318   7.114  0.00  0.00    +0.000 A 
ATOM     25  C   UNL     1      38.548   0.733   7.172  0.00  0.00    +0.000 A 
ATOM     26  C   UNL     1      38.332   1.451   8.324  0.00  0.00    +0.000 A 
ATOM     27  C   UNL     1      39.049   1.074   9.460  0.00  0.00    +0.000 A 
BRANCH  22  28
ATOM     28  C   UNL     1      40.692  -0.328  10.757  0.00  0.00    +0.000 C 
ATOM     29  C   UNL     1      41.799  -1.336  10.033  0.00  0.00    +0.000 C 
BRANCH  28  31
ATOM     30  C   UNL     1      40.589  -2.792  11.272  0.00  0.00    +0.000 C 
ATOM     31  C   UNL     1      39.733  -1.565  11.225  0.00  0.00    +0.000 C 
ENDBRANCH  28  31
ENDBRANCH  22  28
ENDBRANCH  19  27
ENDBRANCH  18  20
ENDBRANCH  17  18
ENDBRANCH   1  17
TORSDOF 7
ENDMDL
