MODEL 1
REMARK VINA RESULT:      -6.4      0.000      0.000
REMARK  Name = 
REMARK  4 active torsions:
REMARK  status: ('A' for Active; 'I' for Inactive)
REMARK    1  A    between atoms: C_4  and  N_5
REMARK    2  A    between atoms: N_5  and  N_6
REMARK    3  A    between atoms: N_6  and  C_7
REMARK    4  A    between atoms: C_11  and  N_12
REMARK                            x       y       z     vdW  Elec       q    Type
REMARK                         _______ _______ _______ _____ _____    ______ ____
ROOT
ATOM      1  N   UNL     1      27.535  22.510  25.610  0.00  0.00    +0.000 NA
ENDROOT
BRANCH   1   5
ATOM      2  C   UNL     1      27.304  25.588  25.523  0.00  0.00    +0.000 C 
ATOM      3  C   UNL     1      26.514  25.658  24.080  0.00  0.00    +0.000 C 
ATOM      4  C   UNL     1      26.261  24.049  24.017  0.00  0.00    +0.000 C 
ATOM      5  C   UNL     1      27.448  23.333  24.446  0.00  0.00    +0.000 C 
ATOM      6  C   UNL     1      28.490  23.513  23.635  0.00  0.00    +0.000 C 
ATOM      7  C   UNL     1      28.089  24.433  22.494  0.00  0.00    +0.000 C 
ATOM      8  C   UNL     1      29.184  24.619  21.508  0.00  0.00    +0.000 C 
ATOM      9  C   UNL     1      26.813  23.939  21.855  0.00  0.00    +0.000 C 
ATOM     10  C   UNL     1      27.887  25.742  23.206  0.00  0.00    +0.000 C 
ENDBRANCH   1   5
BRANCH   1  11
ATOM     11  N   UNL     1      28.772  22.367  26.246  0.00  0.00    +0.000 NA
BRANCH  11  12
ATOM     12  C   UNL     1      28.787  22.518  27.673  0.00  0.00    +0.000 A 
ATOM     13  C   UNL     1      29.996  22.648  28.338  0.00  0.00    +0.000 A 
ATOM     14  C   UNL     1      30.014  22.793  29.705  0.00  0.00    +0.000 A 
ATOM     15  C   UNL     1      28.839  22.813  30.442  0.00  0.00    +0.000 A 
ATOM     16  C   UNL     1      27.629  22.686  29.802  0.00  0.00    +0.000 A 
ATOM     17  C   UNL     1      27.647  22.541  28.430  0.00  0.00    +0.000 A 
BRANCH  16  18
ATOM     18  N   UNL     1      26.419  22.702  30.529  0.00  0.00    +0.000 N 
ATOM     19  O   UNL     1      25.872  23.758  30.881  0.00  0.00    +0.000 OA
ATOM     20  O   UNL     1      25.829  21.515  30.856  0.00  0.00    +0.000 OA
ENDBRANCH  16  18
ENDBRANCH  11  12
ENDBRANCH   1  11
TORSDOF 4
ENDMDL
MODEL 2
REMARK VINA RESULT:      -6.3     19.061     22.309
REMARK  Name = 
REMARK  4 active torsions:
REMARK  status: ('A' for Active; 'I' for Inactive)
REMARK    1  A    between atoms: C_4  and  N_5
REMARK    2  A    between atoms: N_5  and  N_6
REMARK    3  A    between atoms: N_6  and  C_7
REMARK    4  A    between atoms: C_11  and  N_12
REMARK                            x       y       z     vdW  Elec       q    Type
REMARK                         _______ _______ _______ _____ _____    ______ ____
ROOT
ATOM      1  N   UNL     1      18.404   9.772  39.086  0.00  0.00    +0.000 NA
ENDROOT
BRANCH   1   5
ATOM      2  C   UNL     1      15.629   9.676  40.438  0.00  0.00    +0.000 C 
ATOM      3  C   UNL     1      16.184   9.280  41.937  0.00  0.00    +0.000 C 
ATOM      4  C   UNL     1      17.746   9.532  41.543  0.00  0.00    +0.000 C 
ATOM      5  C   UNL     1      18.029   8.996  40.225  0.00  0.00    +0.000 C 
ATOM      6  C   UNL     1      17.905   7.671  40.162  0.00  0.00    +0.000 C 
ATOM      7  C   UNL     1      17.497   7.135  41.524  0.00  0.00    +0.000 C 
ATOM      8  C   UNL     1      17.412   5.652  41.544  0.00  0.00    +0.000 C 
ATOM      9  C   UNL     1      18.419   7.676  42.590  0.00  0.00    +0.000 C 
ATOM     10  C   UNL     1      16.101   7.675  41.665  0.00  0.00    +0.000 C 
ENDBRANCH   1   5
BRANCH   1  11
ATOM     11  N   UNL     1      18.544   9.133  37.850  0.00  0.00    +0.000 NA
BRANCH  11  12
ATOM     12  C   UNL     1      17.882   9.741  36.730  0.00  0.00    +0.000 A 
ATOM     13  C   UNL     1      18.312   9.460  35.443  0.00  0.00    +0.000 A 
ATOM     14  C   UNL     1      17.680  10.039  34.369  0.00  0.00    +0.000 A 
ATOM     15  C   UNL     1      16.612  10.907  34.543  0.00  0.00    +0.000 A 
ATOM     16  C   UNL     1      16.170  11.199  35.811  0.00  0.00    +0.000 A 
ATOM     17  C   UNL     1      16.826  10.601  36.868  0.00  0.00    +0.000 A 
BRANCH  16  18
ATOM     18  N   UNL     1      15.085  12.079  36.017  0.00  0.00    +0.000 N 
ATOM     19  O   UNL     1      14.669  12.836  35.128  0.00  0.00    +0.000 OA
ATOM     20  O   UNL     1      14.473  12.098  37.237  0.00  0.00    +0.000 OA
ENDBRANCH  16  18
ENDBRANCH  11  12
ENDBRANCH   1  11
TORSDOF 4
ENDMDL
MODEL 3
REMARK VINA RESULT:      -6.2     20.958     22.119
REMARK  Name = 
REMARK  4 active torsions:
REMARK  status: ('A' for Active; 'I' for Inactive)
REMARK    1  A    between atoms: C_4  and  N_5
REMARK    2  A    between atoms: N_5  and  N_6
REMARK    3  A    between atoms: N_6  and  C_7
REMARK    4  A    between atoms: C_11  and  N_12
REMARK                            x       y       z     vdW  Elec       q    Type
REMARK                         _______ _______ _______ _____ _____    ______ ____
ROOT
ATOM      1  N   UNL     1      25.712   4.169  18.425  0.00  0.00    +0.000 NA
ENDROOT
BRANCH   1   5
ATOM      2  C   UNL     1      27.977   6.006  19.441  0.00  0.00    +0.000 C 
ATOM      3  C   UNL     1      27.715   7.216  18.355  0.00  0.00    +0.000 C 
ATOM      4  C   UNL     1      26.313   6.577  17.820  0.00  0.00    +0.000 C 
ATOM      5  C   UNL     1      26.437   5.140  17.668  0.00  0.00    +0.000 C 
ATOM      6  C   UNL     1      27.314   4.786  16.730  0.00  0.00    +0.000 C 
ATOM      7  C   UNL     1      27.918   6.033  16.107  0.00  0.00    +0.000 C 
ATOM      8  C   UNL     1      28.854   5.713  14.998  0.00  0.00    +0.000 C 
ATOM      9  C   UNL     1      26.822   6.982  15.682  0.00  0.00    +0.000 C 
ATOM     10  C   UNL     1      28.729   6.589  17.244  0.00  0.00    +0.000 C 
ENDBRANCH   1   5
BRANCH   1  11
ATOM     11  N   UNL     1      24.314   4.217  18.423  0.00  0.00    +0.000 NA
BRANCH  11  12
ATOM     12  C   UNL     1      23.626   2.997  18.106  0.00  0.00    +0.000 A 
ATOM     13  C   UNL     1      24.346   1.823  17.952  0.00  0.00    +0.000 A 
ATOM     14  C   UNL     1      23.691   0.653  17.649  0.00  0.00    +0.000 A 
ATOM     15  C   UNL     1      22.313   0.619  17.495  0.00  0.00    +0.000 A 
ATOM     16  C   UNL     1      21.580   1.772  17.644  0.00  0.00    +0.000 A 
ATOM     17  C   UNL     1      22.269   2.929  17.947  0.00  0.00    +0.000 A 
BRANCH  16  18
ATOM     18  N   UNL     1      20.176   1.765  17.492  0.00  0.00    +0.000 N 
ATOM     19  O   UNL     1      19.600   1.000  16.705  0.00  0.00    +0.000 OA
ATOM     20  O   UNL     1      19.428   2.629  18.237  0.00  0.00    +0.000 OA
ENDBRANCH  16  18
ENDBRANCH  11  12
ENDBRANCH   1  11
TORSDOF 4
ENDMDL
MODEL 4
REMARK VINA RESULT:      -6.2     18.269     20.627
REMARK  Name = 
REMARK  4 active torsions:
REMARK  status: ('A' for Active; 'I' for Inactive)
REMARK    1  A    between atoms: C_4  and  N_5
REMARK    2  A    between atoms: N_5  and  N_6
REMARK    3  A    between atoms: N_6  and  C_7
REMARK    4  A    between atoms: C_11  and  N_12
REMARK                            x       y       z     vdW  Elec       q    Type
REMARK                         _______ _______ _______ _____ _____    ______ ____
ROOT
ATOM      1  N   UNL     1      18.233  10.716  36.766  0.00  0.00    +0.000 NA
ENDROOT
BRANCH   1   5
ATOM      2  C   UNL     1      19.960  11.523  39.196  0.00  0.00    +0.000 C 
ATOM      3  C   UNL     1      20.201   9.991  39.749  0.00  0.00    +0.000 C 
ATOM      4  C   UNL     1      19.567   9.295  38.417  0.00  0.00    +0.000 C 
ATOM      5  C   UNL     1      18.373  10.004  37.996  0.00  0.00    +0.000 C 
ATOM      6  C   UNL     1      17.381   9.932  38.883  0.00  0.00    +0.000 C 
ATOM      7  C   UNL     1      17.832   9.113  40.080  0.00  0.00    +0.000 C 
ATOM      8  C   UNL     1      16.747   8.930  41.079  0.00  0.00    +0.000 C 
ATOM      9  C   UNL     1      18.418   7.800  39.617  0.00  0.00    +0.000 C 
ATOM     10  C   UNL     1      18.874  10.005  40.695  0.00  0.00    +0.000 C 
ENDBRANCH   1   5
BRANCH   1  11
ATOM     11  N   UNL     1      17.531  10.118  35.715  0.00  0.00    +0.000 NA
BRANCH  11  12
ATOM     12  C   UNL     1      16.575  10.938  35.026  0.00  0.00    +0.000 A 
ATOM     13  C   UNL     1      15.705  11.736  35.751  0.00  0.00    +0.000 A 
ATOM     14  C   UNL     1      14.789  12.523  35.095  0.00  0.00    +0.000 A 
ATOM     15  C   UNL     1      14.715  12.539  33.709  0.00  0.00    +0.000 A 
ATOM     16  C   UNL     1      15.570  11.756  32.971  0.00  0.00    +0.000 A 
ATOM     17  C   UNL     1      16.476  10.977  33.661  0.00  0.00    +0.000 A 
BRANCH  16  18
ATOM     18  N   UNL     1      15.515  11.754  31.560  0.00  0.00    +0.000 N 
ATOM     19  O   UNL     1      16.291  12.427  30.866  0.00  0.00    +0.000 OA
ATOM     20  O   UNL     1      14.577  10.982  30.938  0.00  0.00    +0.000 OA
ENDBRANCH  16  18
ENDBRANCH  11  12
ENDBRANCH   1  11
TORSDOF 4
ENDMDL
MODEL 5
REMARK VINA RESULT:      -6.1      2.153      3.134
REMARK  Name = 
REMARK  4 active torsions:
REMARK  status: ('A' for Active; 'I' for Inactive)
REMARK    1  A    between atoms: C_4  and  N_5
REMARK    2  A    between atoms: N_5  and  N_6
REMARK    3  A    between atoms: N_6  and  C_7
REMARK    4  A    between atoms: C_11  and  N_12
REMARK                            x       y       z     vdW  Elec       q    Type
REMARK                         _______ _______ _______ _____ _____    ______ ____
ROOT
ATOM      1  N   UNL     1      26.475  25.095  25.189  0.00  0.00    +0.000 NA
ENDROOT
BRANCH   1   5
ATOM      2  C   UNL     1      27.409  25.075  22.246  0.00  0.00    +0.000 C 
ATOM      3  C   UNL     1      28.277  23.679  22.352  0.00  0.00    +0.000 C 
ATOM      4  C   UNL     1      27.709  23.314  23.837  0.00  0.00    +0.000 C 
ATOM      5  C   UNL     1      27.665  24.501  24.669  0.00  0.00    +0.000 C 
ATOM      6  C   UNL     1      28.871  25.011  24.917  0.00  0.00    +0.000 C 
ATOM      7  C   UNL     1      29.929  24.164  24.231  0.00  0.00    +0.000 C 
ATOM      8  C   UNL     1      31.307  24.634  24.528  0.00  0.00    +0.000 C 
ATOM      9  C   UNL     1      29.729  22.707  24.575  0.00  0.00    +0.000 C 
ATOM     10  C   UNL     1      29.655  24.438  22.779  0.00  0.00    +0.000 C 
ENDBRANCH   1   5
BRANCH   1  11
ATOM     11  N   UNL     1      25.579  24.296  25.907  0.00  0.00    +0.000 NA
BRANCH  11  12
ATOM     12  C   UNL     1      25.629  24.395  27.338  0.00  0.00    +0.000 A 
ATOM     13  C   UNL     1      25.169  25.543  27.964  0.00  0.00    +0.000 A 
ATOM     14  C   UNL     1      25.215  25.641  29.334  0.00  0.00    +0.000 A 
ATOM     15  C   UNL     1      25.714  24.608  30.114  0.00  0.00    +0.000 A 
ATOM     16  C   UNL     1      26.174  23.460  29.513  0.00  0.00    +0.000 A 
ATOM     17  C   UNL     1      26.115  23.395  28.136  0.00  0.00    +0.000 A 
BRANCH  16  18
ATOM     18  N   UNL     1      26.687  22.394  30.284  0.00  0.00    +0.000 N 
ATOM     19  O   UNL     1      27.904  22.205  30.424  0.00  0.00    +0.000 OA
ATOM     20  O   UNL     1      25.813  21.542  30.895  0.00  0.00    +0.000 OA
ENDBRANCH  16  18
ENDBRANCH  11  12
ENDBRANCH   1  11
TORSDOF 4
ENDMDL
MODEL 6
REMARK VINA RESULT:      -5.9     19.203     22.496
REMARK  Name = 
REMARK  4 active torsions:
REMARK  status: ('A' for Active; 'I' for Inactive)
REMARK    1  A    between atoms: C_4  and  N_5
REMARK    2  A    between atoms: N_5  and  N_6
REMARK    3  A    between atoms: N_6  and  C_7
REMARK    4  A    between atoms: C_11  and  N_12
REMARK                            x       y       z     vdW  Elec       q    Type
REMARK                         _______ _______ _______ _____ _____    ______ ____
ROOT
ATOM      1  N   UNL     1      17.862   9.115  39.284  0.00  0.00    +0.000 NA
ENDROOT
BRANCH   1   5
ATOM      2  C   UNL     1      17.302   6.584  40.961  0.00  0.00    +0.000 C 
ATOM      3  C   UNL     1      16.286   7.312  42.034  0.00  0.00    +0.000 C 
ATOM      4  C   UNL     1      16.196   8.694  41.175  0.00  0.00    +0.000 C 
ATOM      5  C   UNL     1      17.504   9.061  40.666  0.00  0.00    +0.000 C 
ATOM      6  C   UNL     1      18.377   9.354  41.629  0.00  0.00    +0.000 C 
ATOM      7  C   UNL     1      17.704   9.205  42.983  0.00  0.00    +0.000 C 
ATOM      8  C   UNL     1      18.601   9.588  44.104  0.00  0.00    +0.000 C 
ATOM      9  C   UNL     1      16.400   9.966  43.000  0.00  0.00    +0.000 C 
ATOM     10  C   UNL     1      17.485   7.720  43.061  0.00  0.00    +0.000 C 
ENDBRANCH   1   5
BRANCH   1  11
ATOM     11  N   UNL     1      17.704  10.321  38.593  0.00  0.00    +0.000 NA
BRANCH  11  12
ATOM     12  C   UNL     1      17.493  10.230  37.176  0.00  0.00    +0.000 A 
ATOM     13  C   UNL     1      18.200   9.297  36.434  0.00  0.00    +0.000 A 
ATOM     14  C   UNL     1      18.000   9.207  35.077  0.00  0.00    +0.000 A 
ATOM     15  C   UNL     1      17.097  10.035  34.426  0.00  0.00    +0.000 A 
ATOM     16  C   UNL     1      16.385  10.966  35.143  0.00  0.00    +0.000 A 
ATOM     17  C   UNL     1      16.610  11.031  36.503  0.00  0.00    +0.000 A 
BRANCH  16  18
ATOM     18  N   UNL     1      15.460  11.821  34.505  0.00  0.00    +0.000 N 
ATOM     19  O   UNL     1      14.688  12.554  35.140  0.00  0.00    +0.000 OA
ATOM     20  O   UNL     1      15.415  11.843  33.141  0.00  0.00    +0.000 OA
ENDBRANCH  16  18
ENDBRANCH  11  12
ENDBRANCH   1  11
TORSDOF 4
ENDMDL
MODEL 7
REMARK VINA RESULT:      -5.9     32.387     33.863
REMARK  Name = 
REMARK  4 active torsions:
REMARK  status: ('A' for Active; 'I' for Inactive)
REMARK    1  A    between atoms: C_4  and  N_5
REMARK    2  A    between atoms: N_5  and  N_6
REMARK    3  A    between atoms: N_6  and  C_7
REMARK    4  A    between atoms: C_11  and  N_12
REMARK                            x       y       z     vdW  Elec       q    Type
REMARK                         _______ _______ _______ _____ _____    ______ ____
ROOT
ATOM      1  N   UNL     1      17.075  -9.305  27.713  0.00  0.00    +0.000 NA
ENDROOT
BRANCH   1   5
ATOM      2  C   UNL     1      17.120 -10.122  30.691  0.00  0.00    +0.000 C 
ATOM      3  C   UNL     1      18.736  -9.889  30.906  0.00  0.00    +0.000 C 
ATOM      4  C   UNL     1      18.933  -9.162  29.460  0.00  0.00    +0.000 C 
ATOM      5  C   UNL     1      18.175  -9.857  28.437  0.00  0.00    +0.000 C 
ATOM      6  C   UNL     1      18.607 -11.098  28.218  0.00  0.00    +0.000 C 
ATOM      7  C   UNL     1      19.782 -11.394  29.135  0.00  0.00    +0.000 C 
ATOM      8  C   UNL     1      20.361 -12.740  28.893  0.00  0.00    +0.000 C 
ATOM      9  C   UNL     1      20.811 -10.293  29.028  0.00  0.00    +0.000 C 
ATOM     10  C   UNL     1      19.125 -11.415  30.487  0.00  0.00    +0.000 C 
ENDBRANCH   1   5
BRANCH   1  11
ATOM     11  N   UNL     1      17.294  -8.810  26.424  0.00  0.00    +0.000 NA
BRANCH  11  12
ATOM     12  C   UNL     1      18.136  -7.653  26.310  0.00  0.00    +0.000 A 
ATOM     13  C   UNL     1      17.690  -6.429  26.784  0.00  0.00    +0.000 A 
ATOM     14  C   UNL     1      18.494  -5.319  26.677  0.00  0.00    +0.000 A 
ATOM     15  C   UNL     1      19.754  -5.395  26.102  0.00  0.00    +0.000 A 
ATOM     16  C   UNL     1      20.216  -6.599  25.627  0.00  0.00    +0.000 A 
ATOM     17  C   UNL     1      19.384  -7.694  25.749  0.00  0.00    +0.000 A 
BRANCH  16  18
ATOM     18  N   UNL     1      21.495  -6.704  25.036  0.00  0.00    +0.000 N 
ATOM     19  O   UNL     1      22.349  -7.503  25.446  0.00  0.00    +0.000 OA
ATOM     20  O   UNL     1      21.800  -5.899  23.978  0.00  0.00    +0.000 OA
ENDBRANCH  16  18
ENDBRANCH  11  12
ENDBRANCH   1  11
TORSDOF 4
ENDMDL
MODEL 8
REMARK VINA RESULT:      -5.9      3.979      6.380
REMARK  Name = 
REMARK  4 active torsions:
REMARK  status: ('A' for Active; 'I' for Inactive)
REMARK    1  A    between atoms: C_4  and  N_5
REMARK    2  A    between atoms: N_5  and  N_6
REMARK    3  A    between atoms: N_6  and  C_7
REMARK    4  A    between atoms: C_11  and  N_12
REMARK                            x       y       z     vdW  Elec       q    Type
REMARK                         _______ _______ _______ _____ _____    ______ ____
ROOT
ATOM      1  N   UNL     1      26.566  23.290  26.836  0.00  0.00    +0.000 NA
ENDROOT
BRANCH   1   5
ATOM      2  C   UNL     1      28.092  25.882  27.534  0.00  0.00    +0.000 C 
ATOM      3  C   UNL     1      28.168  25.603  29.155  0.00  0.00    +0.000 C 
ATOM      4  C   UNL     1      27.623  24.072  29.026  0.00  0.00    +0.000 C 
ATOM      5  C   UNL     1      26.531  24.001  28.074  0.00  0.00    +0.000 C 
ATOM      6  C   UNL     1      25.453  24.679  28.463  0.00  0.00    +0.000 C 
ATOM      7  C   UNL     1      25.721  25.325  29.812  0.00  0.00    +0.000 C 
ATOM      8  C   UNL     1      24.531  26.039  30.342  0.00  0.00    +0.000 C 
ATOM      9  C   UNL     1      26.258  24.298  30.780  0.00  0.00    +0.000 C 
ATOM     10  C   UNL     1      26.757  26.358  29.463  0.00  0.00    +0.000 C 
ENDBRANCH   1   5
BRANCH   1  11
ATOM     11  N   UNL     1      27.613  22.392  26.602  0.00  0.00    +0.000 NA
BRANCH  11  12
ATOM     12  C   UNL     1      28.605  22.792  25.644  0.00  0.00    +0.000 A 
ATOM     13  C   UNL     1      29.933  22.883  26.027  0.00  0.00    +0.000 A 
ATOM     14  C   UNL     1      30.885  23.264  25.112  0.00  0.00    +0.000 A 
ATOM     15  C   UNL     1      30.545  23.563  23.801  0.00  0.00    +0.000 A 
ATOM     16  C   UNL     1      29.233  23.478  23.400  0.00  0.00    +0.000 A 
ATOM     17  C   UNL     1      28.303  23.093  24.343  0.00  0.00    +0.000 A 
BRANCH  16  18
ATOM     18  N   UNL     1      28.860  23.777  22.071  0.00  0.00    +0.000 N 
ATOM     19  O   UNL     1      29.666  24.220  21.240  0.00  0.00    +0.000 OA
ATOM     20  O   UNL     1      27.567  23.569  21.687  0.00  0.00    +0.000 OA
ENDBRANCH  16  18
ENDBRANCH  11  12
ENDBRANCH   1  11
TORSDOF 4
ENDMDL
MODEL 9
REMARK VINA RESULT:      -5.8      2.996      6.422
REMARK  Name = 
REMARK  4 active torsions:
REMARK  status: ('A' for Active; 'I' for Inactive)
REMARK    1  A    between atoms: C_4  and  N_5
REMARK    2  A    between atoms: N_5  and  N_6
REMARK    3  A    between atoms: N_6  and  C_7
REMARK    4  A    between atoms: C_11  and  N_12
REMARK                            x       y       z     vdW  Elec       q    Type
REMARK                         _______ _______ _______ _____ _____    ______ ____
ROOT
ATOM      1  N   UNL     1      30.446  24.912  25.500  0.00  0.00    +0.000 NA
ENDROOT
BRANCH   1   5
ATOM      2  C   UNL     1      32.121  23.555  27.711  0.00  0.00    +0.000 C 
ATOM      3  C   UNL     1      31.163  22.223  27.857  0.00  0.00    +0.000 C 
ATOM      4  C   UNL     1      30.279  22.582  26.535  0.00  0.00    +0.000 C 
ATOM      5  C   UNL     1      29.979  24.001  26.496  0.00  0.00    +0.000 C 
ATOM      6  C   UNL     1      29.202  24.399  27.503  0.00  0.00    +0.000 C 
ATOM      7  C   UNL     1      28.874  23.210  28.390  0.00  0.00    +0.000 C 
ATOM      8  C   UNL     1      27.949  23.569  29.494  0.00  0.00    +0.000 C 
ATOM      9  C   UNL     1      28.357  22.066  27.550  0.00  0.00    +0.000 C 
ATOM     10  C   UNL     1      30.213  22.896  28.998  0.00  0.00    +0.000 C 
ENDBRANCH   1   5
BRANCH   1  11
ATOM     11  N   UNL     1      30.602  24.456  24.188  0.00  0.00    +0.000 NA
BRANCH  11  12
ATOM     12  C   UNL     1      29.445  24.516  23.341  0.00  0.00    +0.000 A 
ATOM     13  C   UNL     1      29.475  25.287  22.190  0.00  0.00    +0.000 A 
ATOM     14  C   UNL     1      28.369  25.347  21.376  0.00  0.00    +0.000 A 
ATOM     15  C   UNL     1      27.211  24.647  21.682  0.00  0.00    +0.000 A 
ATOM     16  C   UNL     1      27.160  23.876  22.819  0.00  0.00    +0.000 A 
ATOM     17  C   UNL     1      28.288  23.838  23.613  0.00  0.00    +0.000 A 
BRANCH  16  18
ATOM     18  N   UNL     1      25.994  23.153  23.153  0.00  0.00    +0.000 N 
ATOM     19  O   UNL     1      25.216  22.717  22.293  0.00  0.00    +0.000 OA
ATOM     20  O   UNL     1      25.714  22.927  24.470  0.00  0.00    +0.000 OA
ENDBRANCH  16  18
ENDBRANCH  11  12
ENDBRANCH   1  11
TORSDOF 4
ENDMDL
MODEL 10
REMARK VINA RESULT:      -5.8     14.912     18.008
REMARK  Name = 
REMARK  4 active torsions:
REMARK  status: ('A' for Active; 'I' for Inactive)
REMARK    1  A    between atoms: C_4  and  N_5
REMARK    2  A    between atoms: N_5  and  N_6
REMARK    3  A    between atoms: N_6  and  C_7
REMARK    4  A    between atoms: C_11  and  N_12
REMARK                            x       y       z     vdW  Elec       q    Type
REMARK                         _______ _______ _______ _____ _____    ______ ____
ROOT
ATOM      1  N   UNL     1      31.681  21.730   8.290  0.00  0.00    +0.000 NA
ENDROOT
BRANCH   1   5
ATOM      2  C   UNL     1      33.374  20.424   6.062  0.00  0.00    +0.000 C 
ATOM      3  C   UNL     1      32.353  20.806   4.827  0.00  0.00    +0.000 C 
ATOM      4  C   UNL     1      31.434  21.789   5.748  0.00  0.00    +0.000 C 
ATOM      5  C   UNL     1      31.209  21.196   7.053  0.00  0.00    +0.000 C 
ATOM      6  C   UNL     1      30.498  20.071   7.000  0.00  0.00    +0.000 C 
ATOM      7  C   UNL     1      30.145  19.763   5.554  0.00  0.00    +0.000 C 
ATOM      8  C   UNL     1      29.287  18.556   5.428  0.00  0.00    +0.000 C 
ATOM      9  C   UNL     1      29.532  20.979   4.901  0.00  0.00    +0.000 C 
ATOM     10  C   UNL     1      31.489  19.432   4.969  0.00  0.00    +0.000 C 
ENDBRANCH   1   5
BRANCH   1  11
ATOM     11  N   UNL     1      30.846  22.582   9.021  0.00  0.00    +0.000 NA
BRANCH  11  12
ATOM     12  C   UNL     1      30.787  22.368  10.439  0.00  0.00    +0.000 A 
ATOM     13  C   UNL     1      31.732  21.560  11.052  0.00  0.00    +0.000 A 
ATOM     14  C   UNL     1      31.679  21.353  12.410  0.00  0.00    +0.000 A 
ATOM     15  C   UNL     1      30.693  21.940  13.190  0.00  0.00    +0.000 A 
ATOM     16  C   UNL     1      29.747  22.746  12.602  0.00  0.00    +0.000 A 
ATOM     17  C   UNL     1      29.829  22.932  11.237  0.00  0.00    +0.000 A 
BRANCH  16  18
ATOM     18  N   UNL     1      28.733  23.356  13.373  0.00  0.00    +0.000 N 
ATOM     19  O   UNL     1      27.599  22.867  13.481  0.00  0.00    +0.000 OA
ATOM     20  O   UNL     1      29.011  24.524  14.022  0.00  0.00    +0.000 OA
ENDBRANCH  16  18
ENDBRANCH  11  12
ENDBRANCH   1  11
TORSDOF 4
ENDMDL
