MODEL 1
REMARK VINA RESULT:      -7.4      0.000      0.000
REMARK  Name = 
REMARK  8 active torsions:
REMARK  status: ('A' for Active; 'I' for Inactive)
REMARK    1  A    between atoms: C_3  and  C_4
REMARK    2  A    between atoms: N_11  and  C_12
REMARK    3  A    between atoms: C_12  and  C_13
REMARK    4  A    between atoms: C_13  and  C_14
REMARK    5  A    between atoms: C_14  and  C_15
REMARK    6  A    between atoms: C_15  and  C_16
REMARK    7  A    between atoms: C_16  and  C_17
REMARK    8  A    between atoms: C_17  and  N_18
REMARK                            x       y       z     vdW  Elec       q    Type
REMARK                         _______ _______ _______ _____ _____    ______ ____
ROOT
ATOM      1  C   UNL     1      39.563  -3.181  16.063  0.00  0.00    +0.000 C 
ATOM      2  C   UNL     1      39.622  -1.846  15.381  0.00  0.00    +0.000 A 
ATOM      3  C   UNL     1      38.586  -0.912  15.247  0.00  0.00    +0.000 A 
ATOM      4  N   UNL     1      39.052   0.127  14.579  0.00  0.00    +0.000 N 
ATOM      5  C   UNL     1      40.366  -0.062  14.256  0.00  0.00    +0.000 A 
ATOM      6  C   UNL     1      41.282   0.718  13.577  0.00  0.00    +0.000 A 
ATOM      7  C   UNL     1      42.568   0.250  13.402  0.00  0.00    +0.000 A 
ATOM      8  C   UNL     1      42.941  -0.982  13.897  0.00  0.00    +0.000 A 
ATOM      9  O   UNL     1      44.225  -1.504  13.749  0.00  0.00    +0.000 OA
ATOM     10  C   UNL     1      42.016  -1.753  14.574  0.00  0.00    +0.000 A 
ATOM     11  C   UNL     1      40.712  -1.289  14.757  0.00  0.00    +0.000 A 
ENDROOT
BRANCH   3  12
ATOM     12  C   UNL     1      37.273  -1.148  15.823  0.00  0.00    +0.000 A 
ATOM     13  C   UNL     1      36.384  -2.048  15.238  0.00  0.00    +0.000 A 
ATOM     14  C   UNL     1      35.154  -2.304  15.796  0.00  0.00    +0.000 A 
ATOM     15  C   UNL     1      34.745  -1.680  16.961  0.00  0.00    +0.000 A 
ATOM     16  O   UNL     1      33.495  -1.961  17.499  0.00  0.00    +0.000 OA
ATOM     17  C   UNL     1      35.602  -0.784  17.565  0.00  0.00    +0.000 A 
ATOM     18  C   UNL     1      36.822  -0.553  16.978  0.00  0.00    +0.000 A 
ENDBRANCH   3  12
BRANCH   4  19
ATOM     19  C   UNL     1      38.325   1.286  14.147  0.00  0.00    +0.000 C 
BRANCH  19  20
ATOM     20  C   UNL     1      38.253   2.407  15.070  0.00  0.00    +0.000 C 
BRANCH  20  21
ATOM     21  C   UNL     1      38.992   3.632  14.953  0.00  0.00    +0.000 C 
BRANCH  21  22
ATOM     22  C   UNL     1      38.849   4.729  15.916  0.00  0.00    +0.000 C 
BRANCH  22  23
ATOM     23  C   UNL     1      38.096   4.445  17.166  0.00  0.00    +0.000 C 
BRANCH  23  24
ATOM     24  C   UNL     1      38.899   4.856  18.361  0.00  0.00    +0.000 C 
BRANCH  24  25
ATOM     25  N   UNL     1      39.447   6.187  18.207  0.00  0.00    +0.000 NA
ATOM     26  C   UNL     1      38.676   7.159  18.917  0.00  0.00    +0.000 C 
ATOM     27  C   UNL     1      39.445   7.469  20.182  0.00  0.00    +0.000 C 
ATOM     28  C   UNL     1      40.613   6.505  20.196  0.00  0.00    +0.000 C 
ATOM     29  C   UNL     1      40.788   6.224  18.708  0.00  0.00    +0.000 C 
ENDBRANCH  24  25
ENDBRANCH  23  24
ENDBRANCH  22  23
ENDBRANCH  21  22
ENDBRANCH  20  21
ENDBRANCH  19  20
ENDBRANCH   4  19
TORSDOF 8
ENDMDL
MODEL 2
REMARK VINA RESULT:      -7.3      4.037      7.181
REMARK  Name = 
REMARK  8 active torsions:
REMARK  status: ('A' for Active; 'I' for Inactive)
REMARK    1  A    between atoms: C_3  and  C_4
REMARK    2  A    between atoms: N_11  and  C_12
REMARK    3  A    between atoms: C_12  and  C_13
REMARK    4  A    between atoms: C_13  and  C_14
REMARK    5  A    between atoms: C_14  and  C_15
REMARK    6  A    between atoms: C_15  and  C_16
REMARK    7  A    between atoms: C_16  and  C_17
REMARK    8  A    between atoms: C_17  and  N_18
REMARK                            x       y       z     vdW  Elec       q    Type
REMARK                         _______ _______ _______ _____ _____    ______ ____
ROOT
ATOM      1  C   UNL     1      34.206  -1.614  17.382  0.00  0.00    +0.000 C 
ATOM      2  C   UNL     1      35.257  -1.367  16.342  0.00  0.00    +0.000 A 
ATOM      3  C   UNL     1      35.802  -2.294  15.445  0.00  0.00    +0.000 A 
ATOM      4  N   UNL     1      36.699  -1.671  14.703  0.00  0.00    +0.000 N 
ATOM      5  C   UNL     1      36.782  -0.354  15.056  0.00  0.00    +0.000 A 
ATOM      6  C   UNL     1      37.553   0.691  14.587  0.00  0.00    +0.000 A 
ATOM      7  C   UNL     1      37.414   1.940  15.156  0.00  0.00    +0.000 A 
ATOM      8  C   UNL     1      36.517   2.148  16.184  0.00  0.00    +0.000 A 
ATOM      9  O   UNL     1      36.335   3.388  16.795  0.00  0.00    +0.000 OA
ATOM     10  C   UNL     1      35.752   1.094  16.645  0.00  0.00    +0.000 A 
ATOM     11  C   UNL     1      35.885  -0.173  16.075  0.00  0.00    +0.000 A 
ENDROOT
BRANCH   3  12
ATOM     12  C   UNL     1      35.348  -3.674  15.411  0.00  0.00    +0.000 A 
ATOM     13  C   UNL     1      35.990  -4.659  16.159  0.00  0.00    +0.000 A 
ATOM     14  C   UNL     1      35.544  -5.959  16.161  0.00  0.00    +0.000 A 
ATOM     15  C   UNL     1      34.441  -6.347  15.421  0.00  0.00    +0.000 A 
ATOM     16  O   UNL     1      34.017  -7.670  15.445  0.00  0.00    +0.000 OA
ATOM     17  C   UNL     1      33.784  -5.395  14.671  0.00  0.00    +0.000 A 
ATOM     18  C   UNL     1      34.258  -4.106  14.693  0.00  0.00    +0.000 A 
ENDBRANCH   3  12
BRANCH   4  19
ATOM     19  C   UNL     1      37.557  -2.243  13.704  0.00  0.00    +0.000 C 
BRANCH  19  20
ATOM     20  C   UNL     1      38.695  -3.017  14.171  0.00  0.00    +0.000 C 
BRANCH  20  21
ATOM     21  C   UNL     1      39.651  -2.585  15.152  0.00  0.00    +0.000 C 
BRANCH  21  22
ATOM     22  C   UNL     1      40.606  -1.502  14.890  0.00  0.00    +0.000 C 
BRANCH  22  23
ATOM     23  C   UNL     1      41.796  -1.827  14.062  0.00  0.00    +0.000 C 
BRANCH  23  24
ATOM     24  C   UNL     1      41.933  -0.844  12.941  0.00  0.00    +0.000 C 
BRANCH  24  25
ATOM     25  N   UNL     1      42.121  -1.506  11.668  0.00  0.00    +0.000 NA
ATOM     26  C   UNL     1      41.495  -2.791  11.644  0.00  0.00    +0.000 C 
ATOM     27  C   UNL     1      40.210  -2.623  10.865  0.00  0.00    +0.000 C 
ATOM     28  C   UNL     1      40.095  -1.139  10.584  0.00  0.00    +0.000 C 
ATOM     29  C   UNL     1      41.557  -0.713  10.617  0.00  0.00    +0.000 C 
ENDBRANCH  24  25
ENDBRANCH  23  24
ENDBRANCH  22  23
ENDBRANCH  21  22
ENDBRANCH  20  21
ENDBRANCH  19  20
ENDBRANCH   4  19
TORSDOF 8
ENDMDL
MODEL 3
REMARK VINA RESULT:      -7.3      2.582      4.640
REMARK  Name = 
REMARK  8 active torsions:
REMARK  status: ('A' for Active; 'I' for Inactive)
REMARK    1  A    between atoms: C_3  and  C_4
REMARK    2  A    between atoms: N_11  and  C_12
REMARK    3  A    between atoms: C_12  and  C_13
REMARK    4  A    between atoms: C_13  and  C_14
REMARK    5  A    between atoms: C_14  and  C_15
REMARK    6  A    between atoms: C_15  and  C_16
REMARK    7  A    between atoms: C_16  and  C_17
REMARK    8  A    between atoms: C_17  and  N_18
REMARK                            x       y       z     vdW  Elec       q    Type
REMARK                         _______ _______ _______ _____ _____    ______ ____
ROOT
ATOM      1  C   UNL     1      39.775  -1.237  14.656  0.00  0.00    +0.000 C 
ATOM      2  C   UNL     1      38.510  -0.931  15.402  0.00  0.00    +0.000 A 
ATOM      3  C   UNL     1      37.468  -0.087  14.999  0.00  0.00    +0.000 A 
ATOM      4  N   UNL     1      36.545  -0.093  15.944  0.00  0.00    +0.000 N 
ATOM      5  C   UNL     1      36.917  -0.912  16.972  0.00  0.00    +0.000 A 
ATOM      6  C   UNL     1      36.307  -1.249  18.164  0.00  0.00    +0.000 A 
ATOM      7  C   UNL     1      36.942  -2.122  19.023  0.00  0.00    +0.000 A 
ATOM      8  C   UNL     1      38.172  -2.656  18.700  0.00  0.00    +0.000 A 
ATOM      9  O   UNL     1      38.858  -3.542  19.530  0.00  0.00    +0.000 OA
ATOM     10  C   UNL     1      38.773  -2.310  17.504  0.00  0.00    +0.000 A 
ATOM     11  C   UNL     1      38.138  -1.428  16.629  0.00  0.00    +0.000 A 
ENDROOT
BRANCH   3  12
ATOM     12  C   UNL     1      37.497   0.597  13.717  0.00  0.00    +0.000 A 
ATOM     13  C   UNL     1      38.134   1.827  13.576  0.00  0.00    +0.000 A 
ATOM     14  C   UNL     1      38.198   2.464  12.359  0.00  0.00    +0.000 A 
ATOM     15  C   UNL     1      37.633   1.911  11.223  0.00  0.00    +0.000 A 
ATOM     16  O   UNL     1      37.715   2.581  10.008  0.00  0.00    +0.000 OA
ATOM     17  C   UNL     1      36.995   0.693  11.331  0.00  0.00    +0.000 A 
ATOM     18  C   UNL     1      36.951   0.087  12.562  0.00  0.00    +0.000 A 
ENDBRANCH   3  12
BRANCH   4  19
ATOM     19  C   UNL     1      35.338   0.683  15.992  0.00  0.00    +0.000 C 
BRANCH  19  20
ATOM     20  C   UNL     1      35.386   1.943  16.714  0.00  0.00    +0.000 C 
BRANCH  20  21
ATOM     21  C   UNL     1      36.210   3.068  16.372  0.00  0.00    +0.000 C 
BRANCH  21  22
ATOM     22  C   UNL     1      37.474   3.351  17.060  0.00  0.00    +0.000 C 
BRANCH  22  23
ATOM     23  C   UNL     1      37.987   4.744  17.001  0.00  0.00    +0.000 C 
BRANCH  23  24
ATOM     24  C   UNL     1      38.906   5.009  18.153  0.00  0.00    +0.000 C 
BRANCH  24  25
ATOM     25  N   UNL     1      39.389   6.374  18.150  0.00  0.00    +0.000 NA
ATOM     26  C   UNL     1      38.647   7.197  19.055  0.00  0.00    +0.000 C 
ATOM     27  C   UNL     1      39.511   7.362  20.284  0.00  0.00    +0.000 C 
ATOM     28  C   UNL     1      40.710   6.465  20.064  0.00  0.00    +0.000 C 
ATOM     29  C   UNL     1      40.765   6.406  18.542  0.00  0.00    +0.000 C 
ENDBRANCH  24  25
ENDBRANCH  23  24
ENDBRANCH  22  23
ENDBRANCH  21  22
ENDBRANCH  20  21
ENDBRANCH  19  20
ENDBRANCH   4  19
TORSDOF 8
ENDMDL
MODEL 4
REMARK VINA RESULT:      -7.1      3.688      7.119
REMARK  Name = 
REMARK  8 active torsions:
REMARK  status: ('A' for Active; 'I' for Inactive)
REMARK    1  A    between atoms: C_3  and  C_4
REMARK    2  A    between atoms: N_11  and  C_12
REMARK    3  A    between atoms: C_12  and  C_13
REMARK    4  A    between atoms: C_13  and  C_14
REMARK    5  A    between atoms: C_14  and  C_15
REMARK    6  A    between atoms: C_15  and  C_16
REMARK    7  A    between atoms: C_16  and  C_17
REMARK    8  A    between atoms: C_17  and  N_18
REMARK                            x       y       z     vdW  Elec       q    Type
REMARK                         _______ _______ _______ _____ _____    ______ ____
ROOT
ATOM      1  C   UNL     1      34.741   0.044  16.953  0.00  0.00    +0.000 C 
ATOM      2  C   UNL     1      35.567  -0.525  15.838  0.00  0.00    +0.000 A 
ATOM      3  C   UNL     1      36.340   0.179  14.906  0.00  0.00    +0.000 A 
ATOM      4  N   UNL     1      36.905  -0.696  14.095  0.00  0.00    +0.000 N 
ATOM      5  C   UNL     1      36.551  -1.969  14.441  0.00  0.00    +0.000 A 
ATOM      6  C   UNL     1      36.874  -3.204  13.915  0.00  0.00    +0.000 A 
ATOM      7  C   UNL     1      36.349  -4.342  14.492  0.00  0.00    +0.000 A 
ATOM      8  C   UNL     1      35.509  -4.253  15.583  0.00  0.00    +0.000 A 
ATOM      9  O   UNL     1      34.951  -5.369  16.205  0.00  0.00    +0.000 OA
ATOM     10  C   UNL     1      35.193  -3.012  16.100  0.00  0.00    +0.000 A 
ATOM     11  C   UNL     1      35.719  -1.855  15.524  0.00  0.00    +0.000 A 
ENDROOT
BRANCH   3  12
ATOM     12  C   UNL     1      36.450   1.627  14.951  0.00  0.00    +0.000 A 
ATOM     13  C   UNL     1      37.552   2.245  15.537  0.00  0.00    +0.000 A 
ATOM     14  C   UNL     1      37.681   3.614  15.551  0.00  0.00    +0.000 A 
ATOM     15  C   UNL     1      36.722   4.436  14.986  0.00  0.00    +0.000 A 
ATOM     16  O   UNL     1      36.883   5.816  15.018  0.00  0.00    +0.000 OA
ATOM     17  C   UNL     1      35.620   3.854  14.398  0.00  0.00    +0.000 A 
ATOM     18  C   UNL     1      35.525   2.484  14.403  0.00  0.00    +0.000 A 
ENDBRANCH   3  12
BRANCH   4  19
ATOM     19  C   UNL     1      37.722  -0.423  12.946  0.00  0.00    +0.000 C 
BRANCH  19  20
ATOM     20  C   UNL     1      39.151  -0.281  13.166  0.00  0.00    +0.000 C 
BRANCH  20  21
ATOM     21  C   UNL     1      39.809  -0.354  14.440  0.00  0.00    +0.000 C 
BRANCH  21  22
ATOM     22  C   UNL     1      40.082  -1.631  15.109  0.00  0.00    +0.000 C 
BRANCH  22  23
ATOM     23  C   UNL     1      39.335  -1.919  16.361  0.00  0.00    +0.000 C 
BRANCH  23  24
ATOM     24  C   UNL     1      39.381  -3.383  16.668  0.00  0.00    +0.000 C 
BRANCH  24  25
ATOM     25  N   UNL     1      38.251  -3.798  17.473  0.00  0.00    +0.000 NA
ATOM     26  C   UNL     1      38.405  -5.139  17.945  0.00  0.00    +0.000 C 
ATOM     27  C   UNL     1      38.831  -5.033  19.392  0.00  0.00    +0.000 C 
ATOM     28  C   UNL     1      39.042  -3.556  19.648  0.00  0.00    +0.000 C 
ATOM     29  C   UNL     1      38.117  -2.936  18.607  0.00  0.00    +0.000 C 
ENDBRANCH  24  25
ENDBRANCH  23  24
ENDBRANCH  22  23
ENDBRANCH  21  22
ENDBRANCH  20  21
ENDBRANCH  19  20
ENDBRANCH   4  19
TORSDOF 8
ENDMDL
MODEL 5
REMARK VINA RESULT:      -7.0     24.278     28.214
REMARK  Name = 
REMARK  8 active torsions:
REMARK  status: ('A' for Active; 'I' for Inactive)
REMARK    1  A    between atoms: C_3  and  C_4
REMARK    2  A    between atoms: N_11  and  C_12
REMARK    3  A    between atoms: C_12  and  C_13
REMARK    4  A    between atoms: C_13  and  C_14
REMARK    5  A    between atoms: C_14  and  C_15
REMARK    6  A    between atoms: C_15  and  C_16
REMARK    7  A    between atoms: C_16  and  C_17
REMARK    8  A    between atoms: C_17  and  N_18
REMARK                            x       y       z     vdW  Elec       q    Type
REMARK                         _______ _______ _______ _____ _____    ______ ____
ROOT
ATOM      1  C   UNL     1      24.878  19.021  37.495  0.00  0.00    +0.000 C 
ATOM      2  C   UNL     1      24.915  18.180  36.253  0.00  0.00    +0.000 A 
ATOM      3  C   UNL     1      25.229  16.819  36.157  0.00  0.00    +0.000 A 
ATOM      4  N   UNL     1      25.148  16.466  34.887  0.00  0.00    +0.000 N 
ATOM      5  C   UNL     1      24.786  17.534  34.116  0.00  0.00    +0.000 A 
ATOM      6  C   UNL     1      24.572  17.675  32.759  0.00  0.00    +0.000 A 
ATOM      7  C   UNL     1      24.207  18.908  32.258  0.00  0.00    +0.000 A 
ATOM      8  C   UNL     1      24.058  19.992  33.099  0.00  0.00    +0.000 A 
ATOM      9  O   UNL     1      23.692  21.259  32.648  0.00  0.00    +0.000 OA
ATOM     10  C   UNL     1      24.276  19.838  34.455  0.00  0.00    +0.000 A 
ATOM     11  C   UNL     1      24.644  18.594  34.971  0.00  0.00    +0.000 A 
ENDROOT
BRANCH   3  12
ATOM     12  C   UNL     1      25.540  16.026  37.335  0.00  0.00    +0.000 A 
ATOM     13  C   UNL     1      24.540  15.350  38.029  0.00  0.00    +0.000 A 
ATOM     14  C   UNL     1      24.831  14.569  39.123  0.00  0.00    +0.000 A 
ATOM     15  C   UNL     1      26.128  14.422  39.581  0.00  0.00    +0.000 A 
ATOM     16  O   UNL     1      26.388  13.625  40.690  0.00  0.00    +0.000 OA
ATOM     17  C   UNL     1      27.140  15.078  38.915  0.00  0.00    +0.000 A 
ATOM     18  C   UNL     1      26.812  15.849  37.827  0.00  0.00    +0.000 A 
ENDBRANCH   3  12
BRANCH   4  19
ATOM     19  C   UNL     1      25.456  15.187  34.313  0.00  0.00    +0.000 C 
BRANCH  19  20
ATOM     20  C   UNL     1      26.862  14.845  34.169  0.00  0.00    +0.000 C 
BRANCH  20  21
ATOM     21  C   UNL     1      27.941  15.786  34.061  0.00  0.00    +0.000 C 
BRANCH  21  22
ATOM     22  C   UNL     1      29.122  15.724  34.929  0.00  0.00    +0.000 C 
BRANCH  22  23
ATOM     23  C   UNL     1      30.416  16.174  34.353  0.00  0.00    +0.000 C 
BRANCH  23  24
ATOM     24  C   UNL     1      31.558  15.639  35.160  0.00  0.00    +0.000 C 
BRANCH  24  25
ATOM     25  N   UNL     1      32.004  14.351  34.671  0.00  0.00    +0.000 NA
ATOM     26  C   UNL     1      33.419  14.326  34.466  0.00  0.00    +0.000 C 
ATOM     27  C   UNL     1      34.005  13.585  35.646  0.00  0.00    +0.000 C 
ATOM     28  C   UNL     1      32.845  13.328  36.585  0.00  0.00    +0.000 C 
ATOM     29  C   UNL     1      31.670  13.328  35.616  0.00  0.00    +0.000 C 
ENDBRANCH  24  25
ENDBRANCH  23  24
ENDBRANCH  22  23
ENDBRANCH  21  22
ENDBRANCH  20  21
ENDBRANCH  19  20
ENDBRANCH   4  19
TORSDOF 8
ENDMDL
MODEL 6
REMARK VINA RESULT:      -6.9      3.913      5.916
REMARK  Name = 
REMARK  8 active torsions:
REMARK  status: ('A' for Active; 'I' for Inactive)
REMARK    1  A    between atoms: C_3  and  C_4
REMARK    2  A    between atoms: N_11  and  C_12
REMARK    3  A    between atoms: C_12  and  C_13
REMARK    4  A    between atoms: C_13  and  C_14
REMARK    5  A    between atoms: C_14  and  C_15
REMARK    6  A    between atoms: C_15  and  C_16
REMARK    7  A    between atoms: C_16  and  C_17
REMARK    8  A    between atoms: C_17  and  N_18
REMARK                            x       y       z     vdW  Elec       q    Type
REMARK                         _______ _______ _______ _____ _____    ______ ____
ROOT
ATOM      1  C   UNL     1      39.753  -2.030  14.940  0.00  0.00    +0.000 C 
ATOM      2  C   UNL     1      38.671  -1.502  15.834  0.00  0.00    +0.000 A 
ATOM      3  C   UNL     1      37.764  -0.471  15.555  0.00  0.00    +0.000 A 
ATOM      4  N   UNL     1      36.981  -0.316  16.607  0.00  0.00    +0.000 N 
ATOM      5  C   UNL     1      37.317  -1.204  17.590  0.00  0.00    +0.000 A 
ATOM      6  C   UNL     1      36.807  -1.437  18.852  0.00  0.00    +0.000 A 
ATOM      7  C   UNL     1      37.367  -2.426  19.634  0.00  0.00    +0.000 A 
ATOM      8  C   UNL     1      38.426  -3.176  19.166  0.00  0.00    +0.000 A 
ATOM      9  O   UNL     1      39.030  -4.187  19.913  0.00  0.00    +0.000 OA
ATOM     10  C   UNL     1      38.928  -2.934  17.902  0.00  0.00    +0.000 A 
ATOM     11  C   UNL     1      38.367  -1.936  17.103  0.00  0.00    +0.000 A 
ENDROOT
BRANCH   3  12
ATOM     12  C   UNL     1      37.762   0.212  14.273  0.00  0.00    +0.000 A 
ATOM     13  C   UNL     1      36.856  -0.138  13.275  0.00  0.00    +0.000 A 
ATOM     14  C   UNL     1      36.824   0.528  12.072  0.00  0.00    +0.000 A 
ATOM     15  C   UNL     1      37.689   1.572  11.801  0.00  0.00    +0.000 A 
ATOM     16  O   UNL     1      37.631   2.224  10.575  0.00  0.00    +0.000 OA
ATOM     17  C   UNL     1      38.598   1.943  12.769  0.00  0.00    +0.000 A 
ATOM     18  C   UNL     1      38.601   1.255  13.958  0.00  0.00    +0.000 A 
ENDBRANCH   3  12
BRANCH   4  19
ATOM     19  C   UNL     1      35.956   0.672  16.797  0.00  0.00    +0.000 C 
BRANCH  19  20
ATOM     20  C   UNL     1      36.383   2.056  16.917  0.00  0.00    +0.000 C 
BRANCH  20  21
ATOM     21  C   UNL     1      35.872   3.154  16.146  0.00  0.00    +0.000 C 
BRANCH  21  22
ATOM     22  C   UNL     1      35.430   2.997  14.756  0.00  0.00    +0.000 C 
BRANCH  22  23
ATOM     23  C   UNL     1      35.776   4.083  13.803  0.00  0.00    +0.000 C 
BRANCH  23  24
ATOM     24  C   UNL     1      34.952   5.302  14.082  0.00  0.00    +0.000 C 
BRANCH  24  25
ATOM     25  N   UNL     1      35.512   6.482  13.456  0.00  0.00    +0.000 NA
ATOM     26  C   UNL     1      36.007   6.198  12.145  0.00  0.00    +0.000 C 
ATOM     27  C   UNL     1      34.968   6.719  11.177  0.00  0.00    +0.000 C 
ATOM     28  C   UNL     1      33.807   7.177  12.033  0.00  0.00    +0.000 C 
ATOM     29  C   UNL     1      34.510   7.498  13.346  0.00  0.00    +0.000 C 
ENDBRANCH  24  25
ENDBRANCH  23  24
ENDBRANCH  22  23
ENDBRANCH  21  22
ENDBRANCH  20  21
ENDBRANCH  19  20
ENDBRANCH   4  19
TORSDOF 8
ENDMDL
MODEL 7
REMARK VINA RESULT:      -6.9      1.465      5.135
REMARK  Name = 
REMARK  8 active torsions:
REMARK  status: ('A' for Active; 'I' for Inactive)
REMARK    1  A    between atoms: C_3  and  C_4
REMARK    2  A    between atoms: N_11  and  C_12
REMARK    3  A    between atoms: C_12  and  C_13
REMARK    4  A    between atoms: C_13  and  C_14
REMARK    5  A    between atoms: C_14  and  C_15
REMARK    6  A    between atoms: C_15  and  C_16
REMARK    7  A    between atoms: C_16  and  C_17
REMARK    8  A    between atoms: C_17  and  N_18
REMARK                            x       y       z     vdW  Elec       q    Type
REMARK                         _______ _______ _______ _____ _____    ______ ____
ROOT
ATOM      1  C   UNL     1      39.237  -3.208  16.759  0.00  0.00    +0.000 C 
ATOM      2  C   UNL     1      38.697  -1.952  16.143  0.00  0.00    +0.000 A 
ATOM      3  C   UNL     1      39.155  -1.306  14.987  0.00  0.00    +0.000 A 
ATOM      4  N   UNL     1      38.410  -0.234  14.792  0.00  0.00    +0.000 N 
ATOM      5  C   UNL     1      37.459  -0.127  15.767  0.00  0.00    +0.000 A 
ATOM      6  C   UNL     1      36.460   0.797  15.999  0.00  0.00    +0.000 A 
ATOM      7  C   UNL     1      35.635   0.638  17.093  0.00  0.00    +0.000 A 
ATOM      8  C   UNL     1      35.801  -0.430  17.949  0.00  0.00    +0.000 A 
ATOM      9  O   UNL     1      34.996  -0.640  19.069  0.00  0.00    +0.000 OA
ATOM     10  C   UNL     1      36.804  -1.349  17.707  0.00  0.00    +0.000 A 
ATOM     11  C   UNL     1      37.644  -1.197  16.602  0.00  0.00    +0.000 A 
ENDROOT
BRANCH   3  12
ATOM     12  C   UNL     1      40.252  -1.845  14.202  0.00  0.00    +0.000 A 
ATOM     13  C   UNL     1      41.573  -1.510  14.491  0.00  0.00    +0.000 A 
ATOM     14  C   UNL     1      42.620  -2.043  13.776  0.00  0.00    +0.000 A 
ATOM     15  C   UNL     1      42.407  -2.934  12.739  0.00  0.00    +0.000 A 
ATOM     16  O   UNL     1      43.487  -3.455  12.036  0.00  0.00    +0.000 OA
ATOM     17  C   UNL     1      41.110  -3.286  12.429  0.00  0.00    +0.000 A 
ATOM     18  C   UNL     1      40.091  -2.733  13.164  0.00  0.00    +0.000 A 
ENDBRANCH   3  12
BRANCH   4  19
ATOM     19  C   UNL     1      38.564   0.764  13.772  0.00  0.00    +0.000 C 
BRANCH  19  20
ATOM     20  C   UNL     1      39.594   1.769  13.977  0.00  0.00    +0.000 C 
BRANCH  20  21
ATOM     21  C   UNL     1      39.419   3.010  14.677  0.00  0.00    +0.000 C 
BRANCH  21  22
ATOM     22  C   UNL     1      38.184   3.797  14.580  0.00  0.00    +0.000 C 
BRANCH  22  23
ATOM     23  C   UNL     1      37.563   4.250  15.851  0.00  0.00    +0.000 C 
BRANCH  23  24
ATOM     24  C   UNL     1      38.621   4.568  16.862  0.00  0.00    +0.000 C 
BRANCH  24  25
ATOM     25  N   UNL     1      38.790   5.996  17.030  0.00  0.00    +0.000 NA
ATOM     26  C   UNL     1      38.443   6.415  18.353  0.00  0.00    +0.000 C 
ATOM     27  C   UNL     1      39.748   6.622  19.088  0.00  0.00    +0.000 C 
ATOM     28  C   UNL     1      40.830   6.154  18.138  0.00  0.00    +0.000 C 
ATOM     29  C   UNL     1      40.153   6.359  16.788  0.00  0.00    +0.000 C 
ENDBRANCH  24  25
ENDBRANCH  23  24
ENDBRANCH  22  23
ENDBRANCH  21  22
ENDBRANCH  20  21
ENDBRANCH  19  20
ENDBRANCH   4  19
TORSDOF 8
ENDMDL
MODEL 8
REMARK VINA RESULT:      -6.9      1.441      2.212
REMARK  Name = 
REMARK  8 active torsions:
REMARK  status: ('A' for Active; 'I' for Inactive)
REMARK    1  A    between atoms: C_3  and  C_4
REMARK    2  A    between atoms: N_11  and  C_12
REMARK    3  A    between atoms: C_12  and  C_13
REMARK    4  A    between atoms: C_13  and  C_14
REMARK    5  A    between atoms: C_14  and  C_15
REMARK    6  A    between atoms: C_15  and  C_16
REMARK    7  A    between atoms: C_16  and  C_17
REMARK    8  A    between atoms: C_17  and  N_18
REMARK                            x       y       z     vdW  Elec       q    Type
REMARK                         _______ _______ _______ _____ _____    ______ ____
ROOT
ATOM      1  C   UNL     1      39.321  -3.161  16.483  0.00  0.00    +0.000 C 
ATOM      2  C   UNL     1      39.175  -2.318  15.252  0.00  0.00    +0.000 A 
ATOM      3  C   UNL     1      38.015  -1.684  14.786  0.00  0.00    +0.000 A 
ATOM      4  N   UNL     1      38.314  -1.046  13.669  0.00  0.00    +0.000 N 
ATOM      5  C   UNL     1      39.633  -1.217  13.359  0.00  0.00    +0.000 A 
ATOM      6  C   UNL     1      40.413  -0.759  12.315  0.00  0.00    +0.000 A 
ATOM      7  C   UNL     1      41.748  -1.106  12.267  0.00  0.00    +0.000 A 
ATOM      8  C   UNL     1      42.302  -1.901  13.248  0.00  0.00    +0.000 A 
ATOM      9  O   UNL     1      43.644  -2.282  13.250  0.00  0.00    +0.000 OA
ATOM     10  C   UNL     1      41.512  -2.354  14.288  0.00  0.00    +0.000 A 
ATOM     11  C   UNL     1      40.161  -2.008  14.345  0.00  0.00    +0.000 A 
ENDROOT
BRANCH   3  12
ATOM     12  C   UNL     1      36.762  -1.762  15.519  0.00  0.00    +0.000 A 
ATOM     13  C   UNL     1      36.431  -0.806  16.476  0.00  0.00    +0.000 A 
ATOM     14  C   UNL     1      35.232  -0.852  17.147  0.00  0.00    +0.000 A 
ATOM     15  C   UNL     1      34.304  -1.848  16.902  0.00  0.00    +0.000 A 
ATOM     16  O   UNL     1      33.101  -1.866  17.599  0.00  0.00    +0.000 OA
ATOM     17  C   UNL     1      34.602  -2.809  15.959  0.00  0.00    +0.000 A 
ATOM     18  C   UNL     1      35.809  -2.731  15.309  0.00  0.00    +0.000 A 
ENDBRANCH   3  12
BRANCH   4  19
ATOM     19  C   UNL     1      37.420  -0.324  12.809  0.00  0.00    +0.000 C 
BRANCH  19  20
ATOM     20  C   UNL     1      37.159   1.067  13.141  0.00  0.00    +0.000 C 
BRANCH  20  21
ATOM     21  C   UNL     1      36.024   1.550  13.876  0.00  0.00    +0.000 C 
BRANCH  21  22
ATOM     22  C   UNL     1      36.159   2.480  15.003  0.00  0.00    +0.000 C 
BRANCH  22  23
ATOM     23  C   UNL     1      37.536   2.806  15.457  0.00  0.00    +0.000 C 
BRANCH  23  24
ATOM     24  C   UNL     1      37.508   3.957  16.414  0.00  0.00    +0.000 C 
BRANCH  24  25
ATOM     25  N   UNL     1      38.834   4.292  16.889  0.00  0.00    +0.000 NA
ATOM     26  C   UNL     1      39.453   5.284  16.067  0.00  0.00    +0.000 C 
ATOM     27  C   UNL     1      39.336   6.591  16.818  0.00  0.00    +0.000 C 
ATOM     28  C   UNL     1      38.490   6.287  18.036  0.00  0.00    +0.000 C 
ATOM     29  C   UNL     1      38.760   4.799  18.226  0.00  0.00    +0.000 C 
ENDBRANCH  24  25
ENDBRANCH  23  24
ENDBRANCH  22  23
ENDBRANCH  21  22
ENDBRANCH  20  21
ENDBRANCH  19  20
ENDBRANCH   4  19
TORSDOF 8
ENDMDL
MODEL 9
REMARK VINA RESULT:      -6.7      4.005      7.519
REMARK  Name = 
REMARK  8 active torsions:
REMARK  status: ('A' for Active; 'I' for Inactive)
REMARK    1  A    between atoms: C_3  and  C_4
REMARK    2  A    between atoms: N_11  and  C_12
REMARK    3  A    between atoms: C_12  and  C_13
REMARK    4  A    between atoms: C_13  and  C_14
REMARK    5  A    between atoms: C_14  and  C_15
REMARK    6  A    between atoms: C_15  and  C_16
REMARK    7  A    between atoms: C_16  and  C_17
REMARK    8  A    between atoms: C_17  and  N_18
REMARK                            x       y       z     vdW  Elec       q    Type
REMARK                         _______ _______ _______ _____ _____    ______ ____
ROOT
ATOM      1  C   UNL     1      34.800   0.096  16.950  0.00  0.00    +0.000 C 
ATOM      2  C   UNL     1      35.796   0.538  15.920  0.00  0.00    +0.000 A 
ATOM      3  C   UNL     1      36.900  -0.178  15.441  0.00  0.00    +0.000 A 
ATOM      4  N   UNL     1      37.519   0.570  14.545  0.00  0.00    +0.000 N 
ATOM      5  C   UNL     1      36.876   1.765  14.392  0.00  0.00    +0.000 A 
ATOM      6  C   UNL     1      37.124   2.863  13.592  0.00  0.00    +0.000 A 
ATOM      7  C   UNL     1      36.278   3.951  13.658  0.00  0.00    +0.000 A 
ATOM      8  C   UNL     1      35.196   3.948  14.513  0.00  0.00    +0.000 A 
ATOM      9  O   UNL     1      34.310   5.020  14.621  0.00  0.00    +0.000 OA
ATOM     10  C   UNL     1      34.958   2.845  15.310  0.00  0.00    +0.000 A 
ATOM     11  C   UNL     1      35.808   1.739  15.249  0.00  0.00    +0.000 A 
ENDROOT
BRANCH   3  12
ATOM     12  C   UNL     1      37.191  -1.524  15.905  0.00  0.00    +0.000 A 
ATOM     13  C   UNL     1      36.601  -2.633  15.302  0.00  0.00    +0.000 A 
ATOM     14  C   UNL     1      36.899  -3.912  15.711  0.00  0.00    +0.000 A 
ATOM     15  C   UNL     1      37.794  -4.152  16.738  0.00  0.00    +0.000 A 
ATOM     16  O   UNL     1      38.072  -5.457  17.127  0.00  0.00    +0.000 OA
ATOM     17  C   UNL     1      38.394  -3.075  17.354  0.00  0.00    +0.000 A 
ATOM     18  C   UNL     1      38.073  -1.813  16.919  0.00  0.00    +0.000 A 
ENDBRANCH   3  12
BRANCH   4  19
ATOM     19  C   UNL     1      38.739   0.271  13.850  0.00  0.00    +0.000 C 
BRANCH  19  20
ATOM     20  C   UNL     1      39.979   0.408  14.595  0.00  0.00    +0.000 C 
BRANCH  20  21
ATOM     21  C   UNL     1      41.299   0.316  14.039  0.00  0.00    +0.000 C 
BRANCH  21  22
ATOM     22  C   UNL     1      42.059  -0.939  14.031  0.00  0.00    +0.000 C 
BRANCH  22  23
ATOM     23  C   UNL     1      41.313  -2.191  14.322  0.00  0.00    +0.000 C 
BRANCH  23  24
ATOM     24  C   UNL     1      40.901  -2.859  13.046  0.00  0.00    +0.000 C 
BRANCH  24  25
ATOM     25  N   UNL     1      41.729  -2.445  11.933  0.00  0.00    +0.000 NA
ATOM     26  C   UNL     1      42.417  -3.553  11.347  0.00  0.00    +0.000 C 
ATOM     27  C   UNL     1      41.663  -3.901  10.084  0.00  0.00    +0.000 C 
ATOM     28  C   UNL     1      40.437  -3.013  10.082  0.00  0.00    +0.000 C 
ATOM     29  C   UNL     1      40.918  -1.836  10.922  0.00  0.00    +0.000 C 
ENDBRANCH  24  25
ENDBRANCH  23  24
ENDBRANCH  22  23
ENDBRANCH  21  22
ENDBRANCH  20  21
ENDBRANCH  19  20
ENDBRANCH   4  19
TORSDOF 8
ENDMDL
MODEL 10
REMARK VINA RESULT:      -6.7      3.088      7.352
REMARK  Name = 
REMARK  8 active torsions:
REMARK  status: ('A' for Active; 'I' for Inactive)
REMARK    1  A    between atoms: C_3  and  C_4
REMARK    2  A    between atoms: N_11  and  C_12
REMARK    3  A    between atoms: C_12  and  C_13
REMARK    4  A    between atoms: C_13  and  C_14
REMARK    5  A    between atoms: C_14  and  C_15
REMARK    6  A    between atoms: C_15  and  C_16
REMARK    7  A    between atoms: C_16  and  C_17
REMARK    8  A    between atoms: C_17  and  N_18
REMARK                            x       y       z     vdW  Elec       q    Type
REMARK                         _______ _______ _______ _____ _____    ______ ____
ROOT
ATOM      1  C   UNL     1      40.869   5.680  14.257  0.00  0.00    +0.000 C 
ATOM      2  C   UNL     1      40.023   5.252  15.419  0.00  0.00    +0.000 A 
ATOM      3  C   UNL     1      39.037   4.257  15.433  0.00  0.00    +0.000 A 
ATOM      4  N   UNL     1      38.530   4.197  16.650  0.00  0.00    +0.000 N 
ATOM      5  C   UNL     1      39.135   5.109  17.467  0.00  0.00    +0.000 A 
ATOM      6  C   UNL     1      38.964   5.427  18.800  0.00  0.00    +0.000 A 
ATOM      7  C   UNL     1      39.740   6.420  19.362  0.00  0.00    +0.000 A 
ATOM      8  C   UNL     1      40.679   7.091  18.606  0.00  0.00    +0.000 A 
ATOM      9  O   UNL     1      41.490   8.101  19.121  0.00  0.00    +0.000 OA
ATOM     10  C   UNL     1      40.841   6.764  17.273  0.00  0.00    +0.000 A 
ATOM     11  C   UNL     1      40.060   5.761  16.695  0.00  0.00    +0.000 A 
ENDROOT
BRANCH   3  12
ATOM     12  C   UNL     1      38.739   3.467  14.250  0.00  0.00    +0.000 A 
ATOM     13  C   UNL     1      39.363   2.241  14.030  0.00  0.00    +0.000 A 
ATOM     14  C   UNL     1      39.060   1.471  12.932  0.00  0.00    +0.000 A 
ATOM     15  C   UNL     1      38.125   1.880  11.998  0.00  0.00    +0.000 A 
ATOM     16  O   UNL     1      37.842   1.077  10.899  0.00  0.00    +0.000 OA
ATOM     17  C   UNL     1      37.490   3.089  12.188  0.00  0.00    +0.000 A 
ATOM     18  C   UNL     1      37.818   3.831  13.296  0.00  0.00    +0.000 A 
ENDBRANCH   3  12
BRANCH   4  19
ATOM     19  C   UNL     1      37.445   3.374  17.106  0.00  0.00    +0.000 C 
BRANCH  19  20
ATOM     20  C   UNL     1      36.158   3.553  16.455  0.00  0.00    +0.000 C 
BRANCH  20  21
ATOM     21  C   UNL     1      35.232   2.502  16.138  0.00  0.00    +0.000 C 
BRANCH  21  22
ATOM     22  C   UNL     1      35.570   1.411  15.218  0.00  0.00    +0.000 C 
BRANCH  22  23
ATOM     23  C   UNL     1      35.818   0.071  15.811  0.00  0.00    +0.000 C 
BRANCH  23  24
ATOM     24  C   UNL     1      37.167  -0.436  15.404  0.00  0.00    +0.000 C 
BRANCH  24  25
ATOM     25  N   UNL     1      37.974  -0.791  16.553  0.00  0.00    +0.000 NA
ATOM     26  C   UNL     1      37.180  -1.356  17.600  0.00  0.00    +0.000 C 
ATOM     27  C   UNL     1      37.400  -2.851  17.539  0.00  0.00    +0.000 C 
ATOM     28  C   UNL     1      38.248  -3.089  16.307  0.00  0.00    +0.000 C 
ATOM     29  C   UNL     1      38.966  -1.752  16.174  0.00  0.00    +0.000 C 
ENDBRANCH  24  25
ENDBRANCH  23  24
ENDBRANCH  22  23
ENDBRANCH  21  22
ENDBRANCH  20  21
ENDBRANCH  19  20
ENDBRANCH   4  19
TORSDOF 8
ENDMDL
