MODEL 1
REMARK VINA RESULT:      -7.4      0.000      0.000
REMARK  Name = 
REMARK  8 active torsions:
REMARK  status: ('A' for Active; 'I' for Inactive)
REMARK    1  A    between atoms: C_2  and  C_3
REMARK    2  A    between atoms: C_3  and  C_4
REMARK    3  A    between atoms: C_4  and  N_5
REMARK    4  A    between atoms: N_5  and  C_15
REMARK    5  A    between atoms: C_6  and  C_8
REMARK    6  A    between atoms: C_15  and  C_16
REMARK    7  A    between atoms: C_15  and  C_27
REMARK    8  A    between atoms: N_18  and  C_19
REMARK                            x       y       z     vdW  Elec       q    Type
REMARK                         _______ _______ _______ _____ _____    ______ ____
ROOT
ATOM      1  C   UNL     1      37.206   0.244  13.332  0.00  0.00    +0.000 C 
ENDROOT
BRANCH   1   2
ATOM      2  C   UNL     1      38.198  -0.740  12.599  0.00  0.00    +0.000 A 
ATOM      3  C   UNL     1      38.460  -1.964  13.100  0.00  0.00    +0.000 A 
ATOM      4  C   UNL     1      39.357  -2.798  12.489  0.00  0.00    +0.000 A 
ATOM      5  C   UNL     1      40.010  -2.388  11.337  0.00  0.00    +0.000 A 
ATOM      6  C   UNL     1      39.730  -1.139  10.840  0.00  0.00    +0.000 A 
ATOM      7  C   UNL     1      38.809  -0.294  11.477  0.00  0.00    +0.000 A 
ATOM      8 CL   UNL     1      38.496   1.253  10.703  0.00  0.00    +0.000 Cl
ENDBRANCH   1   2
BRANCH   1   9
ATOM      9  N   UNL     1      38.269   1.104  14.102  0.00  0.00    +0.000 N 
ATOM     10  C   UNL     1      37.878   2.450  14.103  0.00  0.00    +0.000 C 
ATOM     11  O   UNL     1      36.732   2.848  13.656  0.00  0.00    +0.000 OA
BRANCH  10  12
ATOM     12  C   UNL     1      38.700   3.546  14.589  0.00  0.00    +0.000 A 
ATOM     13  C   UNL     1      39.564   4.216  13.761  0.00  0.00    +0.000 A 
ATOM     14  C   UNL     1      40.311   5.294  14.218  0.00  0.00    +0.000 A 
ATOM     15  C   UNL     1      40.233   5.745  15.507  0.00  0.00    +0.000 A 
ATOM     16  C   UNL     1      39.359   5.079  16.373  0.00  0.00    +0.000 A 
ATOM     17  C   UNL     1      38.627   4.016  15.902  0.00  0.00    +0.000 A 
ATOM     18  O   UNL     1      37.761   3.374  16.804  0.00  0.00    +0.000 OA
ENDBRANCH  10  12
BRANCH   9  19
ATOM     19  C   UNL     1      39.428   0.610  14.626  0.00  0.00    +0.000 C 
BRANCH  19  20
ATOM     20  C   UNL     1      40.768   0.793  14.228  0.00  0.00    +0.000 C 
BRANCH  20  22
ATOM     21  C   UNL     1      42.109  -1.365  14.457  0.00  0.00    +0.000 C 
ATOM     22  C   UNL     1      41.773  -0.093  13.774  0.00  0.00    +0.000 C 
ENDBRANCH  20  22
ENDBRANCH  19  20
ENDBRANCH   9  19
ENDBRANCH   1   9
BRANCH   1  23
ATOM     23  C   UNL     1      36.856  -0.697  14.625  0.00  0.00    +0.000 C 
ATOM     24  O   UNL     1      36.358  -1.765  14.495  0.00  0.00    +0.000 OA
ATOM     25  N   UNL     1      37.198  -0.120  15.833  0.00  0.00    +0.000 NA
BRANCH  25  26
ATOM     26  C   UNL     1      37.028  -0.629  17.102  0.00  0.00    +0.000 A 
ATOM     27  C   UNL     1      35.963  -0.026  17.825  0.00  0.00    +0.000 A 
ATOM     28  C   UNL     1      35.197   1.080  17.148  0.00  0.00    +0.000 C 
ATOM     29  C   UNL     1      35.616  -0.403  19.089  0.00  0.00    +0.000 A 
ATOM     30  C   UNL     1      36.321  -1.412  19.701  0.00  0.00    +0.000 A 
ATOM     31  C   UNL     1      37.346  -2.013  19.046  0.00  0.00    +0.000 A 
ATOM     32  C   UNL     1      37.689  -1.616  17.751  0.00  0.00    +0.000 A 
ATOM     33  C   UNL     1      38.793  -2.359  17.119  0.00  0.00    +0.000 C 
ENDBRANCH  25  26
ENDBRANCH   1  23
TORSDOF 8
ENDMDL
MODEL 2
REMARK VINA RESULT:      -7.3      2.538      6.063
REMARK  Name = 
REMARK  8 active torsions:
REMARK  status: ('A' for Active; 'I' for Inactive)
REMARK    1  A    between atoms: C_2  and  C_3
REMARK    2  A    between atoms: C_3  and  C_4
REMARK    3  A    between atoms: C_4  and  N_5
REMARK    4  A    between atoms: N_5  and  C_15
REMARK    5  A    between atoms: C_6  and  C_8
REMARK    6  A    between atoms: C_15  and  C_16
REMARK    7  A    between atoms: C_15  and  C_27
REMARK    8  A    between atoms: N_18  and  C_19
REMARK                            x       y       z     vdW  Elec       q    Type
REMARK                         _______ _______ _______ _____ _____    ______ ____
ROOT
ATOM      1  C   UNL     1      37.215  -0.510  13.883  0.00  0.00    +0.000 C 
ENDROOT
BRANCH   1   2
ATOM      2  C   UNL     1      36.349  -1.080  15.073  0.00  0.00    +0.000 A 
ATOM      3  C   UNL     1      35.855  -0.264  16.027  0.00  0.00    +0.000 A 
ATOM      4  C   UNL     1      35.145  -0.765  17.084  0.00  0.00    +0.000 A 
ATOM      5  C   UNL     1      34.923  -2.131  17.183  0.00  0.00    +0.000 A 
ATOM      6  C   UNL     1      35.431  -2.946  16.202  0.00  0.00    +0.000 A 
ATOM      7  C   UNL     1      36.158  -2.419  15.125  0.00  0.00    +0.000 A 
ATOM      8 CL   UNL     1      36.700  -3.564  13.907  0.00  0.00    +0.000 Cl
ENDBRANCH   1   2
BRANCH   1   9
ATOM      9  N   UNL     1      38.637  -0.798  14.482  0.00  0.00    +0.000 N 
ATOM     10  C   UNL     1      39.611  -0.623  13.490  0.00  0.00    +0.000 C 
ATOM     11  O   UNL     1      39.342  -0.148  12.318  0.00  0.00    +0.000 OA
BRANCH  10  12
ATOM     12  C   UNL     1      41.017  -0.955  13.649  0.00  0.00    +0.000 A 
ATOM     13  C   UNL     1      41.911  -0.054  14.172  0.00  0.00    +0.000 A 
ATOM     14  C   UNL     1      43.244  -0.392  14.367  0.00  0.00    +0.000 A 
ATOM     15  C   UNL     1      43.741  -1.627  14.052  0.00  0.00    +0.000 A 
ATOM     16  C   UNL     1      42.850  -2.565  13.517  0.00  0.00    +0.000 A 
ATOM     17  C   UNL     1      41.535  -2.213  13.333  0.00  0.00    +0.000 A 
ATOM     18  O   UNL     1      40.673  -3.182  12.793  0.00  0.00    +0.000 OA
ENDBRANCH  10  12
BRANCH   9  19
ATOM     19  C   UNL     1      38.866  -1.220  15.759  0.00  0.00    +0.000 C 
BRANCH  19  20
ATOM     20  C   UNL     1      39.270  -2.477  16.252  0.00  0.00    +0.000 C 
BRANCH  20  22
ATOM     21  C   UNL     1      38.344  -2.582  18.627  0.00  0.00    +0.000 C 
ATOM     22  C   UNL     1      38.968  -3.198  17.431  0.00  0.00    +0.000 C 
ENDBRANCH  20  22
ENDBRANCH  19  20
ENDBRANCH   9  19
ENDBRANCH   1   9
BRANCH   1  23
ATOM     23  C   UNL     1      37.216   1.065  14.329  0.00  0.00    +0.000 C 
ATOM     24  O   UNL     1      37.844   1.443  15.261  0.00  0.00    +0.000 OA
ATOM     25  N   UNL     1      36.431   1.866  13.521  0.00  0.00    +0.000 NA
BRANCH  25  26
ATOM     26  C   UNL     1      36.199   3.220  13.625  0.00  0.00    +0.000 A 
ATOM     27  C   UNL     1      36.992   4.007  12.746  0.00  0.00    +0.000 A 
ATOM     28  C   UNL     1      37.978   3.290  11.862  0.00  0.00    +0.000 C 
ATOM     29  C   UNL     1      36.897   5.366  12.676  0.00  0.00    +0.000 A 
ATOM     30  C   UNL     1      35.997   6.014  13.488  0.00  0.00    +0.000 A 
ATOM     31  C   UNL     1      35.221   5.300  14.341  0.00  0.00    +0.000 A 
ATOM     32  C   UNL     1      35.329   3.908  14.401  0.00  0.00    +0.000 A 
ATOM     33  C   UNL     1      34.415   3.228  15.336  0.00  0.00    +0.000 C 
ENDBRANCH  25  26
ENDBRANCH   1  23
TORSDOF 8
ENDMDL
MODEL 3
REMARK VINA RESULT:      -6.9      2.518      7.123
REMARK  Name = 
REMARK  8 active torsions:
REMARK  status: ('A' for Active; 'I' for Inactive)
REMARK    1  A    between atoms: C_2  and  C_3
REMARK    2  A    between atoms: C_3  and  C_4
REMARK    3  A    between atoms: C_4  and  N_5
REMARK    4  A    between atoms: N_5  and  C_15
REMARK    5  A    between atoms: C_6  and  C_8
REMARK    6  A    between atoms: C_15  and  C_16
REMARK    7  A    between atoms: C_15  and  C_27
REMARK    8  A    between atoms: N_18  and  C_19
REMARK                            x       y       z     vdW  Elec       q    Type
REMARK                         _______ _______ _______ _____ _____    ______ ____
ROOT
ATOM      1  C   UNL     1      37.078  -0.604  14.196  0.00  0.00    +0.000 C 
ENDROOT
BRANCH   1   2
ATOM      2  C   UNL     1      36.251   0.518  14.935  0.00  0.00    +0.000 A 
ATOM      3  C   UNL     1      35.607   0.258  16.092  0.00  0.00    +0.000 A 
ATOM      4  C   UNL     1      34.851   1.219  16.707  0.00  0.00    +0.000 A 
ATOM      5  C   UNL     1      34.740   2.481  16.141  0.00  0.00    +0.000 A 
ATOM      6  C   UNL     1      35.404   2.727  14.965  0.00  0.00    +0.000 A 
ATOM      7  C   UNL     1      36.174   1.733  14.345  0.00  0.00    +0.000 A 
ATOM      8 CL   UNL     1      37.021   2.197  12.876  0.00  0.00    +0.000 Cl
ENDBRANCH   1   2
BRANCH   1   9
ATOM      9  N   UNL     1      37.038  -1.695  15.324  0.00  0.00    +0.000 N 
ATOM     10  C   UNL     1      36.994  -2.971  14.747  0.00  0.00    +0.000 C 
ATOM     11  O   UNL     1      37.123  -3.171  13.476  0.00  0.00    +0.000 OA
BRANCH  10  12
ATOM     12  C   UNL     1      36.793  -4.204  15.489  0.00  0.00    +0.000 A 
ATOM     13  C   UNL     1      37.781  -4.732  16.282  0.00  0.00    +0.000 A 
ATOM     14  C   UNL     1      37.568  -5.884  17.027  0.00  0.00    +0.000 A 
ATOM     15  C   UNL     1      36.377  -6.556  17.015  0.00  0.00    +0.000 A 
ATOM     16  C   UNL     1      35.352  -6.038  16.214  0.00  0.00    +0.000 A 
ATOM     17  C   UNL     1      35.580  -4.896  15.486  0.00  0.00    +0.000 A 
ATOM     18  O   UNL     1      34.526  -4.409  14.695  0.00  0.00    +0.000 OA
ENDBRANCH  10  12
BRANCH   9  19
ATOM     19  C   UNL     1      36.985  -1.422  16.660  0.00  0.00    +0.000 C 
BRANCH  19  20
ATOM     20  C   UNL     1      37.914  -1.681  17.688  0.00  0.00    +0.000 C 
BRANCH  20  22
ATOM     21  C   UNL     1      38.570  -3.233  19.603  0.00  0.00    +0.000 C 
ATOM     22  C   UNL     1      37.780  -2.118  19.026  0.00  0.00    +0.000 C 
ENDBRANCH  20  22
ENDBRANCH  19  20
ENDBRANCH   9  19
ENDBRANCH   1   9
BRANCH   1  23
ATOM     23  C   UNL     1      38.580  -0.084  14.588  0.00  0.00    +0.000 C 
ATOM     24  O   UNL     1      38.749   0.748  15.416  0.00  0.00    +0.000 OA
ATOM     25  N   UNL     1      39.583  -0.706  13.869  0.00  0.00    +0.000 NA
BRANCH  25  26
ATOM     26  C   UNL     1      40.942  -0.495  13.938  0.00  0.00    +0.000 A 
ATOM     27  C   UNL     1      41.664  -1.581  14.502  0.00  0.00    +0.000 A 
ATOM     28  C   UNL     1      40.877  -2.778  14.967  0.00  0.00    +0.000 C 
ATOM     29  C   UNL     1      43.022  -1.581  14.637  0.00  0.00    +0.000 A 
ATOM     30  C   UNL     1      43.734  -0.485  14.212  0.00  0.00    +0.000 A 
ATOM     31  C   UNL     1      43.083   0.574  13.669  0.00  0.00    +0.000 A 
ATOM     32  C   UNL     1      41.692   0.559  13.536  0.00  0.00    +0.000 A 
ATOM     33  C   UNL     1      41.090   1.744  12.901  0.00  0.00    +0.000 C 
ENDBRANCH  25  26
ENDBRANCH   1  23
TORSDOF 8
ENDMDL
MODEL 4
REMARK VINA RESULT:      -6.7      2.863      6.515
REMARK  Name = 
REMARK  8 active torsions:
REMARK  status: ('A' for Active; 'I' for Inactive)
REMARK    1  A    between atoms: C_2  and  C_3
REMARK    2  A    between atoms: C_3  and  C_4
REMARK    3  A    between atoms: C_4  and  N_5
REMARK    4  A    between atoms: N_5  and  C_15
REMARK    5  A    between atoms: C_6  and  C_8
REMARK    6  A    between atoms: C_15  and  C_16
REMARK    7  A    between atoms: C_15  and  C_27
REMARK    8  A    between atoms: N_18  and  C_19
REMARK                            x       y       z     vdW  Elec       q    Type
REMARK                         _______ _______ _______ _____ _____    ______ ____
ROOT
ATOM      1  C   UNL     1      39.277   0.219  13.040  0.00  0.00    +0.000 C 
ENDROOT
BRANCH   1   2
ATOM      2  C   UNL     1      39.988  -1.018  12.367  0.00  0.00    +0.000 A 
ATOM      3  C   UNL     1      39.669  -1.406  11.115  0.00  0.00    +0.000 A 
ATOM      4  C   UNL     1      40.253  -2.507  10.549  0.00  0.00    +0.000 A 
ATOM      5  C   UNL     1      41.187  -3.240  11.266  0.00  0.00    +0.000 A 
ATOM      6  C   UNL     1      41.501  -2.829  12.538  0.00  0.00    +0.000 A 
ATOM      7  C   UNL     1      40.895  -1.698  13.105  0.00  0.00    +0.000 A 
ATOM      8 CL   UNL     1      41.431  -1.245  14.716  0.00  0.00    +0.000 Cl
ENDBRANCH   1   2
BRANCH   1   9
ATOM      9  N   UNL     1      38.156  -0.559  13.815  0.00  0.00    +0.000 N 
ATOM     10  C   UNL     1      37.824   0.133  14.987  0.00  0.00    +0.000 C 
ATOM     11  O   UNL     1      38.289   1.306  15.265  0.00  0.00    +0.000 OA
BRANCH  10  12
ATOM     12  C   UNL     1      36.937  -0.376  16.020  0.00  0.00    +0.000 A 
ATOM     13  C   UNL     1      35.596  -0.086  16.021  0.00  0.00    +0.000 A 
ATOM     14  C   UNL     1      34.745  -0.614  16.983  0.00  0.00    +0.000 A 
ATOM     15  C   UNL     1      35.187  -1.444  17.977  0.00  0.00    +0.000 A 
ATOM     16  C   UNL     1      36.551  -1.756  17.999  0.00  0.00    +0.000 A 
ATOM     17  C   UNL     1      37.377  -1.226  17.039  0.00  0.00    +0.000 A 
ATOM     18  O   UNL     1      38.740  -1.563  17.096  0.00  0.00    +0.000 OA
ENDBRANCH  10  12
BRANCH   9  19
ATOM     19  C   UNL     1      37.643  -1.762  13.426  0.00  0.00    +0.000 C 
BRANCH  19  20
ATOM     20  C   UNL     1      37.762  -3.042  14.005  0.00  0.00    +0.000 C 
BRANCH  20  22
ATOM     21  C   UNL     1      35.397  -3.608  14.775  0.00  0.00    +0.000 C 
ATOM     22  C   UNL     1      36.829  -3.939  14.575  0.00  0.00    +0.000 C 
ENDBRANCH  20  22
ENDBRANCH  19  20
ENDBRANCH   9  19
ENDBRANCH   1   9
BRANCH   1  23
ATOM     23  C   UNL     1      38.296   0.631  11.796  0.00  0.00    +0.000 C 
ATOM     24  O   UNL     1      37.241   0.111  11.643  0.00  0.00    +0.000 OA
ATOM     25  N   UNL     1      38.824   1.615  10.981  0.00  0.00    +0.000 NA
BRANCH  25  26
ATOM     26  C   UNL     1      38.273   2.175   9.850  0.00  0.00    +0.000 A 
ATOM     27  C   UNL     1      37.517   3.352  10.101  0.00  0.00    +0.000 A 
ATOM     28  C   UNL     1      37.388   3.808  11.530  0.00  0.00    +0.000 C 
ATOM     29  C   UNL     1      36.911   4.071   9.113  0.00  0.00    +0.000 A 
ATOM     30  C   UNL     1      37.030   3.646   7.811  0.00  0.00    +0.000 A 
ATOM     31  C   UNL     1      37.744   2.528   7.528  0.00  0.00    +0.000 A 
ATOM     32  C   UNL     1      38.360   1.803   8.551  0.00  0.00    +0.000 A 
ATOM     33  C   UNL     1      39.138   0.625   8.130  0.00  0.00    +0.000 C 
ENDBRANCH  25  26
ENDBRANCH   1  23
TORSDOF 8
ENDMDL
MODEL 5
REMARK VINA RESULT:      -6.6      2.492      6.666
REMARK  Name = 
REMARK  8 active torsions:
REMARK  status: ('A' for Active; 'I' for Inactive)
REMARK    1  A    between atoms: C_2  and  C_3
REMARK    2  A    between atoms: C_3  and  C_4
REMARK    3  A    between atoms: C_4  and  N_5
REMARK    4  A    between atoms: N_5  and  C_15
REMARK    5  A    between atoms: C_6  and  C_8
REMARK    6  A    between atoms: C_15  and  C_16
REMARK    7  A    between atoms: C_15  and  C_27
REMARK    8  A    between atoms: N_18  and  C_19
REMARK                            x       y       z     vdW  Elec       q    Type
REMARK                         _______ _______ _______ _____ _____    ______ ____
ROOT
ATOM      1  C   UNL     1      39.375   0.687  13.566  0.00  0.00    +0.000 C 
ENDROOT
BRANCH   1   2
ATOM      2  C   UNL     1      40.710  -0.096  13.872  0.00  0.00    +0.000 A 
ATOM      3  C   UNL     1      40.684  -1.327  14.423  0.00  0.00    +0.000 A 
ATOM      4  C   UNL     1      41.844  -1.985  14.732  0.00  0.00    +0.000 A 
ATOM      5  C   UNL     1      43.069  -1.385  14.477  0.00  0.00    +0.000 A 
ATOM      6  C   UNL     1      43.076  -0.133  13.913  0.00  0.00    +0.000 A 
ATOM      7  C   UNL     1      41.880   0.530  13.603  0.00  0.00    +0.000 A 
ATOM      8 CL   UNL     1      42.030   2.101  12.829  0.00  0.00    +0.000 Cl
ENDBRANCH   1   2
BRANCH   1   9
ATOM      9  N   UNL     1      38.369  -0.310  14.243  0.00  0.00    +0.000 N 
ATOM     10  C   UNL     1      37.674   0.343  15.269  0.00  0.00    +0.000 C 
ATOM     11  O   UNL     1      37.773   1.614  15.485  0.00  0.00    +0.000 OA
BRANCH  10  12
ATOM     12  C   UNL     1      36.779  -0.315  16.206  0.00  0.00    +0.000 A 
ATOM     13  C   UNL     1      35.418  -0.152  16.132  0.00  0.00    +0.000 A 
ATOM     14  C   UNL     1      34.564  -0.821  16.999  0.00  0.00    +0.000 A 
ATOM     15  C   UNL     1      35.021  -1.671  17.968  0.00  0.00    +0.000 A 
ATOM     16  C   UNL     1      36.406  -1.855  18.065  0.00  0.00    +0.000 A 
ATOM     17  C   UNL     1      37.235  -1.187  17.198  0.00  0.00    +0.000 A 
ATOM     18  O   UNL     1      38.618  -1.398  17.328  0.00  0.00    +0.000 OA
ENDBRANCH  10  12
BRANCH   9  19
ATOM     19  C   UNL     1      38.251  -1.629  13.913  0.00  0.00    +0.000 C 
BRANCH  19  20
ATOM     20  C   UNL     1      37.107  -2.435  13.743  0.00  0.00    +0.000 C 
BRANCH  20  22
ATOM     21  C   UNL     1      35.260  -3.805  14.848  0.00  0.00    +0.000 C 
ATOM     22  C   UNL     1      36.652  -3.617  14.372  0.00  0.00    +0.000 C 
ENDBRANCH  20  22
ENDBRANCH  19  20
ENDBRANCH   9  19
ENDBRANCH   1   9
BRANCH   1  23
ATOM     23  C   UNL     1      39.110   0.114  12.055  0.00  0.00    +0.000 C 
ATOM     24  O   UNL     1      38.025   0.112  11.577  0.00  0.00    +0.000 OA
ATOM     25  N   UNL     1      40.255  -0.345  11.432  0.00  0.00    +0.000 NA
BRANCH  25  26
ATOM     26  C   UNL     1      40.382  -0.900  10.178  0.00  0.00    +0.000 A 
ATOM     27  C   UNL     1      40.590  -2.306  10.189  0.00  0.00    +0.000 A 
ATOM     28  C   UNL     1      40.673  -2.989  11.529  0.00  0.00    +0.000 C 
ATOM     29  C   UNL     1      40.716  -3.047   9.051  0.00  0.00    +0.000 A 
ATOM     30  C   UNL     1      40.641  -2.417   7.832  0.00  0.00    +0.000 A 
ATOM     31  C   UNL     1      40.444  -1.076   7.777  0.00  0.00    +0.000 A 
ATOM     32  C   UNL     1      40.316  -0.329   8.952  0.00  0.00    +0.000 A 
ATOM     33  C   UNL     1      40.070   1.113   8.777  0.00  0.00    +0.000 C 
ENDBRANCH  25  26
ENDBRANCH   1  23
TORSDOF 8
ENDMDL
MODEL 6
REMARK VINA RESULT:      -6.6     27.320     30.515
REMARK  Name = 
REMARK  8 active torsions:
REMARK  status: ('A' for Active; 'I' for Inactive)
REMARK    1  A    between atoms: C_2  and  C_3
REMARK    2  A    between atoms: C_3  and  C_4
REMARK    3  A    between atoms: C_4  and  N_5
REMARK    4  A    between atoms: N_5  and  C_15
REMARK    5  A    between atoms: C_6  and  C_8
REMARK    6  A    between atoms: C_15  and  C_16
REMARK    7  A    between atoms: C_15  and  C_27
REMARK    8  A    between atoms: N_18  and  C_19
REMARK                            x       y       z     vdW  Elec       q    Type
REMARK                         _______ _______ _______ _____ _____    ______ ____
ROOT
ATOM      1  C   UNL     1      26.497  18.166  34.706  0.00  0.00    +0.000 C 
ENDROOT
BRANCH   1   2
ATOM      2  C   UNL     1      26.004  16.901  33.901  0.00  0.00    +0.000 A 
ATOM      3  C   UNL     1      24.801  16.891  33.291  0.00  0.00    +0.000 A 
ATOM      4  C   UNL     1      24.355  15.776  32.634  0.00  0.00    +0.000 A 
ATOM      5  C   UNL     1      25.145  14.637  32.588  0.00  0.00    +0.000 A 
ATOM      6  C   UNL     1      26.367  14.667  33.213  0.00  0.00    +0.000 A 
ATOM      7  C   UNL     1      26.811  15.815  33.883  0.00  0.00    +0.000 A 
ATOM      8 CL   UNL     1      28.420  15.741  34.587  0.00  0.00    +0.000 Cl
ENDBRANCH   1   2
BRANCH   1   9
ATOM      9  N   UNL     1      26.201  17.641  36.155  0.00  0.00    +0.000 N 
ATOM     10  C   UNL     1      27.187  18.104  37.036  0.00  0.00    +0.000 C 
ATOM     11  O   UNL     1      28.096  18.955  36.688  0.00  0.00    +0.000 OA
BRANCH  10  12
ATOM     12  C   UNL     1      27.314  17.686  38.422  0.00  0.00    +0.000 A 
ATOM     13  C   UNL     1      28.243  16.752  38.807  0.00  0.00    +0.000 A 
ATOM     14  C   UNL     1      28.393  16.392  40.140  0.00  0.00    +0.000 A 
ATOM     15  C   UNL     1      27.633  16.937  41.137  0.00  0.00    +0.000 A 
ATOM     16  C   UNL     1      26.678  17.893  40.772  0.00  0.00    +0.000 A 
ATOM     17  C   UNL     1      26.545  18.238  39.449  0.00  0.00    +0.000 A 
ATOM     18  O   UNL     1      25.574  19.201  39.123  0.00  0.00    +0.000 OA
ENDBRANCH  10  12
BRANCH   9  19
ATOM     19  C   UNL     1      25.172  16.805  36.477  0.00  0.00    +0.000 C 
BRANCH  19  20
ATOM     20  C   UNL     1      25.173  15.558  37.135  0.00  0.00    +0.000 C 
BRANCH  20  22
ATOM     21  C   UNL     1      25.356  14.329  39.363  0.00  0.00    +0.000 C 
ATOM     22  C   UNL     1      24.602  15.100  38.345  0.00  0.00    +0.000 C 
ENDBRANCH  20  22
ENDBRANCH  19  20
ENDBRANCH   9  19
ENDBRANCH   1   9
BRANCH   1  23
ATOM     23  C   UNL     1      25.121  19.050  34.617  0.00  0.00    +0.000 C 
ATOM     24  O   UNL     1      24.227  18.879  35.377  0.00  0.00    +0.000 OA
ATOM     25  N   UNL     1      25.130  19.979  33.594  0.00  0.00    +0.000 NA
BRANCH  25  26
ATOM     26  C   UNL     1      24.137  20.863  33.234  0.00  0.00    +0.000 A 
ATOM     27  C   UNL     1      23.460  20.510  32.035  0.00  0.00    +0.000 A 
ATOM     28  C   UNL     1      23.917  19.270  31.313  0.00  0.00    +0.000 C 
ATOM     29  C   UNL     1      22.430  21.242  31.521  0.00  0.00    +0.000 A 
ATOM     30  C   UNL     1      22.020  22.374  32.184  0.00  0.00    +0.000 A 
ATOM     31  C   UNL     1      22.640  22.746  33.332  0.00  0.00    +0.000 A 
ATOM     32  C   UNL     1      23.693  21.986  33.847  0.00  0.00    +0.000 A 
ATOM     33  C   UNL     1      24.272  22.460  35.116  0.00  0.00    +0.000 C 
ENDBRANCH  25  26
ENDBRANCH   1  23
TORSDOF 8
ENDMDL
MODEL 7
REMARK VINA RESULT:      -6.5      2.444      6.359
REMARK  Name = 
REMARK  8 active torsions:
REMARK  status: ('A' for Active; 'I' for Inactive)
REMARK    1  A    between atoms: C_2  and  C_3
REMARK    2  A    between atoms: C_3  and  C_4
REMARK    3  A    between atoms: C_4  and  N_5
REMARK    4  A    between atoms: N_5  and  C_15
REMARK    5  A    between atoms: C_6  and  C_8
REMARK    6  A    between atoms: C_15  and  C_16
REMARK    7  A    between atoms: C_15  and  C_27
REMARK    8  A    between atoms: N_18  and  C_19
REMARK                            x       y       z     vdW  Elec       q    Type
REMARK                         _______ _______ _______ _____ _____    ______ ____
ROOT
ATOM      1  C   UNL     1      39.118   1.459  14.363  0.00  0.00    +0.000 C 
ENDROOT
BRANCH   1   2
ATOM      2  C   UNL     1      38.541   1.332  12.900  0.00  0.00    +0.000 A 
ATOM      3  C   UNL     1      37.335   0.770  12.675  0.00  0.00    +0.000 A 
ATOM      4  C   UNL     1      36.857   0.617  11.402  0.00  0.00    +0.000 A 
ATOM      5  C   UNL     1      37.615   1.043  10.321  0.00  0.00    +0.000 A 
ATOM      6  C   UNL     1      38.839   1.615  10.570  0.00  0.00    +0.000 A 
ATOM      7  C   UNL     1      39.317   1.765  11.880  0.00  0.00    +0.000 A 
ATOM      8 CL   UNL     1      40.870   2.567  12.062  0.00  0.00    +0.000 Cl
ENDBRANCH   1   2
BRANCH   1   9
ATOM      9  N   UNL     1      38.225   0.369  15.054  0.00  0.00    +0.000 N 
ATOM     10  C   UNL     1      38.966  -0.806  15.232  0.00  0.00    +0.000 C 
ATOM     11  O   UNL     1      40.233  -0.881  14.986  0.00  0.00    +0.000 OA
BRANCH  10  12
ATOM     12  C   UNL     1      38.412  -2.067  15.697  0.00  0.00    +0.000 A 
ATOM     13  C   UNL     1      38.524  -2.458  17.008  0.00  0.00    +0.000 A 
ATOM     14  C   UNL     1      37.951  -3.640  17.458  0.00  0.00    +0.000 A 
ATOM     15  C   UNL     1      37.252  -4.477  16.633  0.00  0.00    +0.000 A 
ATOM     16  C   UNL     1      37.123  -4.102  15.291  0.00  0.00    +0.000 A 
ATOM     17  C   UNL     1      37.695  -2.928  14.864  0.00  0.00    +0.000 A 
ATOM     18  O   UNL     1      37.543  -2.587  13.509  0.00  0.00    +0.000 OA
ENDBRANCH  10  12
BRANCH   9  19
ATOM     19  C   UNL     1      36.906   0.535  15.365  0.00  0.00    +0.000 C 
BRANCH  19  20
ATOM     20  C   UNL     1      36.212   0.309  16.571  0.00  0.00    +0.000 C 
BRANCH  20  22
ATOM     21  C   UNL     1      34.723  -1.724  16.967  0.00  0.00    +0.000 C 
ATOM     22  C   UNL     1      34.954  -0.261  16.872  0.00  0.00    +0.000 C 
ENDBRANCH  20  22
ENDBRANCH  19  20
ENDBRANCH   9  19
ENDBRANCH   1   9
BRANCH   1  23
ATOM     23  C   UNL     1      38.191   2.710  14.871  0.00  0.00    +0.000 C 
ATOM     24  O   UNL     1      38.162   3.034  16.012  0.00  0.00    +0.000 OA
ATOM     25  N   UNL     1      37.478   3.315  13.854  0.00  0.00    +0.000 NA
BRANCH  25  26
ATOM     26  C   UNL     1      36.601   4.374  13.937  0.00  0.00    +0.000 A 
ATOM     27  C   UNL     1      37.127   5.597  13.441  0.00  0.00    +0.000 A 
ATOM     28  C   UNL     1      38.545   5.592  12.931  0.00  0.00    +0.000 C 
ATOM     29  C   UNL     1      36.410   6.757  13.411  0.00  0.00    +0.000 A 
ATOM     30  C   UNL     1      35.118   6.754  13.879  0.00  0.00    +0.000 A 
ATOM     31  C   UNL     1      34.577   5.607  14.362  0.00  0.00    +0.000 A 
ATOM     32  C   UNL     1      35.324   4.427  14.385  0.00  0.00    +0.000 A 
ATOM     33  C   UNL     1      34.629   3.233  14.896  0.00  0.00    +0.000 C 
ENDBRANCH  25  26
ENDBRANCH   1  23
TORSDOF 8
ENDMDL
MODEL 8
REMARK VINA RESULT:      -6.5      2.685      4.884
REMARK  Name = 
REMARK  8 active torsions:
REMARK  status: ('A' for Active; 'I' for Inactive)
REMARK    1  A    between atoms: C_2  and  C_3
REMARK    2  A    between atoms: C_3  and  C_4
REMARK    3  A    between atoms: C_4  and  N_5
REMARK    4  A    between atoms: N_5  and  C_15
REMARK    5  A    between atoms: C_6  and  C_8
REMARK    6  A    between atoms: C_15  and  C_16
REMARK    7  A    between atoms: C_15  and  C_27
REMARK    8  A    between atoms: N_18  and  C_19
REMARK                            x       y       z     vdW  Elec       q    Type
REMARK                         _______ _______ _______ _____ _____    ______ ____
ROOT
ATOM      1  C   UNL     1      36.545  -0.776  16.888  0.00  0.00    +0.000 C 
ENDROOT
BRANCH   1   2
ATOM      2  C   UNL     1      35.984  -2.017  16.092  0.00  0.00    +0.000 A 
ATOM      3  C   UNL     1      36.747  -2.667  15.190  0.00  0.00    +0.000 A 
ATOM      4  C   UNL     1      36.243  -3.715  14.466  0.00  0.00    +0.000 A 
ATOM      5  C   UNL     1      34.931  -4.121  14.659  0.00  0.00    +0.000 A 
ATOM      6  C   UNL     1      34.170  -3.449  15.583  0.00  0.00    +0.000 A 
ATOM      7  C   UNL     1      34.699  -2.377  16.317  0.00  0.00    +0.000 A 
ATOM      8 CL   UNL     1      33.638  -1.643  17.511  0.00  0.00    +0.000 Cl
ENDBRANCH   1   2
BRANCH   1   9
ATOM      9  N   UNL     1      36.487   0.280  15.728  0.00  0.00    +0.000 N 
ATOM     10  C   UNL     1      36.498   1.574  16.265  0.00  0.00    +0.000 C 
ATOM     11  O   UNL     1      36.683   1.810  17.523  0.00  0.00    +0.000 OA
BRANCH  10  12
ATOM     12  C   UNL     1      36.299   2.789  15.492  0.00  0.00    +0.000 A 
ATOM     13  C   UNL     1      37.353   3.454  14.918  0.00  0.00    +0.000 A 
ATOM     14  C   UNL     1      37.152   4.587  14.140  0.00  0.00    +0.000 A 
ATOM     15  C   UNL     1      35.908   5.103  13.903  0.00  0.00    +0.000 A 
ATOM     16  C   UNL     1      34.815   4.443  14.477  0.00  0.00    +0.000 A 
ATOM     17  C   UNL     1      35.032   3.323  15.242  0.00  0.00    +0.000 A 
ATOM     18  O   UNL     1      33.909   2.690  15.801  0.00  0.00    +0.000 OA
ENDBRANCH  10  12
BRANCH   9  19
ATOM     19  C   UNL     1      36.374  -0.033  14.404  0.00  0.00    +0.000 C 
BRANCH  19  20
ATOM     20  C   UNL     1      36.575   0.756  13.254  0.00  0.00    +0.000 C 
BRANCH  20  22
ATOM     21  C   UNL     1      38.340   0.235  11.487  0.00  0.00    +0.000 C 
ATOM     22  C   UNL     1      36.938   0.451  11.921  0.00  0.00    +0.000 C 
ENDBRANCH  20  22
ENDBRANCH  19  20
ENDBRANCH   9  19
ENDBRANCH   1   9
BRANCH   1  23
ATOM     23  C   UNL     1      38.143  -1.076  16.693  0.00  0.00    +0.000 C 
ATOM     24  O   UNL     1      38.802  -1.510  17.578  0.00  0.00    +0.000 OA
ATOM     25  N   UNL     1      38.609  -0.776  15.427  0.00  0.00    +0.000 NA
BRANCH  25  26
ATOM     26  C   UNL     1      39.891  -0.893  14.937  0.00  0.00    +0.000 A 
ATOM     27  C   UNL     1      40.456   0.337  14.505  0.00  0.00    +0.000 A 
ATOM     28  C   UNL     1      39.599   1.572  14.602  0.00  0.00    +0.000 C 
ATOM     29  C   UNL     1      41.723   0.440  14.010  0.00  0.00    +0.000 A 
ATOM     30  C   UNL     1      42.498  -0.692  13.922  0.00  0.00    +0.000 A 
ATOM     31  C   UNL     1      41.997  -1.887  14.324  0.00  0.00    +0.000 A 
ATOM     32  C   UNL     1      40.697  -1.976  14.829  0.00  0.00    +0.000 A 
ATOM     33  C   UNL     1      40.265  -3.314  15.269  0.00  0.00    +0.000 C 
ENDBRANCH  25  26
ENDBRANCH   1  23
TORSDOF 8
ENDMDL
MODEL 9
REMARK VINA RESULT:      -6.4      2.288      3.573
REMARK  Name = 
REMARK  8 active torsions:
REMARK  status: ('A' for Active; 'I' for Inactive)
REMARK    1  A    between atoms: C_2  and  C_3
REMARK    2  A    between atoms: C_3  and  C_4
REMARK    3  A    between atoms: C_4  and  N_5
REMARK    4  A    between atoms: N_5  and  C_15
REMARK    5  A    between atoms: C_6  and  C_8
REMARK    6  A    between atoms: C_15  and  C_16
REMARK    7  A    between atoms: C_15  and  C_27
REMARK    8  A    between atoms: N_18  and  C_19
REMARK                            x       y       z     vdW  Elec       q    Type
REMARK                         _______ _______ _______ _____ _____    ______ ____
ROOT
ATOM      1  C   UNL     1      36.900   2.284  14.166  0.00  0.00    +0.000 C 
ENDROOT
BRANCH   1   2
ATOM      2  C   UNL     1      37.715   2.120  12.825  0.00  0.00    +0.000 A 
ATOM      3  C   UNL     1      38.453   1.015  12.590  0.00  0.00    +0.000 A 
ATOM      4  C   UNL     1      39.196   0.895  11.448  0.00  0.00    +0.000 A 
ATOM      5  C   UNL     1      39.197   1.918  10.511  0.00  0.00    +0.000 A 
ATOM      6  C   UNL     1      38.439   3.034  10.766  0.00  0.00    +0.000 A 
ATOM      7  C   UNL     1      37.682   3.144  11.942  0.00  0.00    +0.000 A 
ATOM      8 CL   UNL     1      36.708   4.597  12.116  0.00  0.00    +0.000 Cl
ENDBRANCH   1   2
BRANCH   1   9
ATOM      9  N   UNL     1      37.953   3.128  14.968  0.00  0.00    +0.000 N 
ATOM     10  C   UNL     1      37.315   3.813  16.010  0.00  0.00    +0.000 C 
ATOM     11  O   UNL     1      36.073   3.626  16.316  0.00  0.00    +0.000 OA
BRANCH  10  12
ATOM     12  C   UNL     1      37.955   4.808  16.855  0.00  0.00    +0.000 A 
ATOM     13  C   UNL     1      38.588   4.457  18.021  0.00  0.00    +0.000 A 
ATOM     14  C   UNL     1      39.240   5.404  18.800  0.00  0.00    +0.000 A 
ATOM     15  C   UNL     1      39.288   6.727  18.458  0.00  0.00    +0.000 A 
ATOM     16  C   UNL     1      38.650   7.112  17.273  0.00  0.00    +0.000 A 
ATOM     17  C   UNL     1      38.012   6.161  16.514  0.00  0.00    +0.000 A 
ATOM     18  O   UNL     1      37.384   6.588  15.332  0.00  0.00    +0.000 OA
ENDBRANCH  10  12
BRANCH   9  19
ATOM     19  C   UNL     1      39.275   3.222  14.643  0.00  0.00    +0.000 C 
BRANCH  19  20
ATOM     20  C   UNL     1      40.006   4.280  14.066  0.00  0.00    +0.000 C 
BRANCH  20  22
ATOM     21  C   UNL     1      40.795   6.704  14.161  0.00  0.00    +0.000 C 
ATOM     22  C   UNL     1      40.838   5.290  14.604  0.00  0.00    +0.000 C 
ENDBRANCH  20  22
ENDBRANCH  19  20
ENDBRANCH   9  19
ENDBRANCH   1   9
BRANCH   1  23
ATOM     23  C   UNL     1      37.323   0.868  14.871  0.00  0.00    +0.000 C 
ATOM     24  O   UNL     1      38.364   0.740  15.425  0.00  0.00    +0.000 OA
ATOM     25  N   UNL     1      36.362  -0.117  14.747  0.00  0.00    +0.000 NA
BRANCH  25  26
ATOM     26  C   UNL     1      36.403  -1.415  15.206  0.00  0.00    +0.000 A 
ATOM     27  C   UNL     1      35.594  -1.646  16.351  0.00  0.00    +0.000 A 
ATOM     28  C   UNL     1      34.841  -0.474  16.923  0.00  0.00    +0.000 C 
ATOM     29  C   UNL     1      35.478  -2.869  16.944  0.00  0.00    +0.000 A 
ATOM     30  C   UNL     1      36.170  -3.934  16.418  0.00  0.00    +0.000 A 
ATOM     31  C   UNL     1      36.954  -3.756  15.326  0.00  0.00    +0.000 A 
ATOM     32  C   UNL     1      37.062  -2.497  14.728  0.00  0.00    +0.000 A 
ATOM     33  C   UNL     1      37.911  -2.423  13.527  0.00  0.00    +0.000 C 
ENDBRANCH  25  26
ENDBRANCH   1  23
TORSDOF 8
ENDMDL
MODEL 10
REMARK VINA RESULT:      -6.4      3.580      7.214
REMARK  Name = 
REMARK  8 active torsions:
REMARK  status: ('A' for Active; 'I' for Inactive)
REMARK    1  A    between atoms: C_2  and  C_3
REMARK    2  A    between atoms: C_3  and  C_4
REMARK    3  A    between atoms: C_4  and  N_5
REMARK    4  A    between atoms: N_5  and  C_15
REMARK    5  A    between atoms: C_6  and  C_8
REMARK    6  A    between atoms: C_15  and  C_16
REMARK    7  A    between atoms: C_15  and  C_27
REMARK    8  A    between atoms: N_18  and  C_19
REMARK                            x       y       z     vdW  Elec       q    Type
REMARK                         _______ _______ _______ _____ _____    ______ ____
ROOT
ATOM      1  C   UNL     1      36.760   4.129  15.438  0.00  0.00    +0.000 C 
ENDROOT
BRANCH   1   2
ATOM      2  C   UNL     1      38.201   4.712  15.170  0.00  0.00    +0.000 A 
ATOM      3  C   UNL     1      38.655   4.892  13.913  0.00  0.00    +0.000 A 
ATOM      4  C   UNL     1      39.923   5.353  13.681  0.00  0.00    +0.000 A 
ATOM      5  C   UNL     1      40.759   5.644  14.749  0.00  0.00    +0.000 A 
ATOM      6  C   UNL     1      40.279   5.457  16.022  0.00  0.00    +0.000 A 
ATOM      7  C   UNL     1      38.978   4.983  16.244  0.00  0.00    +0.000 A 
ATOM      8 CL   UNL     1      38.467   4.846  17.921  0.00  0.00    +0.000 Cl
ENDBRANCH   1   2
BRANCH   1   9
ATOM      9  N   UNL     1      37.092   2.607  15.243  0.00  0.00    +0.000 N 
ATOM     10  C   UNL     1      36.182   1.827  15.968  0.00  0.00    +0.000 C 
ATOM     11  O   UNL     1      35.150   2.327  16.567  0.00  0.00    +0.000 OA
BRANCH  10  12
ATOM     12  C   UNL     1      36.285   0.388  16.140  0.00  0.00    +0.000 A 
ATOM     13  C   UNL     1      36.069  -0.477  15.097  0.00  0.00    +0.000 A 
ATOM     14  C   UNL     1      36.216  -1.848  15.255  0.00  0.00    +0.000 A 
ATOM     15  C   UNL     1      36.578  -2.414  16.446  0.00  0.00    +0.000 A 
ATOM     16  C   UNL     1      36.805  -1.555  17.527  0.00  0.00    +0.000 A 
ATOM     17  C   UNL     1      36.657  -0.201  17.351  0.00  0.00    +0.000 A 
ATOM     18  O   UNL     1      36.893   0.628  18.461  0.00  0.00    +0.000 OA
ENDBRANCH  10  12
BRANCH   9  19
ATOM     19  C   UNL     1      38.154   2.135  14.527  0.00  0.00    +0.000 C 
BRANCH  19  20
ATOM     20  C   UNL     1      39.301   1.430  14.943  0.00  0.00    +0.000 C 
BRANCH  20  22
ATOM     21  C   UNL     1      39.815  -1.069  14.976  0.00  0.00    +0.000 C 
ATOM     22  C   UNL     1      39.982   0.301  14.431  0.00  0.00    +0.000 C 
ENDBRANCH  20  22
ENDBRANCH  19  20
ENDBRANCH   9  19
ENDBRANCH   1   9
BRANCH   1  23
ATOM     23  C   UNL     1      36.149   4.310  13.930  0.00  0.00    +0.000 C 
ATOM     24  O   UNL     1      35.947   3.376  13.228  0.00  0.00    +0.000 OA
ATOM     25  N   UNL     1      35.910   5.628  13.589  0.00  0.00    +0.000 NA
BRANCH  25  26
ATOM     26  C   UNL     1      35.418   6.129  12.403  0.00  0.00    +0.000 A 
ATOM     27  C   UNL     1      34.194   6.836  12.542  0.00  0.00    +0.000 A 
ATOM     28  C   UNL     1      33.587   6.921  13.918  0.00  0.00    +0.000 C 
ATOM     29  C   UNL     1      33.556   7.430  11.493  0.00  0.00    +0.000 A 
ATOM     30  C   UNL     1      34.114   7.346  10.239  0.00  0.00    +0.000 A 
ATOM     31  C   UNL     1      35.282   6.680  10.064  0.00  0.00    +0.000 A 
ATOM     32  C   UNL     1      35.924   6.078  11.149  0.00  0.00    +0.000 A 
ATOM     33  C   UNL     1      37.204   5.410  10.853  0.00  0.00    +0.000 C 
ENDBRANCH  25  26
ENDBRANCH   1  23
TORSDOF 8
ENDMDL
