MODEL 1
REMARK VINA RESULT:      -7.9      0.000      0.000
REMARK  Name = 
REMARK  8 active torsions:
REMARK  status: ('A' for Active; 'I' for Inactive)
REMARK    1  A    between atoms: C_4  and  O_5
REMARK    2  A    between atoms: O_5  and  C_6
REMARK    3  A    between atoms: C_6  and  C_7
REMARK    4  A    between atoms: N_9  and  C_10
REMARK    5  A    between atoms: C_13  and  O_14
REMARK    6  A    between atoms: O_14  and  C_15
REMARK    7  A    between atoms: C_15  and  C_16
REMARK    8  A    between atoms: C_25  and  C_26
REMARK                            x       y       z     vdW  Elec       q    Type
REMARK                         _______ _______ _______ _____ _____    ______ ____
ROOT
ATOM      1  C   UNL     1      13.372   0.935  28.017  0.00  0.00    +0.000 C 
ATOM      2  O   UNL     1      13.624   1.983  27.371  0.00  0.00    +0.000 OA
ATOM      3  N   UNL     1      14.302  -0.105  28.081  0.00  0.00    +0.000 NA
ENDROOT
BRANCH   3   4
ATOM      4  C   UNL     1      15.546   0.015  27.414  0.00  0.00    +0.000 A 
ATOM      5  C   UNL     1      16.650   0.446  28.112  0.00  0.00    +0.000 A 
ATOM      6  C   UNL     1      17.884   0.581  27.514  0.00  0.00    +0.000 A 
ATOM      7  C   UNL     1      18.030   0.276  26.168  0.00  0.00    +0.000 A 
ATOM      8  C   UNL     1      16.929  -0.150  25.487  0.00  0.00    +0.000 A 
ATOM      9  C   UNL     1      15.672  -0.297  26.060  0.00  0.00    +0.000 A 
BRANCH   7  10
ATOM     10  O   UNL     1      19.280   0.424  25.605  0.00  0.00    +0.000 OA
BRANCH  10  11
ATOM     11  C   UNL     1      19.551   1.192  24.464  0.00  0.00    +0.000 C 
BRANCH  11  12
ATOM     12  C   UNL     1      19.907   0.366  23.269  0.00  0.00    +0.000 A 
ATOM     13  C   UNL     1      20.002   0.914  21.994  0.00  0.00    +0.000 A 
ATOM     14  C   UNL     1      20.328   0.148  20.902  0.00  0.00    +0.000 A 
ATOM     15  C   UNL     1      20.573  -1.201  21.051  0.00  0.00    +0.000 A 
ATOM     16  C   UNL     1      20.471  -1.727  22.339  0.00  0.00    +0.000 A 
ATOM     17  C   UNL     1      20.145  -0.964  23.431  0.00  0.00    +0.000 A 
ENDBRANCH  11  12
ENDBRANCH  10  11
ENDBRANCH   7  10
ENDBRANCH   3   4
BRANCH   1  18
ATOM     18  C   UNL     1      12.071   0.821  28.710  0.00  0.00    +0.000 C 
BRANCH  18  19
ATOM     19  O   UNL     1      12.218  -0.004  29.831  0.00  0.00    +0.000 OA
BRANCH  19  23
ATOM     20  C   UNL     1      15.236  -0.456  33.606  0.00  0.00    +0.000 C 
ATOM     21  C   UNL     1      14.112   0.217  32.897  0.00  0.00    +0.000 A 
ATOM     22  C   UNL     1      13.687  -0.222  31.672  0.00  0.00    +0.000 A 
ATOM     23  C   UNL     1      12.642   0.446  31.071  0.00  0.00    +0.000 A 
ATOM     24  N   UNL     1      12.076   1.502  31.702  0.00  0.00    +0.000 NA
ATOM     25  C   UNL     1      12.487   1.933  32.896  0.00  0.00    +0.000 A 
ATOM     26  N   UNL     1      13.503   1.285  33.483  0.00  0.00    +0.000 NA
BRANCH  25  27
ATOM     27  C   UNL     1      11.890   3.087  33.619  0.00  0.00    +0.000 C 
ATOM     28  C   UNL     1      12.922   4.168  33.851  0.00  0.00    +0.000 C 
ATOM     29  C   UNL     1      10.677   3.624  32.893  0.00  0.00    +0.000 C 
ENDBRANCH  25  27
ENDBRANCH  19  23
ENDBRANCH  18  19
ENDBRANCH   1  18
TORSDOF 8
ENDMDL
MODEL 2
REMARK VINA RESULT:      -7.7      3.328      5.878
REMARK  Name = 
REMARK  8 active torsions:
REMARK  status: ('A' for Active; 'I' for Inactive)
REMARK    1  A    between atoms: C_4  and  O_5
REMARK    2  A    between atoms: O_5  and  C_6
REMARK    3  A    between atoms: C_6  and  C_7
REMARK    4  A    between atoms: N_9  and  C_10
REMARK    5  A    between atoms: C_13  and  O_14
REMARK    6  A    between atoms: O_14  and  C_15
REMARK    7  A    between atoms: C_15  and  C_16
REMARK    8  A    between atoms: C_25  and  C_26
REMARK                            x       y       z     vdW  Elec       q    Type
REMARK                         _______ _______ _______ _____ _____    ______ ____
ROOT
ATOM      1  C   UNL     1      13.321   0.590  27.737  0.00  0.00    +0.000 C 
ATOM      2  O   UNL     1      13.418   1.727  27.210  0.00  0.00    +0.000 OA
ATOM      3  N   UNL     1      14.373  -0.324  27.659  0.00  0.00    +0.000 NA
ENDROOT
BRANCH   3   4
ATOM      4  C   UNL     1      15.566   0.024  26.981  0.00  0.00    +0.000 A 
ATOM      5  C   UNL     1      16.599   0.603  27.681  0.00  0.00    +0.000 A 
ATOM      6  C   UNL     1      17.782   0.962  27.072  0.00  0.00    +0.000 A 
ATOM      7  C   UNL     1      17.948   0.739  25.712  0.00  0.00    +0.000 A 
ATOM      8  C   UNL     1      16.918   0.164  25.029  0.00  0.00    +0.000 A 
ATOM      9  C   UNL     1      15.715  -0.209  25.613  0.00  0.00    +0.000 A 
BRANCH   7  10
ATOM     10  O   UNL     1      19.145   1.112  25.139  0.00  0.00    +0.000 OA
BRANCH  10  11
ATOM     11  C   UNL     1      20.249   0.263  24.981  0.00  0.00    +0.000 C 
BRANCH  11  12
ATOM     12  C   UNL     1      20.361  -0.309  23.604  0.00  0.00    +0.000 A 
ATOM     13  C   UNL     1      20.118  -1.654  23.340  0.00  0.00    +0.000 A 
ATOM     14  C   UNL     1      20.224  -2.170  22.073  0.00  0.00    +0.000 A 
ATOM     15  C   UNL     1      20.578  -1.353  21.019  0.00  0.00    +0.000 A 
ATOM     16  C   UNL     1      20.817  -0.010  21.309  0.00  0.00    +0.000 A 
ATOM     17  C   UNL     1      20.712   0.508  22.575  0.00  0.00    +0.000 A 
ENDBRANCH  11  12
ENDBRANCH  10  11
ENDBRANCH   7  10
ENDBRANCH   3   4
BRANCH   1  18
ATOM     18  C   UNL     1      12.071   0.238  28.443  0.00  0.00    +0.000 C 
BRANCH  18  19
ATOM     19  O   UNL     1      11.439  -0.810  27.764  0.00  0.00    +0.000 OA
BRANCH  19  23
ATOM     20  C   UNL     1       8.478   2.012  25.151  0.00  0.00    +0.000 C 
ATOM     21  C   UNL     1       9.223   0.742  25.373  0.00  0.00    +0.000 A 
ATOM     22  C   UNL     1       9.995   0.563  26.489  0.00  0.00    +0.000 A 
ATOM     23  C   UNL     1      10.659  -0.636  26.632  0.00  0.00    +0.000 A 
ATOM     24  N   UNL     1      10.529  -1.588  25.677  0.00  0.00    +0.000 NA
ATOM     25  C   UNL     1       9.777  -1.418  24.588  0.00  0.00    +0.000 A 
ATOM     26  N   UNL     1       9.130  -0.252  24.446  0.00  0.00    +0.000 NA
BRANCH  25  27
ATOM     27  C   UNL     1       9.610  -2.438  23.520  0.00  0.00    +0.000 C 
ATOM     28  C   UNL     1       8.596  -3.484  23.930  0.00  0.00    +0.000 C 
ATOM     29  C   UNL     1       9.245  -1.800  22.199  0.00  0.00    +0.000 C 
ENDBRANCH  25  27
ENDBRANCH  19  23
ENDBRANCH  18  19
ENDBRANCH   1  18
TORSDOF 8
ENDMDL
MODEL 3
REMARK VINA RESULT:      -7.6     22.857     26.252
REMARK  Name = 
REMARK  8 active torsions:
REMARK  status: ('A' for Active; 'I' for Inactive)
REMARK    1  A    between atoms: C_4  and  O_5
REMARK    2  A    between atoms: O_5  and  C_6
REMARK    3  A    between atoms: C_6  and  C_7
REMARK    4  A    between atoms: N_9  and  C_10
REMARK    5  A    between atoms: C_13  and  O_14
REMARK    6  A    between atoms: O_14  and  C_15
REMARK    7  A    between atoms: C_15  and  C_16
REMARK    8  A    between atoms: C_25  and  C_26
REMARK                            x       y       z     vdW  Elec       q    Type
REMARK                         _______ _______ _______ _____ _____    ______ ____
ROOT
ATOM      1  C   UNL     1      37.734   2.663  14.836  0.00  0.00    +0.000 C 
ATOM      2  O   UNL     1      38.833   2.111  15.095  0.00  0.00    +0.000 OA
ATOM      3  N   UNL     1      37.424   3.917  15.367  0.00  0.00    +0.000 NA
ENDROOT
BRANCH   3   4
ATOM      4  C   UNL     1      38.351   4.581  16.206  0.00  0.00    +0.000 A 
ATOM      5  C   UNL     1      38.223   4.477  17.572  0.00  0.00    +0.000 A 
ATOM      6  C   UNL     1      39.095   5.102  18.436  0.00  0.00    +0.000 A 
ATOM      7  C   UNL     1      40.138   5.863  17.925  0.00  0.00    +0.000 A 
ATOM      8  C   UNL     1      40.254   5.958  16.571  0.00  0.00    +0.000 A 
ATOM      9  C   UNL     1      39.393   5.341  15.674  0.00  0.00    +0.000 A 
BRANCH   7  10
ATOM     10  O   UNL     1      40.990   6.473  18.821  0.00  0.00    +0.000 OA
BRANCH  10  11
ATOM     11  C   UNL     1      40.669   6.760  20.155  0.00  0.00    +0.000 C 
BRANCH  11  12
ATOM     12  C   UNL     1      39.998   8.085  20.327  0.00  0.00    +0.000 A 
ATOM     13  C   UNL     1      38.620   8.201  20.487  0.00  0.00    +0.000 A 
ATOM     14  C   UNL     1      38.012   9.421  20.643  0.00  0.00    +0.000 A 
ATOM     15  C   UNL     1      38.768  10.576  20.646  0.00  0.00    +0.000 A 
ATOM     16  C   UNL     1      40.146  10.434  20.482  0.00  0.00    +0.000 A 
ATOM     17  C   UNL     1      40.755   9.215  20.326  0.00  0.00    +0.000 A 
ENDBRANCH  11  12
ENDBRANCH  10  11
ENDBRANCH   7  10
ENDBRANCH   3   4
BRANCH   1  18
ATOM     18  C   UNL     1      36.774   1.961  13.959  0.00  0.00    +0.000 C 
BRANCH  18  19
ATOM     19  O   UNL     1      35.758   1.401  14.742  0.00  0.00    +0.000 OA
BRANCH  19  23
ATOM     20  C   UNL     1      35.619  -0.402  19.247  0.00  0.00    +0.000 C 
ATOM     21  C   UNL     1      35.875  -0.537  17.786  0.00  0.00    +0.000 A 
ATOM     22  C   UNL     1      35.692   0.521  16.936  0.00  0.00    +0.000 A 
ATOM     23  C   UNL     1      35.946   0.327  15.596  0.00  0.00    +0.000 A 
ATOM     24  N   UNL     1      36.364  -0.888  15.166  0.00  0.00    +0.000 NA
ATOM     25  C   UNL     1      36.544  -1.921  15.991  0.00  0.00    +0.000 A 
ATOM     26  N   UNL     1      36.298  -1.736  17.296  0.00  0.00    +0.000 NA
BRANCH  25  27
ATOM     27  C   UNL     1      37.002  -3.267  15.557  0.00  0.00    +0.000 C 
ATOM     28  C   UNL     1      37.159  -3.322  14.052  0.00  0.00    +0.000 C 
ATOM     29  C   UNL     1      38.278  -3.670  16.262  0.00  0.00    +0.000 C 
ENDBRANCH  25  27
ENDBRANCH  19  23
ENDBRANCH  18  19
ENDBRANCH   1  18
TORSDOF 8
ENDMDL
MODEL 4
REMARK VINA RESULT:      -7.6      2.987      4.501
REMARK  Name = 
REMARK  8 active torsions:
REMARK  status: ('A' for Active; 'I' for Inactive)
REMARK    1  A    between atoms: C_4  and  O_5
REMARK    2  A    between atoms: O_5  and  C_6
REMARK    3  A    between atoms: C_6  and  C_7
REMARK    4  A    between atoms: N_9  and  C_10
REMARK    5  A    between atoms: C_13  and  O_14
REMARK    6  A    between atoms: O_14  and  C_15
REMARK    7  A    between atoms: C_15  and  C_16
REMARK    8  A    between atoms: C_25  and  C_26
REMARK                            x       y       z     vdW  Elec       q    Type
REMARK                         _______ _______ _______ _____ _____    ______ ____
ROOT
ATOM      1  C   UNL     1      13.233  -0.001  28.385  0.00  0.00    +0.000 C 
ATOM      2  O   UNL     1      13.407  -1.245  28.322  0.00  0.00    +0.000 OA
ATOM      3  N   UNL     1      14.206   0.879  27.907  0.00  0.00    +0.000 NA
ENDROOT
BRANCH   3   4
ATOM      4  C   UNL     1      15.404   0.376  27.344  0.00  0.00    +0.000 A 
ATOM      5  C   UNL     1      16.560   0.385  28.090  0.00  0.00    +0.000 A 
ATOM      6  C   UNL     1      17.753  -0.092  27.592  0.00  0.00    +0.000 A 
ATOM      7  C   UNL     1      17.803  -0.599  26.301  0.00  0.00    +0.000 A 
ATOM      8  C   UNL     1      16.651  -0.603  25.572  0.00  0.00    +0.000 A 
ATOM      9  C   UNL     1      15.434  -0.130  26.044  0.00  0.00    +0.000 A 
BRANCH   7  10
ATOM     10  O   UNL     1      19.014  -1.067  25.838  0.00  0.00    +0.000 OA
BRANCH  10  11
ATOM     11  C   UNL     1      19.170  -1.901  24.722  0.00  0.00    +0.000 C 
BRANCH  11  12
ATOM     12  C   UNL     1      19.836  -1.222  23.568  0.00  0.00    +0.000 A 
ATOM     13  C   UNL     1      20.077   0.149  23.555  0.00  0.00    +0.000 A 
ATOM     14  C   UNL     1      20.688   0.763  22.491  0.00  0.00    +0.000 A 
ATOM     15  C   UNL     1      21.082   0.022  21.396  0.00  0.00    +0.000 A 
ATOM     16  C   UNL     1      20.829  -1.349  21.432  0.00  0.00    +0.000 A 
ATOM     17  C   UNL     1      20.218  -1.965  22.494  0.00  0.00    +0.000 A 
ENDBRANCH  11  12
ENDBRANCH  10  11
ENDBRANCH   7  10
ENDBRANCH   3   4
BRANCH   1  18
ATOM     18  C   UNL     1      11.980   0.513  28.975  0.00  0.00    +0.000 C 
BRANCH  18  19
ATOM     19  O   UNL     1      11.795   1.842  28.575  0.00  0.00    +0.000 OA
BRANCH  19  23
ATOM     20  C   UNL     1       8.654   1.365  24.905  0.00  0.00    +0.000 C 
ATOM     21  C   UNL     1       9.150   2.058  26.127  0.00  0.00    +0.000 A 
ATOM     22  C   UNL     1      10.264   1.612  26.787  0.00  0.00    +0.000 A 
ATOM     23  C   UNL     1      10.668   2.299  27.912  0.00  0.00    +0.000 A 
ATOM     24  N   UNL     1       9.962   3.379  28.323  0.00  0.00    +0.000 NA
ATOM     25  C   UNL     1       8.876   3.816  27.682  0.00  0.00    +0.000 A 
ATOM     26  N   UNL     1       8.480   3.150  26.587  0.00  0.00    +0.000 NA
BRANCH  25  27
ATOM     27  C   UNL     1       8.076   4.997  28.102  0.00  0.00    +0.000 C 
ATOM     28  C   UNL     1       6.724   5.000  27.423  0.00  0.00    +0.000 C 
ATOM     29  C   UNL     1       7.941   5.065  29.607  0.00  0.00    +0.000 C 
ENDBRANCH  25  27
ENDBRANCH  19  23
ENDBRANCH  18  19
ENDBRANCH   1  18
TORSDOF 8
ENDMDL
MODEL 5
REMARK VINA RESULT:      -7.5     22.780     26.894
REMARK  Name = 
REMARK  8 active torsions:
REMARK  status: ('A' for Active; 'I' for Inactive)
REMARK    1  A    between atoms: C_4  and  O_5
REMARK    2  A    between atoms: O_5  and  C_6
REMARK    3  A    between atoms: C_6  and  C_7
REMARK    4  A    between atoms: N_9  and  C_10
REMARK    5  A    between atoms: C_13  and  O_14
REMARK    6  A    between atoms: O_14  and  C_15
REMARK    7  A    between atoms: C_15  and  C_16
REMARK    8  A    between atoms: C_25  and  C_26
REMARK                            x       y       z     vdW  Elec       q    Type
REMARK                         _______ _______ _______ _____ _____    ______ ____
ROOT
ATOM      1  C   UNL     1      37.954   2.267  15.037  0.00  0.00    +0.000 C 
ATOM      2  O   UNL     1      39.170   1.998  15.207  0.00  0.00    +0.000 OA
ATOM      3  N   UNL     1      37.400   3.431  15.575  0.00  0.00    +0.000 NA
ENDROOT
BRANCH   3   4
ATOM      4  C   UNL     1      38.209   4.323  16.321  0.00  0.00    +0.000 A 
ATOM      5  C   UNL     1      38.162   4.291  17.696  0.00  0.00    +0.000 A 
ATOM      6  C   UNL     1      38.927   5.135  18.471  0.00  0.00    +0.000 A 
ATOM      7  C   UNL     1      39.772   6.050  17.859  0.00  0.00    +0.000 A 
ATOM      8  C   UNL     1      39.810   6.071  16.497  0.00  0.00    +0.000 A 
ATOM      9  C   UNL     1      39.054   5.235  15.687  0.00  0.00    +0.000 A 
BRANCH   7  10
ATOM     10  O   UNL     1      40.522   6.878  18.668  0.00  0.00    +0.000 OA
BRANCH  10  11
ATOM     11  C   UNL     1      40.940   6.554  19.966  0.00  0.00    +0.000 C 
BRANCH  11  12
ATOM     12  C   UNL     1      42.427   6.465  20.100  0.00  0.00    +0.000 A 
ATOM     13  C   UNL     1      43.036   5.946  21.238  0.00  0.00    +0.000 A 
ATOM     14  C   UNL     1      44.402   5.868  21.353  0.00  0.00    +0.000 A 
ATOM     15  C   UNL     1      45.209   6.310  20.326  0.00  0.00    +0.000 A 
ATOM     16  C   UNL     1      44.575   6.827  19.196  0.00  0.00    +0.000 A 
ATOM     17  C   UNL     1      43.211   6.905  19.079  0.00  0.00    +0.000 A 
ENDBRANCH  11  12
ENDBRANCH  10  11
ENDBRANCH   7  10
ENDBRANCH   3   4
BRANCH   1  18
ATOM     18  C   UNL     1      37.119   1.331  14.257  0.00  0.00    +0.000 C 
BRANCH  18  19
ATOM     19  O   UNL     1      37.611   0.030  14.420  0.00  0.00    +0.000 OA
BRANCH  19  23
ATOM     20  C   UNL     1      34.101  -1.629  17.335  0.00  0.00    +0.000 C 
ATOM     21  C   UNL     1      35.510  -1.616  16.852  0.00  0.00    +0.000 A 
ATOM     22  C   UNL     1      35.903  -0.780  15.842  0.00  0.00    +0.000 A 
ATOM     23  C   UNL     1      37.222  -0.819  15.443  0.00  0.00    +0.000 A 
ATOM     24  N   UNL     1      38.077  -1.673  16.054  0.00  0.00    +0.000 NA
ATOM     25  C   UNL     1      37.699  -2.490  17.040  0.00  0.00    +0.000 A 
ATOM     26  N   UNL     1      36.416  -2.453  17.430  0.00  0.00    +0.000 NA
BRANCH  25  27
ATOM     27  C   UNL     1      38.608  -3.438  17.734  0.00  0.00    +0.000 C 
ATOM     28  C   UNL     1      38.634  -3.166  19.223  0.00  0.00    +0.000 C 
ATOM     29  C   UNL     1      38.238  -4.874  17.439  0.00  0.00    +0.000 C 
ENDBRANCH  25  27
ENDBRANCH  19  23
ENDBRANCH  18  19
ENDBRANCH   1  18
TORSDOF 8
ENDMDL
MODEL 6
REMARK VINA RESULT:      -7.5     23.382     26.145
REMARK  Name = 
REMARK  8 active torsions:
REMARK  status: ('A' for Active; 'I' for Inactive)
REMARK    1  A    between atoms: C_4  and  O_5
REMARK    2  A    between atoms: O_5  and  C_6
REMARK    3  A    between atoms: C_6  and  C_7
REMARK    4  A    between atoms: N_9  and  C_10
REMARK    5  A    between atoms: C_13  and  O_14
REMARK    6  A    between atoms: O_14  and  C_15
REMARK    7  A    between atoms: C_15  and  C_16
REMARK    8  A    between atoms: C_25  and  C_26
REMARK                            x       y       z     vdW  Elec       q    Type
REMARK                         _______ _______ _______ _____ _____    ______ ____
ROOT
ATOM      1  C   UNL     1      38.127   2.136  14.838  0.00  0.00    +0.000 C 
ATOM      2  O   UNL     1      39.323   1.821  15.063  0.00  0.00    +0.000 OA
ATOM      3  N   UNL     1      37.591   3.314  15.362  0.00  0.00    +0.000 NA
ENDROOT
BRANCH   3   4
ATOM      4  C   UNL     1      38.394   4.169  16.155  0.00  0.00    +0.000 A 
ATOM      5  C   UNL     1      38.216   4.193  17.519  0.00  0.00    +0.000 A 
ATOM      6  C   UNL     1      38.969   5.004  18.339  0.00  0.00    +0.000 A 
ATOM      7  C   UNL     1      39.939   5.828  17.784  0.00  0.00    +0.000 A 
ATOM      8  C   UNL     1      40.107   5.795  16.432  0.00  0.00    +0.000 A 
ATOM      9  C   UNL     1      39.365   4.989  15.579  0.00  0.00    +0.000 A 
BRANCH   7  10
ATOM     10  O   UNL     1      40.672   6.626  18.637  0.00  0.00    +0.000 OA
BRANCH  10  11
ATOM     11  C   UNL     1      40.369   6.833  19.989  0.00  0.00    +0.000 C 
BRANCH  11  12
ATOM     12  C   UNL     1      39.919   8.228  20.284  0.00  0.00    +0.000 A 
ATOM     13  C   UNL     1      38.611   8.519  20.661  0.00  0.00    +0.000 A 
ATOM     14  C   UNL     1      38.207   9.803  20.929  0.00  0.00    +0.000 A 
ATOM     15  C   UNL     1      39.103  10.847  20.830  0.00  0.00    +0.000 A 
ATOM     16  C   UNL     1      40.408  10.530  20.450  0.00  0.00    +0.000 A 
ATOM     17  C   UNL     1      40.814   9.248  20.181  0.00  0.00    +0.000 A 
ENDBRANCH  11  12
ENDBRANCH  10  11
ENDBRANCH   7  10
ENDBRANCH   3   4
BRANCH   1  18
ATOM     18  C   UNL     1      37.298   1.238  14.009  0.00  0.00    +0.000 C 
BRANCH  18  19
ATOM     19  O   UNL     1      37.640  -0.091  14.286  0.00  0.00    +0.000 OA
BRANCH  19  23
ATOM     20  C   UNL     1      34.845  -3.968  15.135  0.00  0.00    +0.000 C 
ATOM     21  C   UNL     1      35.607  -2.773  15.593  0.00  0.00    +0.000 A 
ATOM     22  C   UNL     1      36.278  -1.979  14.702  0.00  0.00    +0.000 A 
ATOM     23  C   UNL     1      36.963  -0.889  15.194  0.00  0.00    +0.000 A 
ATOM     24  N   UNL     1      36.951  -0.640  16.524  0.00  0.00    +0.000 NA
ATOM     25  C   UNL     1      36.298  -1.410  17.397  0.00  0.00    +0.000 A 
ATOM     26  N   UNL     1      35.630  -2.471  16.921  0.00  0.00    +0.000 NA
BRANCH  25  27
ATOM     27  C   UNL     1      36.261  -1.167  18.863  0.00  0.00    +0.000 C 
ATOM     28  C   UNL     1      37.474  -1.771  19.538  0.00  0.00    +0.000 C 
ATOM     29  C   UNL     1      36.128   0.306  19.175  0.00  0.00    +0.000 C 
ENDBRANCH  25  27
ENDBRANCH  19  23
ENDBRANCH  18  19
ENDBRANCH   1  18
TORSDOF 8
ENDMDL
MODEL 7
REMARK VINA RESULT:      -7.4     23.337     26.735
REMARK  Name = 
REMARK  8 active torsions:
REMARK  status: ('A' for Active; 'I' for Inactive)
REMARK    1  A    between atoms: C_4  and  O_5
REMARK    2  A    between atoms: O_5  and  C_6
REMARK    3  A    between atoms: C_6  and  C_7
REMARK    4  A    between atoms: N_9  and  C_10
REMARK    5  A    between atoms: C_13  and  O_14
REMARK    6  A    between atoms: O_14  and  C_15
REMARK    7  A    between atoms: C_15  and  C_16
REMARK    8  A    between atoms: C_25  and  C_26
REMARK                            x       y       z     vdW  Elec       q    Type
REMARK                         _______ _______ _______ _____ _____    ______ ____
ROOT
ATOM      1  C   UNL     1      38.034   2.323  14.947  0.00  0.00    +0.000 C 
ATOM      2  O   UNL     1      39.207   1.964  15.220  0.00  0.00    +0.000 OA
ATOM      3  N   UNL     1      37.518   3.519  15.451  0.00  0.00    +0.000 NA
ENDROOT
BRANCH   3   4
ATOM      4  C   UNL     1      38.318   4.342  16.280  0.00  0.00    +0.000 A 
ATOM      5  C   UNL     1      39.264   5.162  15.709  0.00  0.00    +0.000 A 
ATOM      6  C   UNL     1      40.070   5.984  16.467  0.00  0.00    +0.000 A 
ATOM      7  C   UNL     1      39.934   5.992  17.849  0.00  0.00    +0.000 A 
ATOM      8  C   UNL     1      38.994   5.175  18.402  0.00  0.00    +0.000 A 
ATOM      9  C   UNL     1      38.167   4.337  17.667  0.00  0.00    +0.000 A 
BRANCH   7  10
ATOM     10  O   UNL     1      40.759   6.827  18.573  0.00  0.00    +0.000 OA
BRANCH  10  11
ATOM     11  C   UNL     1      41.118   6.621  19.912  0.00  0.00    +0.000 C 
BRANCH  11  12
ATOM     12  C   UNL     1      42.595   6.489  20.112  0.00  0.00    +0.000 A 
ATOM     13  C   UNL     1      43.511   6.905  19.150  0.00  0.00    +0.000 A 
ATOM     14  C   UNL     1      44.864   6.779  19.341  0.00  0.00    +0.000 A 
ATOM     15  C   UNL     1      45.350   6.229  20.510  0.00  0.00    +0.000 A 
ATOM     16  C   UNL     1      44.412   5.818  21.457  0.00  0.00    +0.000 A 
ATOM     17  C   UNL     1      43.059   5.943  21.268  0.00  0.00    +0.000 A 
ENDBRANCH  11  12
ENDBRANCH  10  11
ENDBRANCH   7  10
ENDBRANCH   3   4
BRANCH   1  18
ATOM     18  C   UNL     1      37.207   1.456  14.080  0.00  0.00    +0.000 C 
BRANCH  18  19
ATOM     19  O   UNL     1      37.613   0.126  14.239  0.00  0.00    +0.000 OA
BRANCH  19  23
ATOM     20  C   UNL     1      35.154  -4.018  14.826  0.00  0.00    +0.000 C 
ATOM     21  C   UNL     1      35.798  -2.787  15.362  0.00  0.00    +0.000 A 
ATOM     22  C   UNL     1      36.414  -1.893  14.528  0.00  0.00    +0.000 A 
ATOM     23  C   UNL     1      36.991  -0.774  15.089  0.00  0.00    +0.000 A 
ATOM     24  N   UNL     1      36.930  -0.595  16.430  0.00  0.00    +0.000 NA
ATOM     25  C   UNL     1      36.329  -1.464  17.247  0.00  0.00    +0.000 A 
ATOM     26  N   UNL     1      35.768  -2.553  16.703  0.00  0.00    +0.000 NA
BRANCH  25  27
ATOM     27  C   UNL     1      36.242  -1.301  18.722  0.00  0.00    +0.000 C 
ATOM     28  C   UNL     1      37.484  -1.840  19.397  0.00  0.00    +0.000 C 
ATOM     29  C   UNL     1      35.984   0.139  19.104  0.00  0.00    +0.000 C 
ENDBRANCH  25  27
ENDBRANCH  19  23
ENDBRANCH  18  19
ENDBRANCH   1  18
TORSDOF 8
ENDMDL
MODEL 8
REMARK VINA RESULT:      -7.4     22.956     27.136
REMARK  Name = 
REMARK  8 active torsions:
REMARK  status: ('A' for Active; 'I' for Inactive)
REMARK    1  A    between atoms: C_4  and  O_5
REMARK    2  A    between atoms: O_5  and  C_6
REMARK    3  A    between atoms: C_6  and  C_7
REMARK    4  A    between atoms: N_9  and  C_10
REMARK    5  A    between atoms: C_13  and  O_14
REMARK    6  A    between atoms: O_14  and  C_15
REMARK    7  A    between atoms: C_15  and  C_16
REMARK    8  A    between atoms: C_25  and  C_26
REMARK                            x       y       z     vdW  Elec       q    Type
REMARK                         _______ _______ _______ _____ _____    ______ ____
ROOT
ATOM      1  C   UNL     1      37.614   4.171  15.333  0.00  0.00    +0.000 C 
ATOM      2  O   UNL     1      37.185   5.347  15.218  0.00  0.00    +0.000 OA
ATOM      3  N   UNL     1      38.658   3.875  16.211  0.00  0.00    +0.000 NA
ENDROOT
BRANCH   3   4
ATOM      4  C   UNL     1      39.246   4.904  16.986  0.00  0.00    +0.000 A 
ATOM      5  C   UNL     1      38.946   5.000  18.325  0.00  0.00    +0.000 A 
ATOM      6  C   UNL     1      39.489   5.981  19.126  0.00  0.00    +0.000 A 
ATOM      7  C   UNL     1      40.366   6.907  18.576  0.00  0.00    +0.000 A 
ATOM      8  C   UNL     1      40.656   6.801  17.249  0.00  0.00    +0.000 A 
ATOM      9  C   UNL     1      40.126   5.825  16.415  0.00  0.00    +0.000 A 
BRANCH   7  10
ATOM     10  O   UNL     1      40.889   7.874  19.409  0.00  0.00    +0.000 OA
BRANCH  10  11
ATOM     11  C   UNL     1      42.216   8.321  19.371  0.00  0.00    +0.000 C 
BRANCH  11  12
ATOM     12  C   UNL     1      43.179   7.361  19.995  0.00  0.00    +0.000 A 
ATOM     13  C   UNL     1      42.854   6.620  21.127  0.00  0.00    +0.000 A 
ATOM     14  C   UNL     1      43.745   5.742  21.693  0.00  0.00    +0.000 A 
ATOM     15  C   UNL     1      44.998   5.575  21.142  0.00  0.00    +0.000 A 
ATOM     16  C   UNL     1      45.300   6.330  20.009  0.00  0.00    +0.000 A 
ATOM     17  C   UNL     1      44.412   7.208  19.441  0.00  0.00    +0.000 A 
ENDBRANCH  11  12
ENDBRANCH  10  11
ENDBRANCH   7  10
ENDBRANCH   3   4
BRANCH   1  18
ATOM     18  C   UNL     1      36.992   3.104  14.520  0.00  0.00    +0.000 C 
BRANCH  18  19
ATOM     19  O   UNL     1      36.109   2.371  15.322  0.00  0.00    +0.000 OA
BRANCH  19  23
ATOM     20  C   UNL     1      35.680  -0.361  19.312  0.00  0.00    +0.000 C 
ATOM     21  C   UNL     1      36.252  -0.085  17.964  0.00  0.00    +0.000 A 
ATOM     22  C   UNL     1      35.902   1.039  17.265  0.00  0.00    +0.000 A 
ATOM     23  C   UNL     1      36.468   1.232  16.023  0.00  0.00    +0.000 A 
ATOM     24  N   UNL     1      37.342   0.317  15.540  0.00  0.00    +0.000 NA
ATOM     25  C   UNL     1      37.686  -0.779  16.218  0.00  0.00    +0.000 A 
ATOM     26  N   UNL     1      37.137  -0.970  17.427  0.00  0.00    +0.000 NA
BRANCH  25  27
ATOM     27  C   UNL     1      38.642  -1.804  15.721  0.00  0.00    +0.000 C 
ATOM     28  C   UNL     1      39.847  -1.150  15.082  0.00  0.00    +0.000 C 
ATOM     29  C   UNL     1      39.047  -2.760  16.820  0.00  0.00    +0.000 C 
ENDBRANCH  25  27
ENDBRANCH  19  23
ENDBRANCH  18  19
ENDBRANCH   1  18
TORSDOF 8
ENDMDL
MODEL 9
REMARK VINA RESULT:      -7.2     23.002     25.408
REMARK  Name = 
REMARK  8 active torsions:
REMARK  status: ('A' for Active; 'I' for Inactive)
REMARK    1  A    between atoms: C_4  and  O_5
REMARK    2  A    between atoms: O_5  and  C_6
REMARK    3  A    between atoms: C_6  and  C_7
REMARK    4  A    between atoms: N_9  and  C_10
REMARK    5  A    between atoms: C_13  and  O_14
REMARK    6  A    between atoms: O_14  and  C_15
REMARK    7  A    between atoms: C_15  and  C_16
REMARK    8  A    between atoms: C_25  and  C_26
REMARK                            x       y       z     vdW  Elec       q    Type
REMARK                         _______ _______ _______ _____ _____    ______ ____
ROOT
ATOM      1  C   UNL     1      35.929   1.019  17.593  0.00  0.00    +0.000 C 
ATOM      2  O   UNL     1      36.694   1.958  17.930  0.00  0.00    +0.000 OA
ATOM      3  N   UNL     1      35.271   1.044  16.361  0.00  0.00    +0.000 NA
ENDROOT
BRANCH   3   4
ATOM      4  C   UNL     1      35.462   2.133  15.477  0.00  0.00    +0.000 A 
ATOM      5  C   UNL     1      34.554   3.167  15.471  0.00  0.00    +0.000 A 
ATOM      6  C   UNL     1      34.689   4.252  14.632  0.00  0.00    +0.000 A 
ATOM      7  C   UNL     1      35.769   4.314  13.761  0.00  0.00    +0.000 A 
ATOM      8  C   UNL     1      36.661   3.284  13.776  0.00  0.00    +0.000 A 
ATOM      9  C   UNL     1      36.554   2.178  14.609  0.00  0.00    +0.000 A 
BRANCH   7  10
ATOM     10  O   UNL     1      35.870   5.415  12.937  0.00  0.00    +0.000 OA
BRANCH  10  11
ATOM     11  C   UNL     1      34.812   6.283  12.637  0.00  0.00    +0.000 C 
BRANCH  11  12
ATOM     12  C   UNL     1      34.753   7.474  13.541  0.00  0.00    +0.000 A 
ATOM     13  C   UNL     1      35.742   8.452  13.539  0.00  0.00    +0.000 A 
ATOM     14  C   UNL     1      35.681   9.541  14.372  0.00  0.00    +0.000 A 
ATOM     15  C   UNL     1      34.620   9.689  15.241  0.00  0.00    +0.000 A 
ATOM     16  C   UNL     1      33.642   8.694  15.225  0.00  0.00    +0.000 A 
ATOM     17  C   UNL     1      33.701   7.606  14.393  0.00  0.00    +0.000 A 
ENDBRANCH  11  12
ENDBRANCH  10  11
ENDBRANCH   7  10
ENDBRANCH   3   4
BRANCH   1  18
ATOM     18  C   UNL     1      35.738  -0.113  18.523  0.00  0.00    +0.000 C 
BRANCH  18  19
ATOM     19  O   UNL     1      36.984  -0.522  19.011  0.00  0.00    +0.000 OA
BRANCH  19  23
ATOM     20  C   UNL     1      39.086  -4.855  19.622  0.00  0.00    +0.000 C 
ATOM     21  C   UNL     1      38.731  -3.674  18.787  0.00  0.00    +0.000 A 
ATOM     22  C   UNL     1      38.010  -2.633  19.306  0.00  0.00    +0.000 A 
ATOM     23  C   UNL     1      37.715  -1.572  18.478  0.00  0.00    +0.000 A 
ATOM     24  N   UNL     1      38.143  -1.590  17.194  0.00  0.00    +0.000 NA
ATOM     25  C   UNL     1      38.847  -2.602  16.683  0.00  0.00    +0.000 A 
ATOM     26  N   UNL     1      39.135  -3.637  17.486  0.00  0.00    +0.000 NA
BRANCH  25  27
ATOM     27  C   UNL     1      39.334  -2.658  15.280  0.00  0.00    +0.000 C 
ATOM     28  C   UNL     1      38.974  -1.390  14.535  0.00  0.00    +0.000 C 
ATOM     29  C   UNL     1      40.820  -2.932  15.222  0.00  0.00    +0.000 C 
ENDBRANCH  25  27
ENDBRANCH  19  23
ENDBRANCH  18  19
ENDBRANCH   1  18
TORSDOF 8
ENDMDL
MODEL 10
REMARK VINA RESULT:      -7.1     23.081     27.003
REMARK  Name = 
REMARK  8 active torsions:
REMARK  status: ('A' for Active; 'I' for Inactive)
REMARK    1  A    between atoms: C_4  and  O_5
REMARK    2  A    between atoms: O_5  and  C_6
REMARK    3  A    between atoms: C_6  and  C_7
REMARK    4  A    between atoms: N_9  and  C_10
REMARK    5  A    between atoms: C_13  and  O_14
REMARK    6  A    between atoms: O_14  and  C_15
REMARK    7  A    between atoms: C_15  and  C_16
REMARK    8  A    between atoms: C_25  and  C_26
REMARK                            x       y       z     vdW  Elec       q    Type
REMARK                         _______ _______ _______ _____ _____    ______ ____
ROOT
ATOM      1  C   UNL     1      39.722  -0.437  13.864  0.00  0.00    +0.000 C 
ATOM      2  O   UNL     1      40.731  -0.215  14.580  0.00  0.00    +0.000 OA
ATOM      3  N   UNL     1      38.867   0.604  13.494  0.00  0.00    +0.000 NA
ENDROOT
BRANCH   3   4
ATOM      4  C   UNL     1      39.132   1.926  13.927  0.00  0.00    +0.000 A 
ATOM      5  C   UNL     1      38.435   2.442  14.995  0.00  0.00    +0.000 A 
ATOM      6  C   UNL     1      38.650   3.721  15.458  0.00  0.00    +0.000 A 
ATOM      7  C   UNL     1      39.596   4.525  14.835  0.00  0.00    +0.000 A 
ATOM      8  C   UNL     1      40.280   4.003  13.778  0.00  0.00    +0.000 A 
ATOM      9  C   UNL     1      40.087   2.719  13.288  0.00  0.00    +0.000 A 
BRANCH   7  10
ATOM     10  O   UNL     1      39.784   5.799  15.327  0.00  0.00    +0.000 OA
BRANCH  10  11
ATOM     11  C   UNL     1      40.992   6.279  15.850  0.00  0.00    +0.000 C 
BRANCH  11  12
ATOM     12  C   UNL     1      41.013   6.314  17.345  0.00  0.00    +0.000 A 
ATOM     13  C   UNL     1      42.185   6.535  18.063  0.00  0.00    +0.000 A 
ATOM     14  C   UNL     1      42.195   6.565  19.435  0.00  0.00    +0.000 A 
ATOM     15  C   UNL     1      41.025   6.374  20.141  0.00  0.00    +0.000 A 
ATOM     16  C   UNL     1      39.864   6.153  19.399  0.00  0.00    +0.000 A 
ATOM     17  C   UNL     1      39.852   6.123  18.028  0.00  0.00    +0.000 A 
ENDBRANCH  11  12
ENDBRANCH  10  11
ENDBRANCH   7  10
ENDBRANCH   3   4
BRANCH   1  18
ATOM     18  C   UNL     1      39.456  -1.820  13.417  0.00  0.00    +0.000 C 
BRANCH  18  19
ATOM     19  O   UNL     1      39.389  -2.659  14.536  0.00  0.00    +0.000 OA
BRANCH  19  23
ATOM     20  C   UNL     1      38.578  -3.026  19.308  0.00  0.00    +0.000 C 
ATOM     21  C   UNL     1      38.168  -2.623  17.933  0.00  0.00    +0.000 A 
ATOM     22  C   UNL     1      38.991  -2.837  16.861  0.00  0.00    +0.000 A 
ATOM     23  C   UNL     1      38.551  -2.440  15.616  0.00  0.00    +0.000 A 
ATOM     24  N   UNL     1      37.334  -1.858  15.495  0.00  0.00    +0.000 NA
ATOM     25  C   UNL     1      36.529  -1.648  16.538  0.00  0.00    +0.000 A 
ATOM     26  N   UNL     1      36.954  -2.033  17.750  0.00  0.00    +0.000 NA
BRANCH  25  27
ATOM     27  C   UNL     1      35.188  -1.013  16.444  0.00  0.00    +0.000 C 
ATOM     28  C   UNL     1      34.189  -1.734  17.324  0.00  0.00    +0.000 C 
ATOM     29  C   UNL     1      35.250   0.462  16.769  0.00  0.00    +0.000 C 
ENDBRANCH  25  27
ENDBRANCH  19  23
ENDBRANCH  18  19
ENDBRANCH   1  18
TORSDOF 8
ENDMDL
