MODEL 1
REMARK VINA RESULT:      -7.9      0.000      0.000
REMARK  Name = 
REMARK  6 active torsions:
REMARK  status: ('A' for Active; 'I' for Inactive)
REMARK    1  A    between atoms: N_10  and  C_11
REMARK    2  A    between atoms: C_17  and  C_18
REMARK    3  A    between atoms: C_21  and  O_22
REMARK    4  A    between atoms: O_22  and  C_23
REMARK    5  A    between atoms: C_23  and  C_24
REMARK    6  A    between atoms: C_24  and  N_25
REMARK                            x       y       z     vdW  Elec       q    Type
REMARK                         _______ _______ _______ _____ _____    ______ ____
ROOT
ATOM      1  O   UNL     1      44.019   7.291  22.852  0.00  0.00    +0.000 OA
ATOM      2  C   UNL     1      43.399   7.259  21.608  0.00  0.00    +0.000 A 
ATOM      3  C   UNL     1      42.709   6.167  21.131  0.00  0.00    +0.000 A 
ATOM      4  C   UNL     1      42.103   6.171  19.888  0.00  0.00    +0.000 A 
ATOM      5  C   UNL     1      42.185   7.240  19.142  0.00  0.00    +0.000 A 
ATOM      6  C   UNL     1      42.857   8.386  19.534  0.00  0.00    +0.000 A 
ATOM      7  C   UNL     1      43.467   8.370  20.796  0.00  0.00    +0.000 A 
ATOM      8  C   UNL     1      42.969   9.592  18.693  0.00  0.00    +0.000 C 
ATOM      9  C   UNL     1      41.682   9.885  17.966  0.00  0.00    +0.000 C 
ATOM     10  N   UNL     1      40.786   8.731  18.163  0.00  0.00    +0.000 N 
ATOM     11  C   UNL     1      41.561   7.468  17.705  0.00  0.00    +0.000 C 
ENDROOT
BRANCH  10  12
ATOM     12  C   UNL     1      39.536   8.809  18.662  0.00  0.00    +0.000 A 
ATOM     13  C   UNL     1      39.444   8.858  20.068  0.00  0.00    +0.000 A 
ATOM     14  C   UNL     1      38.270   8.916  20.740  0.00  0.00    +0.000 A 
ATOM     15  C   UNL     1      37.091   8.927  20.047  0.00  0.00    +0.000 A 
ATOM     16  C   UNL     1      37.105   8.881  18.669  0.00  0.00    +0.000 A 
ATOM     17  C   UNL     1      38.310   8.825  18.044  0.00  0.00    +0.000 A 
ENDBRANCH  10  12
BRANCH  11  18
ATOM     18  C   UNL     1      40.474   6.383  17.590  0.00  0.00    +0.000 A 
ATOM     19  C   UNL     1      39.830   5.774  18.589  0.00  0.00    +0.000 A 
ATOM     20  C   UNL     1      38.848   4.803  18.393  0.00  0.00    +0.000 A 
ATOM     21  C   UNL     1      38.494   4.425  17.123  0.00  0.00    +0.000 A 
ATOM     22  C   UNL     1      39.146   5.040  16.083  0.00  0.00    +0.000 A 
ATOM     23  C   UNL     1      40.135   6.018  16.311  0.00  0.00    +0.000 A 
BRANCH  21  24
ATOM     24  O   UNL     1      37.505   3.447  16.891  0.00  0.00    +0.000 OA
BRANCH  24  25
ATOM     25  C   UNL     1      36.607   3.560  15.803  0.00  0.00    +0.000 C 
BRANCH  25  26
ATOM     26  C   UNL     1      35.795   2.267  15.790  0.00  0.00    +0.000 C 
BRANCH  26  27
ATOM     27  N   UNL     1      36.634   1.321  16.545  0.00  0.00    +0.000 NA
ATOM     28  C   UNL     1      37.038   0.213  15.744  0.00  0.00    +0.000 C 
ATOM     29  C   UNL     1      36.376  -1.026  16.266  0.00  0.00    +0.000 C 
ATOM     30  C   UNL     1      35.173  -0.461  16.999  0.00  0.00    +0.000 C 
ATOM     31  C   UNL     1      35.754   0.805  17.593  0.00  0.00    +0.000 C 
ENDBRANCH  26  27
ENDBRANCH  25  26
ENDBRANCH  24  25
ENDBRANCH  21  24
ENDBRANCH  11  18
TORSDOF 6
ENDMDL
MODEL 2
REMARK VINA RESULT:      -7.7      3.266      9.789
REMARK  Name = 
REMARK  6 active torsions:
REMARK  status: ('A' for Active; 'I' for Inactive)
REMARK    1  A    between atoms: N_10  and  C_11
REMARK    2  A    between atoms: C_17  and  C_18
REMARK    3  A    between atoms: C_21  and  O_22
REMARK    4  A    between atoms: O_22  and  C_23
REMARK    5  A    between atoms: C_23  and  C_24
REMARK    6  A    between atoms: C_24  and  N_25
REMARK                            x       y       z     vdW  Elec       q    Type
REMARK                         _______ _______ _______ _____ _____    ______ ____
ROOT
ATOM      1  O   UNL     1      39.298  -4.372  19.549  0.00  0.00    +0.000 OA
ATOM      2  C   UNL     1      38.524  -3.677  18.628  0.00  0.00    +0.000 A 
ATOM      3  C   UNL     1      38.087  -2.386  18.825  0.00  0.00    +0.000 A 
ATOM      4  C   UNL     1      37.318  -1.723  17.886  0.00  0.00    +0.000 A 
ATOM      5  C   UNL     1      36.996  -2.335  16.778  0.00  0.00    +0.000 A 
ATOM      6  C   UNL     1      37.387  -3.632  16.489  0.00  0.00    +0.000 A 
ATOM      7  C   UNL     1      38.167  -4.293  17.449  0.00  0.00    +0.000 A 
ATOM      8  C   UNL     1      37.016  -4.338  15.249  0.00  0.00    +0.000 C 
ATOM      9  C   UNL     1      37.075  -3.426  14.051  0.00  0.00    +0.000 C 
ATOM     10  N   UNL     1      37.274  -2.052  14.546  0.00  0.00    +0.000 N 
ATOM     11  C   UNL     1      36.144  -1.767  15.571  0.00  0.00    +0.000 C 
ENDROOT
BRANCH  10  12
ATOM     12  C   UNL     1      38.274  -1.236  14.157  0.00  0.00    +0.000 A 
ATOM     13  C   UNL     1      38.293  -0.905  12.787  0.00  0.00    +0.000 A 
ATOM     14  C   UNL     1      39.236  -0.117  12.219  0.00  0.00    +0.000 A 
ATOM     15  C   UNL     1      40.240   0.402  12.990  0.00  0.00    +0.000 A 
ATOM     16  C   UNL     1      40.284   0.121  14.339  0.00  0.00    +0.000 A 
ATOM     17  C   UNL     1      39.314  -0.675  14.858  0.00  0.00    +0.000 A 
ENDBRANCH  10  12
BRANCH  11  18
ATOM     18  C   UNL     1      36.189  -0.240  15.763  0.00  0.00    +0.000 A 
ATOM     19  C   UNL     1      36.364   0.426  16.908  0.00  0.00    +0.000 A 
ATOM     20  C   UNL     1      36.399   1.818  16.990  0.00  0.00    +0.000 A 
ATOM     21  C   UNL     1      36.252   2.581  15.860  0.00  0.00    +0.000 A 
ATOM     22  C   UNL     1      36.072   1.914  14.674  0.00  0.00    +0.000 A 
ATOM     23  C   UNL     1      36.040   0.506  14.620  0.00  0.00    +0.000 A 
BRANCH  21  24
ATOM     24  O   UNL     1      36.284   3.990  15.909  0.00  0.00    +0.000 OA
BRANCH  24  25
ATOM     25  C   UNL     1      37.358   4.717  15.342  0.00  0.00    +0.000 C 
BRANCH  25  26
ATOM     26  C   UNL     1      38.546   4.515  16.279  0.00  0.00    +0.000 C 
BRANCH  26  27
ATOM     27  N   UNL     1      38.972   5.887  16.604  0.00  0.00    +0.000 NA
ATOM     28  C   UNL     1      40.390   5.994  16.701  0.00  0.00    +0.000 C 
ATOM     29  C   UNL     1      40.755   6.280  18.126  0.00  0.00    +0.000 C 
ATOM     30  C   UNL     1      39.545   5.757  18.877  0.00  0.00    +0.000 C 
ATOM     31  C   UNL     1      38.422   6.137  17.935  0.00  0.00    +0.000 C 
ENDBRANCH  26  27
ENDBRANCH  25  26
ENDBRANCH  24  25
ENDBRANCH  21  24
ENDBRANCH  11  18
TORSDOF 6
ENDMDL
MODEL 3
REMARK VINA RESULT:      -7.4      7.174      9.044
REMARK  Name = 
REMARK  6 active torsions:
REMARK  status: ('A' for Active; 'I' for Inactive)
REMARK    1  A    between atoms: N_10  and  C_11
REMARK    2  A    between atoms: C_17  and  C_18
REMARK    3  A    between atoms: C_21  and  O_22
REMARK    4  A    between atoms: O_22  and  C_23
REMARK    5  A    between atoms: C_23  and  C_24
REMARK    6  A    between atoms: C_24  and  N_25
REMARK                            x       y       z     vdW  Elec       q    Type
REMARK                         _______ _______ _______ _____ _____    ______ ____
ROOT
ATOM      1  O   UNL     1      45.167   1.096  13.619  0.00  0.00    +0.000 OA
ATOM      2  C   UNL     1      44.005   0.380  13.359  0.00  0.00    +0.000 A 
ATOM      3  C   UNL     1      43.429  -0.487  14.262  0.00  0.00    +0.000 A 
ATOM      4  C   UNL     1      42.271  -1.184  13.969  0.00  0.00    +0.000 A 
ATOM      5  C   UNL     1      41.703  -1.018  12.805  0.00  0.00    +0.000 A 
ATOM      6  C   UNL     1      42.206  -0.169  11.832  0.00  0.00    +0.000 A 
ATOM      7  C   UNL     1      43.381   0.532  12.140  0.00  0.00    +0.000 A 
ATOM      8  C   UNL     1      41.582   0.014  10.509  0.00  0.00    +0.000 C 
ATOM      9  C   UNL     1      40.079   0.055  10.604  0.00  0.00    +0.000 C 
ATOM     10  N   UNL     1      39.708  -0.326  11.979  0.00  0.00    +0.000 N 
ATOM     11  C   UNL     1      40.377  -1.696  12.269  0.00  0.00    +0.000 C 
ENDROOT
BRANCH  10  12
ATOM     12  C   UNL     1      38.936   0.416  12.798  0.00  0.00    +0.000 A 
ATOM     13  C   UNL     1      37.549   0.347  12.556  0.00  0.00    +0.000 A 
ATOM     14  C   UNL     1      36.630   1.043  13.265  0.00  0.00    +0.000 A 
ATOM     15  C   UNL     1      37.036   1.868  14.278  0.00  0.00    +0.000 A 
ATOM     16  C   UNL     1      38.378   1.985  14.570  0.00  0.00    +0.000 A 
ATOM     17  C   UNL     1      39.259   1.265  13.828  0.00  0.00    +0.000 A 
ENDBRANCH  10  12
BRANCH  11  18
ATOM     18  C   UNL     1      39.669  -2.196  13.541  0.00  0.00    +0.000 A 
ATOM     19  C   UNL     1      40.088  -2.069  14.804  0.00  0.00    +0.000 A 
ATOM     20  C   UNL     1      39.375  -2.549  15.903  0.00  0.00    +0.000 A 
ATOM     21  C   UNL     1      38.176  -3.189  15.723  0.00  0.00    +0.000 A 
ATOM     22  C   UNL     1      37.729  -3.328  14.433  0.00  0.00    +0.000 A 
ATOM     23  C   UNL     1      38.470  -2.834  13.340  0.00  0.00    +0.000 A 
BRANCH  21  24
ATOM     24  O   UNL     1      37.431  -3.684  16.813  0.00  0.00    +0.000 OA
BRANCH  24  25
ATOM     25  C   UNL     1      36.220  -3.067  17.211  0.00  0.00    +0.000 C 
BRANCH  25  26
ATOM     26  C   UNL     1      36.615  -1.915  18.131  0.00  0.00    +0.000 C 
BRANCH  26  27
ATOM     27  N   UNL     1      35.364  -1.156  18.297  0.00  0.00    +0.000 NA
ATOM     28  C   UNL     1      34.790  -0.798  17.043  0.00  0.00    +0.000 C 
ATOM     29  C   UNL     1      34.865   0.691  16.886  0.00  0.00    +0.000 C 
ATOM     30  C   UNL     1      36.002   1.054  17.824  0.00  0.00    +0.000 C 
ATOM     31  C   UNL     1      35.771   0.082  18.961  0.00  0.00    +0.000 C 
ENDBRANCH  26  27
ENDBRANCH  25  26
ENDBRANCH  24  25
ENDBRANCH  21  24
ENDBRANCH  11  18
TORSDOF 6
ENDMDL
MODEL 4
REMARK VINA RESULT:      -7.3      6.661      9.877
REMARK  Name = 
REMARK  6 active torsions:
REMARK  status: ('A' for Active; 'I' for Inactive)
REMARK    1  A    between atoms: N_10  and  C_11
REMARK    2  A    between atoms: C_17  and  C_18
REMARK    3  A    between atoms: C_21  and  O_22
REMARK    4  A    between atoms: O_22  and  C_23
REMARK    5  A    between atoms: C_23  and  C_24
REMARK    6  A    between atoms: C_24  and  N_25
REMARK                            x       y       z     vdW  Elec       q    Type
REMARK                         _______ _______ _______ _____ _____    ______ ____
ROOT
ATOM      1  O   UNL     1      39.086  -3.776  19.858  0.00  0.00    +0.000 OA
ATOM      2  C   UNL     1      38.375  -3.195  18.815  0.00  0.00    +0.000 A 
ATOM      3  C   UNL     1      37.879  -1.911  18.857  0.00  0.00    +0.000 A 
ATOM      4  C   UNL     1      37.175  -1.365  17.799  0.00  0.00    +0.000 A 
ATOM      5  C   UNL     1      36.974  -2.083  16.727  0.00  0.00    +0.000 A 
ATOM      6  C   UNL     1      37.433  -3.383  16.591  0.00  0.00    +0.000 A 
ATOM      7  C   UNL     1      38.145  -3.926  17.670  0.00  0.00    +0.000 A 
ATOM      8  C   UNL     1      37.198  -4.208  15.392  0.00  0.00    +0.000 C 
ATOM      9  C   UNL     1      37.333  -3.402  14.126  0.00  0.00    +0.000 C 
ATOM     10  N   UNL     1      37.441  -1.983  14.511  0.00  0.00    +0.000 N 
ATOM     11  C   UNL     1      36.215  -1.658  15.405  0.00  0.00    +0.000 C 
ENDROOT
BRANCH  10  12
ATOM     12  C   UNL     1      38.444  -1.163  14.138  0.00  0.00    +0.000 A 
ATOM     13  C   UNL     1      38.527  -0.891  12.757  0.00  0.00    +0.000 A 
ATOM     14  C   UNL     1      39.483  -0.108  12.205  0.00  0.00    +0.000 A 
ATOM     15  C   UNL     1      40.435   0.466  13.001  0.00  0.00    +0.000 A 
ATOM     16  C   UNL     1      40.415   0.243  14.362  0.00  0.00    +0.000 A 
ATOM     17  C   UNL     1      39.435  -0.551  14.865  0.00  0.00    +0.000 A 
ENDBRANCH  10  12
BRANCH  11  18
ATOM     18  C   UNL     1      36.191  -0.120  15.462  0.00  0.00    +0.000 A 
ATOM     19  C   UNL     1      36.405   0.654  16.530  0.00  0.00    +0.000 A 
ATOM     20  C   UNL     1      36.372   2.048  16.490  0.00  0.00    +0.000 A 
ATOM     21  C   UNL     1      36.110   2.699  15.313  0.00  0.00    +0.000 A 
ATOM     22  C   UNL     1      35.887   1.921  14.204  0.00  0.00    +0.000 A 
ATOM     23  C   UNL     1      35.927   0.514  14.273  0.00  0.00    +0.000 A 
BRANCH  21  24
ATOM     24  O   UNL     1      36.070   4.107  15.239  0.00  0.00    +0.000 OA
BRANCH  24  25
ATOM     25  C   UNL     1      35.283   4.766  14.264  0.00  0.00    +0.000 C 
BRANCH  25  26
ATOM     26  C   UNL     1      36.258   5.578  13.414  0.00  0.00    +0.000 C 
BRANCH  26  27
ATOM     27  N   UNL     1      35.596   6.887  13.280  0.00  0.00    +0.000 NA
ATOM     28  C   UNL     1      34.176   6.767  13.286  0.00  0.00    +0.000 C 
ATOM     29  C   UNL     1      33.656   7.138  11.930  0.00  0.00    +0.000 C 
ATOM     30  C   UNL     1      34.869   6.903  11.047  0.00  0.00    +0.000 C 
ATOM     31  C   UNL     1      35.990   7.363  11.955  0.00  0.00    +0.000 C 
ENDBRANCH  26  27
ENDBRANCH  25  26
ENDBRANCH  24  25
ENDBRANCH  21  24
ENDBRANCH  11  18
TORSDOF 6
ENDMDL
MODEL 5
REMARK VINA RESULT:      -7.0      5.961      9.983
REMARK  Name = 
REMARK  6 active torsions:
REMARK  status: ('A' for Active; 'I' for Inactive)
REMARK    1  A    between atoms: N_10  and  C_11
REMARK    2  A    between atoms: C_17  and  C_18
REMARK    3  A    between atoms: C_21  and  O_22
REMARK    4  A    between atoms: O_22  and  C_23
REMARK    5  A    between atoms: C_23  and  C_24
REMARK    6  A    between atoms: C_24  and  N_25
REMARK                            x       y       z     vdW  Elec       q    Type
REMARK                         _______ _______ _______ _____ _____    ______ ____
ROOT
ATOM      1  O   UNL     1      37.416  -2.441  20.125  0.00  0.00    +0.000 OA
ATOM      2  C   UNL     1      37.214  -2.155  18.780  0.00  0.00    +0.000 A 
ATOM      3  C   UNL     1      37.400  -0.904  18.233  0.00  0.00    +0.000 A 
ATOM      4  C   UNL     1      37.189  -0.656  16.889  0.00  0.00    +0.000 A 
ATOM      5  C   UNL     1      36.804  -1.632  16.112  0.00  0.00    +0.000 A 
ATOM      6  C   UNL     1      36.590  -2.922  16.569  0.00  0.00    +0.000 A 
ATOM      7  C   UNL     1      36.808  -3.163  17.933  0.00  0.00    +0.000 A 
ATOM      8  C   UNL     1      36.141  -4.028  15.704  0.00  0.00    +0.000 C 
ATOM      9  C   UNL     1      36.808  -3.986  14.354  0.00  0.00    +0.000 C 
ATOM     10  N   UNL     1      37.539  -2.709  14.257  0.00  0.00    +0.000 N 
ATOM     11  C   UNL     1      36.520  -1.577  14.556  0.00  0.00    +0.000 C 
ENDROOT
BRANCH  10  12
ATOM     12  C   UNL     1      38.851  -2.597  13.971  0.00  0.00    +0.000 A 
ATOM     13  C   UNL     1      39.726  -2.699  15.071  0.00  0.00    +0.000 A 
ATOM     14  C   UNL     1      41.071  -2.589  14.972  0.00  0.00    +0.000 A 
ATOM     15  C   UNL     1      41.646  -2.365  13.751  0.00  0.00    +0.000 A 
ATOM     16  C   UNL     1      40.850  -2.254  12.630  0.00  0.00    +0.000 A 
ATOM     17  C   UNL     1      39.507  -2.372  12.785  0.00  0.00    +0.000 A 
ENDBRANCH  10  12
BRANCH  11  18
ATOM     18  C   UNL     1      37.236  -0.296  14.088  0.00  0.00    +0.000 A 
ATOM     19  C   UNL     1      38.203   0.370  14.726  0.00  0.00    +0.000 A 
ATOM     20  C   UNL     1      38.804   1.523  14.222  0.00  0.00    +0.000 A 
ATOM     21  C   UNL     1      38.412   2.033  13.011  0.00  0.00    +0.000 A 
ATOM     22  C   UNL     1      37.420   1.363  12.341  0.00  0.00    +0.000 A 
ATOM     23  C   UNL     1      36.830   0.199  12.874  0.00  0.00    +0.000 A 
BRANCH  21  24
ATOM     24  O   UNL     1      39.001   3.197  12.474  0.00  0.00    +0.000 OA
BRANCH  24  25
ATOM     25  C   UNL     1      38.746   4.472  13.035  0.00  0.00    +0.000 C 
BRANCH  25  26
ATOM     26  C   UNL     1      37.277   4.773  12.747  0.00  0.00    +0.000 C 
BRANCH  26  27
ATOM     27  N   UNL     1      36.757   5.245  14.041  0.00  0.00    +0.000 NA
ATOM     28  C   UNL     1      37.386   4.587  15.138  0.00  0.00    +0.000 C 
ATOM     29  C   UNL     1      36.373   3.724  15.827  0.00  0.00    +0.000 C 
ATOM     30  C   UNL     1      35.347   3.498  14.732  0.00  0.00    +0.000 C 
ATOM     31  C   UNL     1      35.350   4.845  14.040  0.00  0.00    +0.000 C 
ENDBRANCH  26  27
ENDBRANCH  25  26
ENDBRANCH  24  25
ENDBRANCH  21  24
ENDBRANCH  11  18
TORSDOF 6
ENDMDL
MODEL 6
REMARK VINA RESULT:      -6.9      2.845      4.780
REMARK  Name = 
REMARK  6 active torsions:
REMARK  status: ('A' for Active; 'I' for Inactive)
REMARK    1  A    between atoms: N_10  and  C_11
REMARK    2  A    between atoms: C_17  and  C_18
REMARK    3  A    between atoms: C_21  and  O_22
REMARK    4  A    between atoms: O_22  and  C_23
REMARK    5  A    between atoms: C_23  and  C_24
REMARK    6  A    between atoms: C_24  and  N_25
REMARK                            x       y       z     vdW  Elec       q    Type
REMARK                         _______ _______ _______ _____ _____    ______ ____
ROOT
ATOM      1  O   UNL     1      39.128   7.769  20.058  0.00  0.00    +0.000 OA
ATOM      2  C   UNL     1      39.320   7.035  18.894  0.00  0.00    +0.000 A 
ATOM      3  C   UNL     1      38.953   5.714  18.760  0.00  0.00    +0.000 A 
ATOM      4  C   UNL     1      39.159   5.014  17.585  0.00  0.00    +0.000 A 
ATOM      5  C   UNL     1      39.717   5.618  16.571  0.00  0.00    +0.000 A 
ATOM      6  C   UNL     1      40.121   6.943  16.609  0.00  0.00    +0.000 A 
ATOM      7  C   UNL     1      39.906   7.643  17.805  0.00  0.00    +0.000 A 
ATOM      8  C   UNL     1      40.766   7.631  15.476  0.00  0.00    +0.000 C 
ATOM      9  C   UNL     1      40.138   7.246  14.161  0.00  0.00    +0.000 C 
ATOM     10  N   UNL     1      39.216   6.124  14.419  0.00  0.00    +0.000 N 
ATOM     11  C   UNL     1      40.032   5.019  15.141  0.00  0.00    +0.000 C 
ENDROOT
BRANCH  10  12
ATOM     12  C   UNL     1      37.912   6.113  14.080  0.00  0.00    +0.000 A 
ATOM     13  C   UNL     1      37.616   5.576  12.810  0.00  0.00    +0.000 A 
ATOM     14  C   UNL     1      36.365   5.507  12.299  0.00  0.00    +0.000 A 
ATOM     15  C   UNL     1      35.307   5.975  13.028  0.00  0.00    +0.000 A 
ATOM     16  C   UNL     1      35.521   6.514  14.279  0.00  0.00    +0.000 A 
ATOM     17  C   UNL     1      36.796   6.560  14.745  0.00  0.00    +0.000 A 
ENDBRANCH  10  12
BRANCH  11  18
ATOM     18  C   UNL     1      39.134   3.772  15.048  0.00  0.00    +0.000 A 
ATOM     19  C   UNL     1      37.997   3.542  15.711  0.00  0.00    +0.000 A 
ATOM     20  C   UNL     1      37.240   2.381  15.560  0.00  0.00    +0.000 A 
ATOM     21  C   UNL     1      37.646   1.398  14.695  0.00  0.00    +0.000 A 
ATOM     22  C   UNL     1      38.813   1.616  14.005  0.00  0.00    +0.000 A 
ATOM     23  C   UNL     1      39.559   2.799  14.177  0.00  0.00    +0.000 A 
BRANCH  21  24
ATOM     24  O   UNL     1      36.902   0.213  14.519  0.00  0.00    +0.000 OA
BRANCH  24  25
ATOM     25  C   UNL     1      35.993  -0.233  15.508  0.00  0.00    +0.000 C 
BRANCH  25  26
ATOM     26  C   UNL     1      36.603  -1.502  16.100  0.00  0.00    +0.000 C 
BRANCH  26  27
ATOM     27  N   UNL     1      35.776  -1.763  17.290  0.00  0.00    +0.000 NA
ATOM     28  C   UNL     1      35.214  -0.566  17.820  0.00  0.00    +0.000 C 
ATOM     29  C   UNL     1      35.832  -0.294  19.158  0.00  0.00    +0.000 C 
ATOM     30  C   UNL     1      37.140  -1.058  19.067  0.00  0.00    +0.000 C 
ATOM     31  C   UNL     1      36.717  -2.282  18.283  0.00  0.00    +0.000 C 
ENDBRANCH  26  27
ENDBRANCH  25  26
ENDBRANCH  24  25
ENDBRANCH  21  24
ENDBRANCH  11  18
TORSDOF 6
ENDMDL
MODEL 7
REMARK VINA RESULT:      -6.8      3.346      6.521
REMARK  Name = 
REMARK  6 active torsions:
REMARK  status: ('A' for Active; 'I' for Inactive)
REMARK    1  A    between atoms: N_10  and  C_11
REMARK    2  A    between atoms: C_17  and  C_18
REMARK    3  A    between atoms: C_21  and  O_22
REMARK    4  A    between atoms: O_22  and  C_23
REMARK    5  A    between atoms: C_23  and  C_24
REMARK    6  A    between atoms: C_24  and  N_25
REMARK                            x       y       z     vdW  Elec       q    Type
REMARK                         _______ _______ _______ _____ _____    ______ ____
ROOT
ATOM      1  O   UNL     1      45.223  10.216  17.594  0.00  0.00    +0.000 OA
ATOM      2  C   UNL     1      44.065   9.779  18.226  0.00  0.00    +0.000 A 
ATOM      3  C   UNL     1      42.830  10.358  18.031  0.00  0.00    +0.000 A 
ATOM      4  C   UNL     1      41.697   9.897  18.677  0.00  0.00    +0.000 A 
ATOM      5  C   UNL     1      41.796   8.883  19.494  0.00  0.00    +0.000 A 
ATOM      6  C   UNL     1      42.993   8.235  19.754  0.00  0.00    +0.000 A 
ATOM      7  C   UNL     1      44.135   8.712  19.094  0.00  0.00    +0.000 A 
ATOM      8  C   UNL     1      43.119   7.100  20.686  0.00  0.00    +0.000 C 
ATOM      9  C   UNL     1      41.952   6.154  20.571  0.00  0.00    +0.000 C 
ATOM     10  N   UNL     1      40.942   6.794  19.709  0.00  0.00    +0.000 N 
ATOM     11  C   UNL     1      40.638   8.188  20.319  0.00  0.00    +0.000 C 
ENDROOT
BRANCH  10  12
ATOM     12  C   UNL     1      40.417   6.235  18.600  0.00  0.00    +0.000 A 
ATOM     13  C   UNL     1      39.275   5.434  18.803  0.00  0.00    +0.000 A 
ATOM     14  C   UNL     1      38.632   4.780  17.808  0.00  0.00    +0.000 A 
ATOM     15  C   UNL     1      39.091   4.879  16.523  0.00  0.00    +0.000 A 
ATOM     16  C   UNL     1      40.204   5.645  16.250  0.00  0.00    +0.000 A 
ATOM     17  C   UNL     1      40.811   6.281  17.285  0.00  0.00    +0.000 A 
ENDBRANCH  10  12
BRANCH  11  18
ATOM     18  C   UNL     1      39.348   8.635  19.608  0.00  0.00    +0.000 A 
ATOM     19  C   UNL     1      39.238   9.156  18.382  0.00  0.00    +0.000 A 
ATOM     20  C   UNL     1      38.021   9.527  17.810  0.00  0.00    +0.000 A 
ATOM     21  C   UNL     1      36.852   9.365  18.507  0.00  0.00    +0.000 A 
ATOM     22  C   UNL     1      36.945   8.830  19.768  0.00  0.00    +0.000 A 
ATOM     23  C   UNL     1      38.188   8.464  20.322  0.00  0.00    +0.000 A 
BRANCH  21  24
ATOM     24  O   UNL     1      35.606   9.729  17.956  0.00  0.00    +0.000 OA
BRANCH  24  25
ATOM     25  C   UNL     1      35.491  10.116  16.599  0.00  0.00    +0.000 C 
BRANCH  25  26
ATOM     26  C   UNL     1      34.975  11.552  16.612  0.00  0.00    +0.000 C 
BRANCH  26  27
ATOM     27  N   UNL     1      33.761  11.494  15.779  0.00  0.00    +0.000 NA
ATOM     28  C   UNL     1      33.910  10.593  14.685  0.00  0.00    +0.000 C 
ATOM     29  C   UNL     1      33.914  11.381  13.410  0.00  0.00    +0.000 C 
ATOM     30  C   UNL     1      34.337  12.758  13.886  0.00  0.00    +0.000 C 
ATOM     31  C   UNL     1      33.632  12.840  15.223  0.00  0.00    +0.000 C 
ENDBRANCH  26  27
ENDBRANCH  25  26
ENDBRANCH  24  25
ENDBRANCH  21  24
ENDBRANCH  11  18
TORSDOF 6
ENDMDL
MODEL 8
REMARK VINA RESULT:      -6.8      7.447      9.782
REMARK  Name = 
REMARK  6 active torsions:
REMARK  status: ('A' for Active; 'I' for Inactive)
REMARK    1  A    between atoms: N_10  and  C_11
REMARK    2  A    between atoms: C_17  and  C_18
REMARK    3  A    between atoms: C_21  and  O_22
REMARK    4  A    between atoms: O_22  and  C_23
REMARK    5  A    between atoms: C_23  and  C_24
REMARK    6  A    between atoms: C_24  and  N_25
REMARK                            x       y       z     vdW  Elec       q    Type
REMARK                         _______ _______ _______ _____ _____    ______ ____
ROOT
ATOM      1  O   UNL     1      45.317  -2.255  14.007  0.00  0.00    +0.000 OA
ATOM      2  C   UNL     1      43.949  -2.267  13.759  0.00  0.00    +0.000 A 
ATOM      3  C   UNL     1      43.020  -1.697  14.601  0.00  0.00    +0.000 A 
ATOM      4  C   UNL     1      41.666  -1.728  14.322  0.00  0.00    +0.000 A 
ATOM      5  C   UNL     1      41.252  -2.312  13.230  0.00  0.00    +0.000 A 
ATOM      6  C   UNL     1      42.109  -2.913  12.323  0.00  0.00    +0.000 A 
ATOM      7  C   UNL     1      43.480  -2.876  12.616  0.00  0.00    +0.000 A 
ATOM      8  C   UNL     1      41.651  -3.589  11.095  0.00  0.00    +0.000 C 
ATOM      9  C   UNL     1      40.527  -2.837  10.431  0.00  0.00    +0.000 C 
ATOM     10  N   UNL     1      40.097  -1.772  11.356  0.00  0.00    +0.000 N 
ATOM     11  C   UNL     1      39.764  -2.450  12.711  0.00  0.00    +0.000 C 
ENDROOT
BRANCH  10  12
ATOM     12  C   UNL     1      40.032  -0.463  11.038  0.00  0.00    +0.000 A 
ATOM     13  C   UNL     1      41.250   0.243  11.113  0.00  0.00    +0.000 A 
ATOM     14  C   UNL     1      41.366   1.566  10.851  0.00  0.00    +0.000 A 
ATOM     15  C   UNL     1      40.260   2.287  10.493  0.00  0.00    +0.000 A 
ATOM     16  C   UNL     1      39.034   1.661  10.400  0.00  0.00    +0.000 A 
ATOM     17  C   UNL     1      38.973   0.332  10.673  0.00  0.00    +0.000 A 
ENDBRANCH  10  12
BRANCH  11  18
ATOM     18  C   UNL     1      38.990  -1.371  13.490  0.00  0.00    +0.000 A 
ATOM     19  C   UNL     1      39.503  -0.357  14.194  0.00  0.00    +0.000 A 
ATOM     20  C   UNL     1      38.724   0.584  14.866  0.00  0.00    +0.000 A 
ATOM     21  C   UNL     1      37.356   0.504  14.827  0.00  0.00    +0.000 A 
ATOM     22  C   UNL     1      36.811  -0.530  14.108  0.00  0.00    +0.000 A 
ATOM     23  C   UNL     1      37.622  -1.468  13.438  0.00  0.00    +0.000 A 
BRANCH  21  24
ATOM     24  O   UNL     1      36.541   1.442  15.494  0.00  0.00    +0.000 OA
BRANCH  24  25
ATOM     25  C   UNL     1      36.220   1.287  16.865  0.00  0.00    +0.000 C 
BRANCH  25  26
ATOM     26  C   UNL     1      34.854   0.606  16.904  0.00  0.00    +0.000 C 
BRANCH  26  27
ATOM     27  N   UNL     1      35.020  -0.452  17.914  0.00  0.00    +0.000 NA
ATOM     28  C   UNL     1      36.347  -0.972  17.926  0.00  0.00    +0.000 C 
ATOM     29  C   UNL     1      36.313  -2.391  17.444  0.00  0.00    +0.000 C 
ATOM     30  C   UNL     1      35.027  -2.425  16.640  0.00  0.00    +0.000 C 
ATOM     31  C   UNL     1      34.133  -1.527  17.469  0.00  0.00    +0.000 C 
ENDBRANCH  26  27
ENDBRANCH  25  26
ENDBRANCH  24  25
ENDBRANCH  21  24
ENDBRANCH  11  18
TORSDOF 6
ENDMDL
MODEL 9
REMARK VINA RESULT:      -6.8     20.360     24.140
REMARK  Name = 
REMARK  6 active torsions:
REMARK  status: ('A' for Active; 'I' for Inactive)
REMARK    1  A    between atoms: N_10  and  C_11
REMARK    2  A    between atoms: C_17  and  C_18
REMARK    3  A    between atoms: C_21  and  O_22
REMARK    4  A    between atoms: O_22  and  C_23
REMARK    5  A    between atoms: C_23  and  C_24
REMARK    6  A    between atoms: C_24  and  N_25
REMARK                            x       y       z     vdW  Elec       q    Type
REMARK                         _______ _______ _______ _____ _____    ______ ____
ROOT
ATOM      1  O   UNL     1      25.035  13.828  40.803  0.00  0.00    +0.000 OA
ATOM      2  C   UNL     1      25.567  14.708  39.868  0.00  0.00    +0.000 A 
ATOM      3  C   UNL     1      26.830  14.578  39.335  0.00  0.00    +0.000 A 
ATOM      4  C   UNL     1      27.327  15.473  38.405  0.00  0.00    +0.000 A 
ATOM      5  C   UNL     1      26.580  16.471  38.017  0.00  0.00    +0.000 A 
ATOM      6  C   UNL     1      25.298  16.686  38.496  0.00  0.00    +0.000 A 
ATOM      7  C   UNL     1      24.805  15.772  39.438  0.00  0.00    +0.000 A 
ATOM      8  C   UNL     1      24.451  17.818  38.076  0.00  0.00    +0.000 C 
ATOM      9  C   UNL     1      24.582  18.095  36.601  0.00  0.00    +0.000 C 
ATOM     10  N   UNL     1      25.695  17.273  36.091  0.00  0.00    +0.000 N 
ATOM     11  C   UNL     1      26.937  17.595  36.963  0.00  0.00    +0.000 C 
ENDROOT
BRANCH  10  12
ATOM     12  C   UNL     1      25.598  16.409  35.060  0.00  0.00    +0.000 A 
ATOM     13  C   UNL     1      25.178  16.966  33.835  0.00  0.00    +0.000 A 
ATOM     14  C   UNL     1      25.005  16.243  32.704  0.00  0.00    +0.000 A 
ATOM     15  C   UNL     1      25.242  14.896  32.717  0.00  0.00    +0.000 A 
ATOM     16  C   UNL     1      25.655  14.283  33.881  0.00  0.00    +0.000 A 
ATOM     17  C   UNL     1      25.813  15.055  34.987  0.00  0.00    +0.000 A 
ENDBRANCH  10  12
BRANCH  11  18
ATOM     18  C   UNL     1      28.116  17.005  36.167  0.00  0.00    +0.000 A 
ATOM     19  C   UNL     1      28.658  15.792  36.305  0.00  0.00    +0.000 A 
ATOM     20  C   UNL     1      29.725  15.333  35.532  0.00  0.00    +0.000 A 
ATOM     21  C   UNL     1      30.275  16.137  34.568  0.00  0.00    +0.000 A 
ATOM     22  C   UNL     1      29.731  17.388  34.410  0.00  0.00    +0.000 A 
ATOM     23  C   UNL     1      28.652  17.825  35.206  0.00  0.00    +0.000 A 
BRANCH  21  24
ATOM     24  O   UNL     1      31.353  15.703  33.769  0.00  0.00    +0.000 OA
BRANCH  24  25
ATOM     25  C   UNL     1      32.686  15.768  34.242  0.00  0.00    +0.000 C 
BRANCH  25  26
ATOM     26  C   UNL     1      33.106  14.326  34.519  0.00  0.00    +0.000 C 
BRANCH  26  27
ATOM     27  N   UNL     1      33.159  14.254  35.988  0.00  0.00    +0.000 NA
ATOM     28  C   UNL     1      34.082  15.193  36.534  0.00  0.00    +0.000 C 
ATOM     29  C   UNL     1      35.228  14.444  37.143  0.00  0.00    +0.000 C 
ATOM     30  C   UNL     1      35.171  13.118  36.406  0.00  0.00    +0.000 C 
ATOM     31  C   UNL     1      33.677  12.916  36.272  0.00  0.00    +0.000 C 
ENDBRANCH  26  27
ENDBRANCH  25  26
ENDBRANCH  24  25
ENDBRANCH  21  24
ENDBRANCH  11  18
TORSDOF 6
ENDMDL
MODEL 10
REMARK VINA RESULT:      -6.8      3.096      5.330
REMARK  Name = 
REMARK  6 active torsions:
REMARK  status: ('A' for Active; 'I' for Inactive)
REMARK    1  A    between atoms: N_10  and  C_11
REMARK    2  A    between atoms: C_17  and  C_18
REMARK    3  A    between atoms: C_21  and  O_22
REMARK    4  A    between atoms: O_22  and  C_23
REMARK    5  A    between atoms: C_23  and  C_24
REMARK    6  A    between atoms: C_24  and  N_25
REMARK                            x       y       z     vdW  Elec       q    Type
REMARK                         _______ _______ _______ _____ _____    ______ ____
ROOT
ATOM      1  O   UNL     1      44.938  10.121  17.357  0.00  0.00    +0.000 OA
ATOM      2  C   UNL     1      43.742   9.723  17.943  0.00  0.00    +0.000 A 
ATOM      3  C   UNL     1      42.520  10.269  17.621  0.00  0.00    +0.000 A 
ATOM      4  C   UNL     1      41.349   9.849  18.225  0.00  0.00    +0.000 A 
ATOM      5  C   UNL     1      41.399   8.905  19.126  0.00  0.00    +0.000 A 
ATOM      6  C   UNL     1      42.580   8.294  19.517  0.00  0.00    +0.000 A 
ATOM      7  C   UNL     1      43.760   8.729  18.897  0.00  0.00    +0.000 A 
ATOM      8  C   UNL     1      42.650   7.239  20.544  0.00  0.00    +0.000 C 
ATOM      9  C   UNL     1      41.499   6.273  20.429  0.00  0.00    +0.000 C 
ATOM     10  N   UNL     1      40.545   6.830  19.453  0.00  0.00    +0.000 N 
ATOM     11  C   UNL     1      40.193   8.265  19.926  0.00  0.00    +0.000 C 
ENDROOT
BRANCH  10  12
ATOM     12  C   UNL     1      40.100   6.178  18.360  0.00  0.00    +0.000 A 
ATOM     13  C   UNL     1      39.000   5.321  18.569  0.00  0.00    +0.000 A 
ATOM     14  C   UNL     1      38.438   4.572  17.591  0.00  0.00    +0.000 A 
ATOM     15  C   UNL     1      38.941   4.627  16.320  0.00  0.00    +0.000 A 
ATOM     16  C   UNL     1      40.017   5.444  16.044  0.00  0.00    +0.000 A 
ATOM     17  C   UNL     1      40.543   6.174  17.060  0.00  0.00    +0.000 A 
ENDBRANCH  10  12
BRANCH  11  18
ATOM     18  C   UNL     1      38.950   8.638  19.097  0.00  0.00    +0.000 A 
ATOM     19  C   UNL     1      38.915   9.006  17.813  0.00  0.00    +0.000 A 
ATOM     20  C   UNL     1      37.737   9.320  17.135  0.00  0.00    +0.000 A 
ATOM     21  C   UNL     1      36.530   9.260  17.782  0.00  0.00    +0.000 A 
ATOM     22  C   UNL     1      36.546   8.884  19.102  0.00  0.00    +0.000 A 
ATOM     23  C   UNL     1      37.752   8.572  19.763  0.00  0.00    +0.000 A 
BRANCH  21  24
ATOM     24  O   UNL     1      35.322   9.571  17.124  0.00  0.00    +0.000 OA
BRANCH  24  25
ATOM     25  C   UNL     1      35.320  10.108  15.815  0.00  0.00    +0.000 C 
BRANCH  25  26
ATOM     26  C   UNL     1      34.245   9.343  15.047  0.00  0.00    +0.000 C 
BRANCH  26  27
ATOM     27  N   UNL     1      34.868   8.035  14.784  0.00  0.00    +0.000 NA
ATOM     28  C   UNL     1      35.706   8.067  13.632  0.00  0.00    +0.000 C 
ATOM     29  C   UNL     1      35.089   7.215  12.564  0.00  0.00    +0.000 C 
ATOM     30  C   UNL     1      33.628   7.193  12.976  0.00  0.00    +0.000 C 
ATOM     31  C   UNL     1      33.745   7.147  14.485  0.00  0.00    +0.000 C 
ENDBRANCH  26  27
ENDBRANCH  25  26
ENDBRANCH  24  25
ENDBRANCH  21  24
ENDBRANCH  11  18
TORSDOF 6
ENDMDL
