MODEL 1
REMARK VINA RESULT:      -6.9      0.000      0.000
REMARK  Name = 
REMARK  2 active torsions:
REMARK  status: ('A' for Active; 'I' for Inactive)
REMARK    1  A    between atoms: C_11  and  S_12
REMARK    2  A    between atoms: S_12  and  C_13
REMARK                            x       y       z     vdW  Elec       q    Type
REMARK                         _______ _______ _______ _____ _____    ______ ____
ROOT
ATOM      1  C   UNL     1      21.530  12.963  40.648  0.00  0.00    +0.000 C 
ATOM      2  C   UNL     1      21.384  12.953  39.118  0.00  0.00    +0.000 C 
ATOM      3  C   UNL     1      20.849  14.348  38.775  0.00  0.00    +0.000 C 
ATOM      4  C   UNL     1      22.741  12.802  38.534  0.00  0.00    +0.000 C 
ATOM      5  C   UNL     1      22.934  11.620  37.687  0.00  0.00    +0.000 A 
ATOM      6  C   UNL     1      24.193  11.457  37.130  0.00  0.00    +0.000 A 
ATOM      7  C   UNL     1      24.429  10.368  36.327  0.00  0.00    +0.000 A 
ATOM      8  C   UNL     1      23.423   9.465  36.092  0.00  0.00    +0.000 A 
ATOM      9  C   UNL     1      22.177   9.617  36.636  0.00  0.00    +0.000 A 
ATOM     10  C   UNL     1      21.937  10.707  37.441  0.00  0.00    +0.000 A 
ATOM     11  C   UNL     1      20.612  10.917  38.052  0.00  0.00    +0.000 C 
ATOM     12  N   UNL     1      20.436  11.940  38.789  0.00  0.00    +0.000 NA
ENDROOT
BRANCH  11  13
ATOM     13  S   UNL     1      19.363   9.698  37.694  0.00  0.00    +0.000 S 
BRANCH  13  14
ATOM     14  C   UNL     1      18.289  10.215  36.385  0.00  0.00    +0.000 A 
ATOM     15  C   UNL     1      17.474  11.304  36.606  0.00  0.00    +0.000 A 
ATOM     16  C   UNL     1      16.601  11.776  35.632  0.00  0.00    +0.000 A 
ATOM     17  C   UNL     1      16.532  11.152  34.401  0.00  0.00    +0.000 A 
ATOM     18  N   UNL     1      15.676  11.567  33.363  0.00  0.00    +0.000 NA
ATOM     19  C   UNL     1      17.353  10.064  34.194  0.00  0.00    +0.000 A 
ATOM     20  C   UNL     1      18.227   9.592  35.171  0.00  0.00    +0.000 A 
ENDBRANCH  13  14
ENDBRANCH  11  13
TORSDOF 2
ENDMDL
MODEL 2
REMARK VINA RESULT:      -6.7     17.754     19.020
REMARK  Name = 
REMARK  2 active torsions:
REMARK  status: ('A' for Active; 'I' for Inactive)
REMARK    1  A    between atoms: C_11  and  S_12
REMARK    2  A    between atoms: S_12  and  C_13
REMARK                            x       y       z     vdW  Elec       q    Type
REMARK                         _______ _______ _______ _____ _____    ______ ____
ROOT
ATOM      1  C   UNL     1      23.063  26.606  26.148  0.00  0.00    +0.000 C 
ATOM      2  C   UNL     1      24.554  26.506  26.505  0.00  0.00    +0.000 C 
ATOM      3  C   UNL     1      25.168  27.797  25.951  0.00  0.00    +0.000 C 
ATOM      4  C   UNL     1      24.668  26.516  27.986  0.00  0.00    +0.000 C 
ATOM      5  C   UNL     1      25.307  25.335  28.576  0.00  0.00    +0.000 A 
ATOM      6  C   UNL     1      25.425  25.321  29.957  0.00  0.00    +0.000 A 
ATOM      7  C   UNL     1      26.016  24.239  30.563  0.00  0.00    +0.000 A 
ATOM      8  C   UNL     1      26.475  23.196  29.798  0.00  0.00    +0.000 A 
ATOM      9  C   UNL     1      26.363  23.200  28.434  0.00  0.00    +0.000 A 
ATOM     10  C   UNL     1      25.772  24.283  27.824  0.00  0.00    +0.000 A 
ATOM     11  C   UNL     1      25.627  24.337  26.358  0.00  0.00    +0.000 C 
ATOM     12  N   UNL     1      25.074  25.358  25.837  0.00  0.00    +0.000 NA
ENDROOT
BRANCH  11  13
ATOM     13  S   UNL     1      26.251  22.943  25.440  0.00  0.00    +0.000 S 
BRANCH  13  14
ATOM     14  C   UNL     1      27.212  23.447  24.041  0.00  0.00    +0.000 A 
ATOM     15  C   UNL     1      28.583  23.478  24.172  0.00  0.00    +0.000 A 
ATOM     16  C   UNL     1      29.411  23.862  23.123  0.00  0.00    +0.000 A 
ATOM     17  C   UNL     1      28.866  24.228  21.907  0.00  0.00    +0.000 A 
ATOM     18  N   UNL     1      29.634  24.628  20.797  0.00  0.00    +0.000 NA
ATOM     19  C   UNL     1      27.492  24.192  21.790  0.00  0.00    +0.000 A 
ATOM     20  C   UNL     1      26.664  23.807  22.842  0.00  0.00    +0.000 A 
ENDBRANCH  13  14
ENDBRANCH  11  13
TORSDOF 2
ENDMDL
MODEL 3
REMARK VINA RESULT:      -6.6     18.044     19.307
REMARK  Name = 
REMARK  2 active torsions:
REMARK  status: ('A' for Active; 'I' for Inactive)
REMARK    1  A    between atoms: C_11  and  S_12
REMARK    2  A    between atoms: S_12  and  C_13
REMARK                            x       y       z     vdW  Elec       q    Type
REMARK                         _______ _______ _______ _____ _____    ______ ____
ROOT
ATOM      1  C   UNL     1      27.833  27.432  23.501  0.00  0.00    +0.000 C 
ATOM      2  C   UNL     1      27.945  25.984  22.999  0.00  0.00    +0.000 C 
ATOM      3  C   UNL     1      27.555  26.060  21.519  0.00  0.00    +0.000 C 
ATOM      4  C   UNL     1      29.370  25.577  23.101  0.00  0.00    +0.000 C 
ATOM      5  C   UNL     1      29.634  24.417  23.958  0.00  0.00    +0.000 A 
ATOM      6  C   UNL     1      30.956  24.018  24.069  0.00  0.00    +0.000 A 
ATOM      7  C   UNL     1      31.261  22.936  24.858  0.00  0.00    +0.000 A 
ATOM      8  C   UNL     1      30.258  22.273  25.521  0.00  0.00    +0.000 A 
ATOM      9  C   UNL     1      28.950  22.658  25.418  0.00  0.00    +0.000 A 
ATOM     10  C   UNL     1      28.641  23.742  24.627  0.00  0.00    +0.000 A 
ATOM     11  C   UNL     1      27.247  24.198  24.483  0.00  0.00    +0.000 C 
ATOM     12  N   UNL     1      27.009  25.204  23.741  0.00  0.00    +0.000 NA
ENDROOT
BRANCH  11  13
ATOM     13  S   UNL     1      26.008  23.281  25.376  0.00  0.00    +0.000 S 
BRANCH  13  14
ATOM     14  C   UNL     1      25.848  23.839  27.049  0.00  0.00    +0.000 A 
ATOM     15  C   UNL     1      26.466  23.108  28.040  0.00  0.00    +0.000 A 
ATOM     16  C   UNL     1      26.391  23.477  29.378  0.00  0.00    +0.000 A 
ATOM     17  C   UNL     1      25.682  24.604  29.748  0.00  0.00    +0.000 A 
ATOM     18  N   UNL     1      25.559  25.046  31.080  0.00  0.00    +0.000 NA
ATOM     19  C   UNL     1      25.070  25.327  28.746  0.00  0.00    +0.000 A 
ATOM     20  C   UNL     1      25.146  24.956  27.406  0.00  0.00    +0.000 A 
ENDBRANCH  13  14
ENDBRANCH  11  13
TORSDOF 2
ENDMDL
MODEL 4
REMARK VINA RESULT:      -6.6     21.117     23.538
REMARK  Name = 
REMARK  2 active torsions:
REMARK  status: ('A' for Active; 'I' for Inactive)
REMARK    1  A    between atoms: C_11  and  S_12
REMARK    2  A    between atoms: S_12  and  C_13
REMARK                            x       y       z     vdW  Elec       q    Type
REMARK                         _______ _______ _______ _____ _____    ______ ____
ROOT
ATOM      1  C   UNL     1      22.113 -10.330  27.285  0.00  0.00    +0.000 C 
ATOM      2  C   UNL     1      21.130  -9.826  26.216  0.00  0.00    +0.000 C 
ATOM      3  C   UNL     1      20.776 -11.076  25.403  0.00  0.00    +0.000 C 
ATOM      4  C   UNL     1      19.910  -9.344  26.912  0.00  0.00    +0.000 C 
ATOM      5  C   UNL     1      19.573  -7.933  26.689  0.00  0.00    +0.000 A 
ATOM      6  C   UNL     1      18.439  -7.460  27.328  0.00  0.00    +0.000 A 
ATOM      7  C   UNL     1      18.076  -6.147  27.153  0.00  0.00    +0.000 A 
ATOM      8  C   UNL     1      18.838  -5.330  26.354  0.00  0.00    +0.000 A 
ATOM      9  C   UNL     1      19.959  -5.789  25.718  0.00  0.00    +0.000 A 
ATOM     10  C   UNL     1      20.325  -7.104  25.891  0.00  0.00    +0.000 A 
ATOM     11  C   UNL     1      21.525  -7.647  25.229  0.00  0.00    +0.000 C 
ATOM     12  N   UNL     1      21.824  -8.869  25.419  0.00  0.00    +0.000 NA
ENDROOT
BRANCH  11  13
ATOM     13  S   UNL     1      22.456  -6.520  24.210  0.00  0.00    +0.000 S 
BRANCH  13  14
ATOM     14  C   UNL     1      23.804  -7.326  23.394  0.00  0.00    +0.000 A 
ATOM     15  C   UNL     1      25.084  -6.913  23.692  0.00  0.00    +0.000 A 
ATOM     16  C   UNL     1      26.199  -7.493  23.097  0.00  0.00    +0.000 A 
ATOM     17  C   UNL     1      26.043  -8.512  22.176  0.00  0.00    +0.000 A 
ATOM     18  N   UNL     1      27.118  -9.151  21.530  0.00  0.00    +0.000 NA
ATOM     19  C   UNL     1      24.756  -8.915  21.887  0.00  0.00    +0.000 A 
ATOM     20  C   UNL     1      23.640  -8.334  22.485  0.00  0.00    +0.000 A 
ENDBRANCH  13  14
ENDBRANCH  11  13
TORSDOF 2
ENDMDL
MODEL 5
REMARK VINA RESULT:      -6.5     18.090     21.150
REMARK  Name = 
REMARK  2 active torsions:
REMARK  status: ('A' for Active; 'I' for Inactive)
REMARK    1  A    between atoms: C_11  and  S_12
REMARK    2  A    between atoms: S_12  and  C_13
REMARK                            x       y       z     vdW  Elec       q    Type
REMARK                         _______ _______ _______ _____ _____    ______ ____
ROOT
ATOM      1  C   UNL     1      36.055  -6.860  35.783  0.00  0.00    +0.000 C 
ATOM      2  C   UNL     1      36.143  -5.662  34.824  0.00  0.00    +0.000 C 
ATOM      3  C   UNL     1      37.413  -4.919  35.254  0.00  0.00    +0.000 C 
ATOM      4  C   UNL     1      36.339  -6.194  33.451  0.00  0.00    +0.000 C 
ATOM      5  C   UNL     1      35.303  -5.827  32.480  0.00  0.00    +0.000 A 
ATOM      6  C   UNL     1      35.464  -6.311  31.191  0.00  0.00    +0.000 A 
ATOM      7  C   UNL     1      34.523  -5.998  30.240  0.00  0.00    +0.000 A 
ATOM      8  C   UNL     1      33.446  -5.216  30.579  0.00  0.00    +0.000 A 
ATOM      9  C   UNL     1      33.279  -4.733  31.848  0.00  0.00    +0.000 A 
ATOM     10  C   UNL     1      34.220  -5.045  32.803  0.00  0.00    +0.000 A 
ATOM     11  C   UNL     1      34.086  -4.550  34.185  0.00  0.00    +0.000 C 
ATOM     12  N   UNL     1      34.980  -4.864  35.034  0.00  0.00    +0.000 NA
ENDROOT
BRANCH  11  13
ATOM     13  S   UNL     1      32.660  -3.541  34.539  0.00  0.00    +0.000 S 
BRANCH  13  14
ATOM     14  C   UNL     1      32.956  -1.831  34.193  0.00  0.00    +0.000 A 
ATOM     15  C   UNL     1      33.935  -1.514  33.277  0.00  0.00    +0.000 A 
ATOM     16  C   UNL     1      34.232  -0.196  32.948  0.00  0.00    +0.000 A 
ATOM     17  C   UNL     1      33.540   0.841  33.544  0.00  0.00    +0.000 A 
ATOM     18  N   UNL     1      33.778   2.200  33.265  0.00  0.00    +0.000 NA
ATOM     19  C   UNL     1      32.563   0.509  34.459  0.00  0.00    +0.000 A 
ATOM     20  C   UNL     1      32.266  -0.812  34.787  0.00  0.00    +0.000 A 
ENDBRANCH  13  14
ENDBRANCH  11  13
TORSDOF 2
ENDMDL
MODEL 6
REMARK VINA RESULT:      -6.4      3.250      6.811
REMARK  Name = 
REMARK  2 active torsions:
REMARK  status: ('A' for Active; 'I' for Inactive)
REMARK    1  A    between atoms: C_11  and  S_12
REMARK    2  A    between atoms: S_12  and  C_13
REMARK                            x       y       z     vdW  Elec       q    Type
REMARK                         _______ _______ _______ _____ _____    ______ ____
ROOT
ATOM      1  C   UNL     1      17.260   9.633  42.297  0.00  0.00    +0.000 C 
ATOM      2  C   UNL     1      16.815   8.997  40.970  0.00  0.00    +0.000 C 
ATOM      3  C   UNL     1      16.691   7.502  41.285  0.00  0.00    +0.000 C 
ATOM      4  C   UNL     1      15.469   9.531  40.640  0.00  0.00    +0.000 C 
ATOM      5  C   UNL     1      15.372  10.248  39.364  0.00  0.00    +0.000 A 
ATOM      6  C   UNL     1      14.126  10.756  39.034  0.00  0.00    +0.000 A 
ATOM      7  C   UNL     1      13.977  11.436  37.849  0.00  0.00    +0.000 A 
ATOM      8  C   UNL     1      15.058  11.600  37.018  0.00  0.00    +0.000 A 
ATOM      9  C   UNL     1      16.292  11.102  37.335  0.00  0.00    +0.000 A 
ATOM     10  C   UNL     1      16.444  10.420  38.521  0.00  0.00    +0.000 A 
ATOM     11  C   UNL     1      17.752   9.864  38.910  0.00  0.00    +0.000 C 
ATOM     12  N   UNL     1      17.845   9.241  40.016  0.00  0.00    +0.000 NA
ENDROOT
BRANCH  11  13
ATOM     13  S   UNL     1      19.101  10.121  37.774  0.00  0.00    +0.000 S 
BRANCH  13  14
ATOM     14  C   UNL     1      19.994  11.607  38.133  0.00  0.00    +0.000 A 
ATOM     15  C   UNL     1      21.338  11.503  38.421  0.00  0.00    +0.000 A 
ATOM     16  C   UNL     1      22.112  12.620  38.714  0.00  0.00    +0.000 A 
ATOM     17  C   UNL     1      21.541  13.878  38.724  0.00  0.00    +0.000 A 
ATOM     18  N   UNL     1      22.255  15.058  39.010  0.00  0.00    +0.000 NA
ATOM     19  C   UNL     1      20.196  13.967  38.434  0.00  0.00    +0.000 A 
ATOM     20  C   UNL     1      19.421  12.847  38.140  0.00  0.00    +0.000 A 
ENDBRANCH  13  14
ENDBRANCH  11  13
TORSDOF 2
ENDMDL
MODEL 7
REMARK VINA RESULT:      -6.3     17.513     18.791
REMARK  Name = 
REMARK  2 active torsions:
REMARK  status: ('A' for Active; 'I' for Inactive)
REMARK    1  A    between atoms: C_11  and  S_12
REMARK    2  A    between atoms: S_12  and  C_13
REMARK                            x       y       z     vdW  Elec       q    Type
REMARK                         _______ _______ _______ _____ _____    ______ ____
ROOT
ATOM      1  C   UNL     1      29.411  24.127  28.532  0.00  0.00    +0.000 C 
ATOM      2  C   UNL     1      27.989  23.586  28.755  0.00  0.00    +0.000 C 
ATOM      3  C   UNL     1      28.171  22.425  29.738  0.00  0.00    +0.000 C 
ATOM      4  C   UNL     1      27.197  24.655  29.416  0.00  0.00    +0.000 C 
ATOM      5  C   UNL     1      26.009  25.105  28.681  0.00  0.00    +0.000 A 
ATOM      6  C   UNL     1      25.254  26.101  29.277  0.00  0.00    +0.000 A 
ATOM      7  C   UNL     1      24.130  26.560  28.633  0.00  0.00    +0.000 A 
ATOM      8  C   UNL     1      23.778  26.028  27.417  0.00  0.00    +0.000 A 
ATOM      9  C   UNL     1      24.517  25.044  26.820  0.00  0.00    +0.000 A 
ATOM     10  C   UNL     1      25.643  24.582  27.464  0.00  0.00    +0.000 A 
ATOM     11  C   UNL     1      26.474  23.523  26.863  0.00  0.00    +0.000 C 
ATOM     12  N   UNL     1      27.506  23.128  27.495  0.00  0.00    +0.000 NA
ENDROOT
BRANCH  11  13
ATOM     13  S   UNL     1      25.945  22.888  25.285  0.00  0.00    +0.000 S 
BRANCH  13  14
ATOM     14  C   UNL     1      27.013  23.406  23.971  0.00  0.00    +0.000 A 
ATOM     15  C   UNL     1      28.373  23.273  24.150  0.00  0.00    +0.000 A 
ATOM     16  C   UNL     1      29.282  23.655  23.170  0.00  0.00    +0.000 A 
ATOM     17  C   UNL     1      28.832  24.185  21.975  0.00  0.00    +0.000 A 
ATOM     18  N   UNL     1      29.685  24.595  20.933  0.00  0.00    +0.000 NA
ATOM     19  C   UNL     1      27.469  24.311  21.810  0.00  0.00    +0.000 A 
ATOM     20  C   UNL     1      26.559  23.928  22.793  0.00  0.00    +0.000 A 
ENDBRANCH  13  14
ENDBRANCH  11  13
TORSDOF 2
ENDMDL
MODEL 8
REMARK VINA RESULT:      -6.2      2.734      6.550
REMARK  Name = 
REMARK  2 active torsions:
REMARK  status: ('A' for Active; 'I' for Inactive)
REMARK    1  A    between atoms: C_11  and  S_12
REMARK    2  A    between atoms: S_12  and  C_13
REMARK                            x       y       z     vdW  Elec       q    Type
REMARK                         _______ _______ _______ _____ _____    ______ ____
ROOT
ATOM      1  C   UNL     1      18.648   9.589  41.408  0.00  0.00    +0.000 C 
ATOM      2  C   UNL     1      17.883   8.925  40.252  0.00  0.00    +0.000 C 
ATOM      3  C   UNL     1      17.710   7.467  40.694  0.00  0.00    +0.000 C 
ATOM      4  C   UNL     1      16.544   9.563  40.168  0.00  0.00    +0.000 C 
ATOM      5  C   UNL     1      16.236  10.215  38.891  0.00  0.00    +0.000 A 
ATOM      6  C   UNL     1      14.993  10.818  38.788  0.00  0.00    +0.000 A 
ATOM      7  C   UNL     1      14.651  11.442  37.613  0.00  0.00    +0.000 A 
ATOM      8  C   UNL     1      15.541  11.460  36.568  0.00  0.00    +0.000 A 
ATOM      9  C   UNL     1      16.770  10.867  36.659  0.00  0.00    +0.000 A 
ATOM     10  C   UNL     1      17.115  10.240  37.835  0.00  0.00    +0.000 A 
ATOM     11  C   UNL     1      18.428   9.587  37.985  0.00  0.00    +0.000 C 
ATOM     12  N   UNL     1      18.703   9.020  39.090  0.00  0.00    +0.000 NA
ENDROOT
BRANCH  11  13
ATOM     13  S   UNL     1      19.522   9.656  36.579  0.00  0.00    +0.000 S 
BRANCH  13  14
ATOM     14  C   UNL     1      21.118  10.288  37.013  0.00  0.00    +0.000 A 
ATOM     15  C   UNL     1      22.226   9.697  36.447  0.00  0.00    +0.000 A 
ATOM     16  C   UNL     1      23.515  10.131  36.733  0.00  0.00    +0.000 A 
ATOM     17  C   UNL     1      23.715  11.183  37.607  0.00  0.00    +0.000 A 
ATOM     18  N   UNL     1      24.986  11.683  37.949  0.00  0.00    +0.000 NA
ATOM     19  C   UNL     1      22.597  11.765  38.166  0.00  0.00    +0.000 A 
ATOM     20  C   UNL     1      21.305  11.329  37.878  0.00  0.00    +0.000 A 
ENDBRANCH  13  14
ENDBRANCH  11  13
TORSDOF 2
ENDMDL
MODEL 9
REMARK VINA RESULT:      -6.1     20.501     22.861
REMARK  Name = 
REMARK  2 active torsions:
REMARK  status: ('A' for Active; 'I' for Inactive)
REMARK    1  A    between atoms: C_11  and  S_12
REMARK    2  A    between atoms: S_12  and  C_13
REMARK                            x       y       z     vdW  Elec       q    Type
REMARK                         _______ _______ _______ _____ _____    ______ ____
ROOT
ATOM      1  C   UNL     1      20.049 -10.032  23.669  0.00  0.00    +0.000 C 
ATOM      2  C   UNL     1      20.369  -9.527  25.085  0.00  0.00    +0.000 C 
ATOM      3  C   UNL     1      21.654 -10.267  25.474  0.00  0.00    +0.000 C 
ATOM      4  C   UNL     1      20.660  -8.074  24.994  0.00  0.00    +0.000 C 
ATOM      5  C   UNL     1      19.784  -7.204  25.786  0.00  0.00    +0.000 A 
ATOM      6  C   UNL     1      20.037  -5.844  25.717  0.00  0.00    +0.000 A 
ATOM      7  C   UNL     1      19.247  -4.983  26.441  0.00  0.00    +0.000 A 
ATOM      8  C   UNL     1      18.228  -5.481  27.214  0.00  0.00    +0.000 A 
ATOM      9  C   UNL     1      17.971  -6.823  27.289  0.00  0.00    +0.000 A 
ATOM     10  C   UNL     1      18.761  -7.688  26.566  0.00  0.00    +0.000 A 
ATOM     11  C   UNL     1      18.526  -9.142  26.611  0.00  0.00    +0.000 C 
ATOM     12  N   UNL     1      19.281  -9.903  25.926  0.00  0.00    +0.000 NA
ENDROOT
BRANCH  11  13
ATOM     13  S   UNL     1      17.183  -9.704  27.640  0.00  0.00    +0.000 S 
BRANCH  13  14
ATOM     14  C   UNL     1      17.723 -10.086  29.282  0.00  0.00    +0.000 A 
ATOM     15  C   UNL     1      16.936 -10.920  30.047  0.00  0.00    +0.000 A 
ATOM     16  C   UNL     1      17.286 -11.270  31.346  0.00  0.00    +0.000 A 
ATOM     17  C   UNL     1      18.451 -10.781  31.907  0.00  0.00    +0.000 A 
ATOM     18  N   UNL     1      18.877 -11.089  33.213  0.00  0.00    +0.000 NA
ATOM     19  C   UNL     1      19.229  -9.949  31.130  0.00  0.00    +0.000 A 
ATOM     20  C   UNL     1      18.877  -9.598  29.828  0.00  0.00    +0.000 A 
ENDBRANCH  13  14
ENDBRANCH  11  13
TORSDOF 2
ENDMDL
MODEL 10
REMARK VINA RESULT:      -6.1     17.594     18.578
REMARK  Name = 
REMARK  2 active torsions:
REMARK  status: ('A' for Active; 'I' for Inactive)
REMARK    1  A    between atoms: C_11  and  S_12
REMARK    2  A    between atoms: S_12  and  C_13
REMARK                            x       y       z     vdW  Elec       q    Type
REMARK                         _______ _______ _______ _____ _____    ______ ____
ROOT
ATOM      1  C   UNL     1      26.401  22.125  30.101  0.00  0.00    +0.000 C 
ATOM      2  C   UNL     1      27.048  23.235  29.257  0.00  0.00    +0.000 C 
ATOM      3  C   UNL     1      26.729  24.527  30.016  0.00  0.00    +0.000 C 
ATOM      4  C   UNL     1      28.518  23.018  29.274  0.00  0.00    +0.000 C 
ATOM      5  C   UNL     1      29.139  22.812  27.962  0.00  0.00    +0.000 A 
ATOM      6  C   UNL     1      30.510  22.608  27.952  0.00  0.00    +0.000 A 
ATOM      7  C   UNL     1      31.144  22.410  26.749  0.00  0.00    +0.000 A 
ATOM      8  C   UNL     1      30.415  22.416  25.586  0.00  0.00    +0.000 A 
ATOM      9  C   UNL     1      29.062  22.617  25.585  0.00  0.00    +0.000 A 
ATOM     10  C   UNL     1      28.424  22.816  26.788  0.00  0.00    +0.000 A 
ATOM     11  C   UNL     1      26.967  23.037  26.843  0.00  0.00    +0.000 C 
ATOM     12  N   UNL     1      26.420  23.216  27.978  0.00  0.00    +0.000 NA
ENDROOT
BRANCH  11  13
ATOM     13  S   UNL     1      26.098  23.031  25.287  0.00  0.00    +0.000 S 
BRANCH  13  14
ATOM     14  C   UNL     1      26.617  24.356  24.234  0.00  0.00    +0.000 A 
ATOM     15  C   UNL     1      26.907  24.065  22.919  0.00  0.00    +0.000 A 
ATOM     16  C   UNL     1      27.321  25.047  22.026  0.00  0.00    +0.000 A 
ATOM     17  C   UNL     1      27.453  26.357  22.445  0.00  0.00    +0.000 A 
ATOM     18  N   UNL     1      27.865  27.408  21.604  0.00  0.00    +0.000 NA
ATOM     19  C   UNL     1      27.158  26.634  23.764  0.00  0.00    +0.000 A 
ATOM     20  C   UNL     1      26.743  25.649  24.658  0.00  0.00    +0.000 A 
ENDBRANCH  13  14
ENDBRANCH  11  13
TORSDOF 2
ENDMDL
