MODEL 1
REMARK VINA RESULT:      -7.8      0.000      0.000
REMARK  Name = 
REMARK  4 active torsions:
REMARK  status: ('A' for Active; 'I' for Inactive)
REMARK    1  A    between atoms: C_2  and  C_3
REMARK    2  A    between atoms: C_6  and  N_7
REMARK    3  A    between atoms: C_8  and  C_10
REMARK    4  A    between atoms: C_15  and  N_16
REMARK                            x       y       z     vdW  Elec       q    Type
REMARK                         _______ _______ _______ _____ _____    ______ ____
ROOT
ATOM      1  N   UNL     1      15.848  11.258  36.505  0.00  0.00    +0.000 NA
ATOM      2  C   UNL     1      14.768  12.148  36.268  0.00  0.00    +0.000 C 
ATOM      3  O   UNL     1      14.042  12.430  37.251  0.00  0.00    +0.000 OA
ENDROOT
BRANCH   2   4
ATOM      4  C   UNL     1      14.483  12.726  34.965  0.00  0.00    +0.000 A 
ATOM      5  C   UNL     1      13.720  13.878  34.822  0.00  0.00    +0.000 A 
ATOM      6  C   UNL     1      13.478  14.389  33.562  0.00  0.00    +0.000 A 
ATOM      7  C   UNL     1      13.992  13.758  32.454  0.00  0.00    +0.000 A 
ATOM      8  C   UNL     1      13.750  14.284  31.083  0.00  0.00    +0.000 C 
ATOM      9  C   UNL     1      14.754  12.608  32.596  0.00  0.00    +0.000 A 
ATOM     10  C   UNL     1      14.984  12.116  33.846  0.00  0.00    +0.000 A 
BRANCH   9  11
ATOM     11  N   UNL     1      15.265  11.992  31.433  0.00  0.00    +0.000 N 
ATOM     12  O   UNL     1      16.349  12.369  30.972  0.00  0.00    +0.000 OA
ATOM     13  O   UNL     1      14.570  10.989  30.821  0.00  0.00    +0.000 OA
ENDBRANCH   9  11
ENDBRANCH   2   4
BRANCH   1  17
ATOM     14  C   UNL     1      16.611   9.594  40.340  0.00  0.00    +0.000 A 
ATOM     15  C   UNL     1      15.341   9.978  39.959  0.00  0.00    +0.000 A 
ATOM     16  C   UNL     1      15.101  10.522  38.698  0.00  0.00    +0.000 A 
ATOM     17  C   UNL     1      16.117  10.699  37.785  0.00  0.00    +0.000 A 
ATOM     18  C   UNL     1      17.384  10.315  38.169  0.00  0.00    +0.000 A 
ATOM     19  C   UNL     1      17.627   9.773  39.421  0.00  0.00    +0.000 A 
BRANCH  14  21
ATOM     20  C   UNL     1      16.509   9.972  42.781  0.00  0.00    +0.000 C 
ATOM     21  C   UNL     1      16.879   9.008  41.691  0.00  0.00    +0.000 C 
ENDBRANCH  14  21
ENDBRANCH   1  17
TORSDOF 4
ENDMDL
MODEL 2
REMARK VINA RESULT:      -7.5      2.746      8.325
REMARK  Name = 
REMARK  4 active torsions:
REMARK  status: ('A' for Active; 'I' for Inactive)
REMARK    1  A    between atoms: C_2  and  C_3
REMARK    2  A    between atoms: C_6  and  N_7
REMARK    3  A    between atoms: C_8  and  C_10
REMARK    4  A    between atoms: C_15  and  N_16
REMARK                            x       y       z     vdW  Elec       q    Type
REMARK                         _______ _______ _______ _____ _____    ______ ____
ROOT
ATOM      1  N   UNL     1      16.773  10.462  35.755  0.00  0.00    +0.000 NA
ATOM      2  C   UNL     1      17.397  11.291  36.724  0.00  0.00    +0.000 C 
ATOM      3  O   UNL     1      17.487  12.511  36.450  0.00  0.00    +0.000 OA
ENDROOT
BRANCH   2   4
ATOM      4  C   UNL     1      17.918  10.789  37.984  0.00  0.00    +0.000 A 
ATOM      5  C   UNL     1      19.231  11.018  38.381  0.00  0.00    +0.000 A 
ATOM      6  C   UNL     1      19.678  10.521  39.589  0.00  0.00    +0.000 A 
ATOM      7  C   UNL     1      18.827   9.804  40.397  0.00  0.00    +0.000 A 
ATOM      8  C   UNL     1      19.279   9.257  41.705  0.00  0.00    +0.000 C 
ATOM      9  C   UNL     1      17.517   9.577  40.002  0.00  0.00    +0.000 A 
ATOM     10  C   UNL     1      17.090  10.073  38.806  0.00  0.00    +0.000 A 
BRANCH   9  11
ATOM     11  N   UNL     1      16.675   8.837  40.860  0.00  0.00    +0.000 N 
ATOM     12  O   UNL     1      15.922   9.436  41.638  0.00  0.00    +0.000 OA
ATOM     13  O   UNL     1      16.689   7.472  40.835  0.00  0.00    +0.000 OA
ENDBRANCH   9  11
ENDBRANCH   2   4
BRANCH   1  17
ATOM     14  C   UNL     1      15.288  11.941  32.059  0.00  0.00    +0.000 A 
ATOM     15  C   UNL     1      16.312  11.017  32.108  0.00  0.00    +0.000 A 
ATOM     16  C   UNL     1      16.792  10.537  33.326  0.00  0.00    +0.000 A 
ATOM     17  C   UNL     1      16.266  10.964  34.525  0.00  0.00    +0.000 A 
ATOM     18  C   UNL     1      15.243  11.888  34.472  0.00  0.00    +0.000 A 
ATOM     19  C   UNL     1      14.764  12.367  33.264  0.00  0.00    +0.000 A 
BRANCH  14  21
ATOM     20  C   UNL     1      13.764  13.559  30.976  0.00  0.00    +0.000 C 
ATOM     21  C   UNL     1      14.766  12.462  30.757  0.00  0.00    +0.000 C 
ENDBRANCH  14  21
ENDBRANCH   1  17
TORSDOF 4
ENDMDL
MODEL 3
REMARK VINA RESULT:      -7.2      3.271      8.377
REMARK  Name = 
REMARK  4 active torsions:
REMARK  status: ('A' for Active; 'I' for Inactive)
REMARK    1  A    between atoms: C_2  and  C_3
REMARK    2  A    between atoms: C_6  and  N_7
REMARK    3  A    between atoms: C_8  and  C_10
REMARK    4  A    between atoms: C_15  and  N_16
REMARK                            x       y       z     vdW  Elec       q    Type
REMARK                         _______ _______ _______ _____ _____    ______ ____
ROOT
ATOM      1  N   UNL     1      16.493  10.506  35.809  0.00  0.00    +0.000 NA
ATOM      2  C   UNL     1      17.195  11.249  36.793  0.00  0.00    +0.000 C 
ATOM      3  O   UNL     1      17.488  12.434  36.504  0.00  0.00    +0.000 OA
ENDROOT
BRANCH   2   4
ATOM      4  C   UNL     1      17.576  10.702  38.084  0.00  0.00    +0.000 A 
ATOM      5  C   UNL     1      16.665  10.044  38.903  0.00  0.00    +0.000 A 
ATOM      6  C   UNL     1      17.077   9.541  40.120  0.00  0.00    +0.000 A 
ATOM      7  C   UNL     1      18.384   9.688  40.521  0.00  0.00    +0.000 A 
ATOM      8  C   UNL     1      18.858   9.156  41.827  0.00  0.00    +0.000 C 
ATOM      9  C   UNL     1      19.294  10.344  39.704  0.00  0.00    +0.000 A 
ATOM     10  C   UNL     1      18.872  10.836  38.505  0.00  0.00    +0.000 A 
BRANCH   9  11
ATOM     11  N   UNL     1      20.627  10.473  40.151  0.00  0.00    +0.000 N 
ATOM     12  O   UNL     1      20.955  11.473  40.801  0.00  0.00    +0.000 OA
ATOM     13  O   UNL     1      21.547   9.505  39.870  0.00  0.00    +0.000 OA
ENDBRANCH   9  11
ENDBRANCH   2   4
BRANCH   1  17
ATOM     14  C   UNL     1      15.428  12.118  32.025  0.00  0.00    +0.000 A 
ATOM     15  C   UNL     1      16.422  11.170  32.151  0.00  0.00    +0.000 A 
ATOM     16  C   UNL     1      16.764  10.647  33.397  0.00  0.00    +0.000 A 
ATOM     17  C   UNL     1      16.126  11.053  34.549  0.00  0.00    +0.000 A 
ATOM     18  C   UNL     1      15.133  12.001  34.418  0.00  0.00    +0.000 A 
ATOM     19  C   UNL     1      14.790  12.523  33.181  0.00  0.00    +0.000 A 
BRANCH  14  21
ATOM     20  C   UNL     1      16.076  13.678  30.220  0.00  0.00    +0.000 C 
ATOM     21  C   UNL     1      15.053  12.686  30.692  0.00  0.00    +0.000 C 
ENDBRANCH  14  21
ENDBRANCH   1  17
TORSDOF 4
ENDMDL
MODEL 4
REMARK VINA RESULT:      -7.1     20.714     22.996
REMARK  Name = 
REMARK  4 active torsions:
REMARK  status: ('A' for Active; 'I' for Inactive)
REMARK    1  A    between atoms: C_2  and  C_3
REMARK    2  A    between atoms: C_6  and  N_7
REMARK    3  A    between atoms: C_8  and  C_10
REMARK    4  A    between atoms: C_15  and  N_16
REMARK                            x       y       z     vdW  Elec       q    Type
REMARK                         _______ _______ _______ _____ _____    ______ ____
ROOT
ATOM      1  N   UNL     1      33.704  -0.246  33.984  0.00  0.00    +0.000 NA
ATOM      2  C   UNL     1      32.764  -1.088  34.635  0.00  0.00    +0.000 C 
ATOM      3  O   UNL     1      31.947  -0.532  35.407  0.00  0.00    +0.000 OA
ENDROOT
BRANCH   2   4
ATOM      4  C   UNL     1      32.718  -2.528  34.445  0.00  0.00    +0.000 A 
ATOM      5  C   UNL     1      32.052  -3.367  35.330  0.00  0.00    +0.000 A 
ATOM      6  C   UNL     1      32.036  -4.729  35.104  0.00  0.00    +0.000 A 
ATOM      7  C   UNL     1      32.677  -5.252  34.005  0.00  0.00    +0.000 A 
ATOM      8  C   UNL     1      32.677  -6.715  33.734  0.00  0.00    +0.000 C 
ATOM      9  C   UNL     1      33.341  -4.415  33.121  0.00  0.00    +0.000 A 
ATOM     10  C   UNL     1      33.348  -3.073  33.357  0.00  0.00    +0.000 A 
BRANCH   9  11
ATOM     11  N   UNL     1      33.985  -4.992  32.004  0.00  0.00    +0.000 N 
ATOM     12  O   UNL     1      35.116  -5.474  32.138  0.00  0.00    +0.000 OA
ATOM     13  O   UNL     1      33.366  -5.019  30.788  0.00  0.00    +0.000 OA
ENDBRANCH   9  11
ENDBRANCH   2   4
BRANCH   1  17
ATOM     14  C   UNL     1      33.803   3.967  34.525  0.00  0.00    +0.000 A 
ATOM     15  C   UNL     1      33.579   3.403  33.285  0.00  0.00    +0.000 A 
ATOM     16  C   UNL     1      33.548   2.020  33.118  0.00  0.00    +0.000 A 
ATOM     17  C   UNL     1      33.739   1.162  34.179  0.00  0.00    +0.000 A 
ATOM     18  C   UNL     1      33.962   1.729  35.417  0.00  0.00    +0.000 A 
ATOM     19  C   UNL     1      33.993   3.104  35.586  0.00  0.00    +0.000 A 
BRANCH  14  21
ATOM     20  C   UNL     1      35.234   5.927  34.996  0.00  0.00    +0.000 C 
ATOM     21  C   UNL     1      33.838   5.451  34.715  0.00  0.00    +0.000 C 
ENDBRANCH  14  21
ENDBRANCH   1  17
TORSDOF 4
ENDMDL
MODEL 5
REMARK VINA RESULT:      -7.0      5.813      8.419
REMARK  Name = 
REMARK  4 active torsions:
REMARK  status: ('A' for Active; 'I' for Inactive)
REMARK    1  A    between atoms: C_2  and  C_3
REMARK    2  A    between atoms: C_6  and  N_7
REMARK    3  A    between atoms: C_8  and  C_10
REMARK    4  A    between atoms: C_15  and  N_16
REMARK                            x       y       z     vdW  Elec       q    Type
REMARK                         _______ _______ _______ _____ _____    ______ ____
ROOT
ATOM      1  N   UNL     1      19.637  11.199  37.818  0.00  0.00    +0.000 NA
ATOM      2  C   UNL     1      20.382  10.318  36.993  0.00  0.00    +0.000 C 
ATOM      3  O   UNL     1      19.729   9.591  36.207  0.00  0.00    +0.000 OA
ENDROOT
BRANCH   2   4
ATOM      4  C   UNL     1      21.833  10.229  37.026  0.00  0.00    +0.000 A 
ATOM      5  C   UNL     1      22.516   9.133  36.513  0.00  0.00    +0.000 A 
ATOM      6  C   UNL     1      23.895   9.097  36.567  0.00  0.00    +0.000 A 
ATOM      7  C   UNL     1      24.589  10.144  37.127  0.00  0.00    +0.000 A 
ATOM      8  C   UNL     1      26.076  10.135  37.199  0.00  0.00    +0.000 C 
ATOM      9  C   UNL     1      23.908  11.239  37.638  0.00  0.00    +0.000 A 
ATOM     10  C   UNL     1      22.547  11.260  37.577  0.00  0.00    +0.000 A 
BRANCH   9  11
ATOM     11  N   UNL     1      24.659  12.294  38.202  0.00  0.00    +0.000 N 
ATOM     12  O   UNL     1      25.002  13.244  37.489  0.00  0.00    +0.000 OA
ATOM     13  O   UNL     1      25.003  12.267  39.523  0.00  0.00    +0.000 OA
ENDBRANCH   9  11
ENDBRANCH   2   4
BRANCH   1  17
ATOM     14  C   UNL     1      15.400  11.466  37.670  0.00  0.00    +0.000 A 
ATOM     15  C   UNL     1      16.203  12.373  37.010  0.00  0.00    +0.000 A 
ATOM     16  C   UNL     1      17.593  12.277  37.064  0.00  0.00    +0.000 A 
ATOM     17  C   UNL     1      18.218  11.277  37.776  0.00  0.00    +0.000 A 
ATOM     18  C   UNL     1      17.411  10.372  38.434  0.00  0.00    +0.000 A 
ATOM     19  C   UNL     1      16.030  10.464  38.382  0.00  0.00    +0.000 A 
BRANCH  14  21
ATOM     20  C   UNL     1      13.278  10.817  38.760  0.00  0.00    +0.000 C 
ATOM     21  C   UNL     1      13.907  11.560  37.618  0.00  0.00    +0.000 C 
ENDBRANCH  14  21
ENDBRANCH   1  17
TORSDOF 4
ENDMDL
MODEL 6
REMARK VINA RESULT:      -6.9      5.191      8.548
REMARK  Name = 
REMARK  4 active torsions:
REMARK  status: ('A' for Active; 'I' for Inactive)
REMARK    1  A    between atoms: C_2  and  C_3
REMARK    2  A    between atoms: C_6  and  N_7
REMARK    3  A    between atoms: C_8  and  C_10
REMARK    4  A    between atoms: C_15  and  N_16
REMARK                            x       y       z     vdW  Elec       q    Type
REMARK                         _______ _______ _______ _____ _____    ______ ____
ROOT
ATOM      1  N   UNL     1      18.826  11.159  37.704  0.00  0.00    +0.000 NA
ATOM      2  C   UNL     1      19.529  10.137  37.014  0.00  0.00    +0.000 C 
ATOM      3  O   UNL     1      18.900   9.522  36.121  0.00  0.00    +0.000 OA
ENDROOT
BRANCH   2   4
ATOM      4  C   UNL     1      20.911   9.789  37.299  0.00  0.00    +0.000 A 
ATOM      5  C   UNL     1      21.885   9.771  36.308  0.00  0.00    +0.000 A 
ATOM      6  C   UNL     1      23.185   9.435  36.630  0.00  0.00    +0.000 A 
ATOM      7  C   UNL     1      23.514   9.120  37.927  0.00  0.00    +0.000 A 
ATOM      8  C   UNL     1      24.906   8.754  38.305  0.00  0.00    +0.000 C 
ATOM      9  C   UNL     1      22.542   9.138  38.917  0.00  0.00    +0.000 A 
ATOM     10  C   UNL     1      21.264   9.472  38.584  0.00  0.00    +0.000 A 
BRANCH   9  11
ATOM     11  N   UNL     1      22.921   8.809  40.237  0.00  0.00    +0.000 N 
ATOM     12  O   UNL     1      22.833   7.637  40.620  0.00  0.00    +0.000 OA
ATOM     13  O   UNL     1      23.381   9.775  41.084  0.00  0.00    +0.000 OA
ENDBRANCH   9  11
ENDBRANCH   2   4
BRANCH   1  17
ATOM     14  C   UNL     1      14.798  12.181  36.820  0.00  0.00    +0.000 A 
ATOM     15  C   UNL     1      15.857  12.860  36.250  0.00  0.00    +0.000 A 
ATOM     16  C   UNL     1      17.175  12.516  36.546  0.00  0.00    +0.000 A 
ATOM     17  C   UNL     1      17.474  11.491  37.416  0.00  0.00    +0.000 A 
ATOM     18  C   UNL     1      16.413  10.816  37.983  0.00  0.00    +0.000 A 
ATOM     19  C   UNL     1      15.102  11.154  37.691  0.00  0.00    +0.000 A 
BRANCH  14  21
ATOM     20  C   UNL     1      12.423  11.578  37.149  0.00  0.00    +0.000 C 
ATOM     21  C   UNL     1      13.379  12.542  36.508  0.00  0.00    +0.000 C 
ENDBRANCH  14  21
ENDBRANCH   1  17
TORSDOF 4
ENDMDL
MODEL 7
REMARK VINA RESULT:      -6.8     19.789     21.768
REMARK  Name = 
REMARK  4 active torsions:
REMARK  status: ('A' for Active; 'I' for Inactive)
REMARK    1  A    between atoms: C_2  and  C_3
REMARK    2  A    between atoms: C_6  and  N_7
REMARK    3  A    between atoms: C_8  and  C_10
REMARK    4  A    between atoms: C_15  and  N_16
REMARK                            x       y       z     vdW  Elec       q    Type
REMARK                         _______ _______ _______ _____ _____    ______ ____
ROOT
ATOM      1  N   UNL     1      33.446   1.071  35.160  0.00  0.00    +0.000 NA
ATOM      2  C   UNL     1      33.583   2.129  34.223  0.00  0.00    +0.000 C 
ATOM      3  O   UNL     1      33.569   1.814  33.010  0.00  0.00    +0.000 OA
ENDROOT
BRANCH   2   4
ATOM      4  C   UNL     1      33.737   3.521  34.611  0.00  0.00    +0.000 A 
ATOM      5  C   UNL     1      32.992   4.536  34.021  0.00  0.00    +0.000 A 
ATOM      6  C   UNL     1      33.174   5.843  34.425  0.00  0.00    +0.000 A 
ATOM      7  C   UNL     1      34.088   6.140  35.409  0.00  0.00    +0.000 A 
ATOM      8  C   UNL     1      34.306   7.539  35.866  0.00  0.00    +0.000 C 
ATOM      9  C   UNL     1      34.831   5.127  35.998  0.00  0.00    +0.000 A 
ATOM     10  C   UNL     1      34.641   3.841  35.589  0.00  0.00    +0.000 A 
BRANCH   9  11
ATOM     11  N   UNL     1      35.758   5.473  37.005  0.00  0.00    +0.000 N 
ATOM     12  O   UNL     1      35.396   5.480  38.188  0.00  0.00    +0.000 OA
ATOM     13  O   UNL     1      37.043   5.797  36.679  0.00  0.00    +0.000 OA
ENDBRANCH   9  11
ENDBRANCH   2   4
BRANCH   1  17
ATOM     14  C   UNL     1      32.966  -2.993  34.016  0.00  0.00    +0.000 A 
ATOM     15  C   UNL     1      32.101  -2.386  34.905  0.00  0.00    +0.000 A 
ATOM     16  C   UNL     1      32.267  -1.052  35.273  0.00  0.00    +0.000 A 
ATOM     17  C   UNL     1      33.296  -0.288  34.768  0.00  0.00    +0.000 A 
ATOM     18  C   UNL     1      34.158  -0.898  33.881  0.00  0.00    +0.000 A 
ATOM     19  C   UNL     1      33.997  -2.224  33.512  0.00  0.00    +0.000 A 
BRANCH  14  21
ATOM     20  C   UNL     1      33.505  -4.710  32.321  0.00  0.00    +0.000 C 
ATOM     21  C   UNL     1      32.797  -4.424  33.614  0.00  0.00    +0.000 C 
ENDBRANCH  14  21
ENDBRANCH   1  17
TORSDOF 4
ENDMDL
MODEL 8
REMARK VINA RESULT:      -6.7     20.139     22.271
REMARK  Name = 
REMARK  4 active torsions:
REMARK  status: ('A' for Active; 'I' for Inactive)
REMARK    1  A    between atoms: C_2  and  C_3
REMARK    2  A    between atoms: C_6  and  N_7
REMARK    3  A    between atoms: C_8  and  C_10
REMARK    4  A    between atoms: C_15  and  N_16
REMARK                            x       y       z     vdW  Elec       q    Type
REMARK                         _______ _______ _______ _____ _____    ______ ____
ROOT
ATOM      1  N   UNL     1      32.783  -0.636  34.181  0.00  0.00    +0.000 NA
ATOM      2  C   UNL     1      33.734   0.170  34.860  0.00  0.00    +0.000 C 
ATOM      3  O   UNL     1      34.607  -0.429  35.531  0.00  0.00    +0.000 OA
ENDROOT
BRANCH   2   4
ATOM      4  C   UNL     1      33.731   1.623  34.805  0.00  0.00    +0.000 A 
ATOM      5  C   UNL     1      33.454   2.315  33.633  0.00  0.00    +0.000 A 
ATOM      6  C   UNL     1      33.462   3.695  33.633  0.00  0.00    +0.000 A 
ATOM      7  C   UNL     1      33.742   4.382  34.791  0.00  0.00    +0.000 A 
ATOM      8  C   UNL     1      33.758   5.870  34.823  0.00  0.00    +0.000 C 
ATOM      9  C   UNL     1      34.018   3.691  35.962  0.00  0.00    +0.000 A 
ATOM     10  C   UNL     1      34.007   2.329  35.946  0.00  0.00    +0.000 A 
BRANCH   9  11
ATOM     11  N   UNL     1      34.300   4.434  37.129  0.00  0.00    +0.000 N 
ATOM     12  O   UNL     1      33.393   4.661  37.939  0.00  0.00    +0.000 OA
ATOM     13  O   UNL     1      35.562   4.899  37.365  0.00  0.00    +0.000 OA
ENDBRANCH   9  11
ENDBRANCH   2   4
BRANCH   1  17
ATOM     14  C   UNL     1      32.849  -4.882  34.329  0.00  0.00    +0.000 A 
ATOM     15  C   UNL     1      33.588  -4.180  33.398  0.00  0.00    +0.000 A 
ATOM     16  C   UNL     1      33.560  -2.787  33.357  0.00  0.00    +0.000 A 
ATOM     17  C   UNL     1      32.797  -2.057  34.242  0.00  0.00    +0.000 A 
ATOM     18  C   UNL     1      32.060  -2.761  35.171  0.00  0.00    +0.000 A 
ATOM     19  C   UNL     1      32.086  -4.146  35.214  0.00  0.00    +0.000 A 
BRANCH  14  21
ATOM     20  C   UNL     1      32.651  -6.969  33.019  0.00  0.00    +0.000 C 
ATOM     21  C   UNL     1      32.873  -6.377  34.381  0.00  0.00    +0.000 C 
ENDBRANCH  14  21
ENDBRANCH   1  17
TORSDOF 4
ENDMDL
MODEL 9
REMARK VINA RESULT:      -6.5     19.466     21.694
REMARK  Name = 
REMARK  4 active torsions:
REMARK  status: ('A' for Active; 'I' for Inactive)
REMARK    1  A    between atoms: C_2  and  C_3
REMARK    2  A    between atoms: C_6  and  N_7
REMARK    3  A    between atoms: C_8  and  C_10
REMARK    4  A    between atoms: C_15  and  N_16
REMARK                            x       y       z     vdW  Elec       q    Type
REMARK                         _______ _______ _______ _____ _____    ______ ____
ROOT
ATOM      1  N   UNL     1      30.011  21.954  27.073  0.00  0.00    +0.000 NA
ATOM      2  C   UNL     1      30.564  22.832  28.041  0.00  0.00    +0.000 C 
ATOM      3  O   UNL     1      30.299  24.051  27.916  0.00  0.00    +0.000 OA
ENDROOT
BRANCH   2   4
ATOM      4  C   UNL     1      31.402  22.381  29.139  0.00  0.00    +0.000 A 
ATOM      5  C   UNL     1      32.690  21.902  28.933  0.00  0.00    +0.000 A 
ATOM      6  C   UNL     1      33.447  21.486  30.010  0.00  0.00    +0.000 A 
ATOM      7  C   UNL     1      32.928  21.547  31.282  0.00  0.00    +0.000 A 
ATOM      8  C   UNL     1      33.719  21.107  32.463  0.00  0.00    +0.000 C 
ATOM      9  C   UNL     1      31.642  22.026  31.488  0.00  0.00    +0.000 A 
ATOM     10  C   UNL     1      30.907  22.432  30.415  0.00  0.00    +0.000 A 
BRANCH   9  11
ATOM     11  N   UNL     1      31.147  22.073  32.809  0.00  0.00    +0.000 N 
ATOM     12  O   UNL     1      30.459  21.137  33.234  0.00  0.00    +0.000 OA
ATOM     13  O   UNL     1      31.423  23.142  33.612  0.00  0.00    +0.000 OA
ENDBRANCH   9  11
ENDBRANCH   2   4
BRANCH   1  17
ATOM     14  C   UNL     1      27.598  23.315  23.851  0.00  0.00    +0.000 A 
ATOM     15  C   UNL     1      28.962  23.153  23.713  0.00  0.00    +0.000 A 
ATOM     16  C   UNL     1      29.744  22.705  24.776  0.00  0.00    +0.000 A 
ATOM     17  C   UNL     1      29.191  22.408  26.002  0.00  0.00    +0.000 A 
ATOM     18  C   UNL     1      27.829  22.572  26.136  0.00  0.00    +0.000 A 
ATOM     19  C   UNL     1      27.047  23.016  25.082  0.00  0.00    +0.000 A 
BRANCH  14  21
ATOM     20  C   UNL     1      27.536  24.667  21.782  0.00  0.00    +0.000 C 
ATOM     21  C   UNL     1      26.748  23.795  22.716  0.00  0.00    +0.000 C 
ENDBRANCH  14  21
ENDBRANCH   1  17
TORSDOF 4
ENDMDL
MODEL 10
REMARK VINA RESULT:      -6.4     23.119     24.353
REMARK  Name = 
REMARK  4 active torsions:
REMARK  status: ('A' for Active; 'I' for Inactive)
REMARK    1  A    between atoms: C_2  and  C_3
REMARK    2  A    between atoms: C_6  and  N_7
REMARK    3  A    between atoms: C_8  and  C_10
REMARK    4  A    between atoms: C_15  and  N_16
REMARK                            x       y       z     vdW  Elec       q    Type
REMARK                         _______ _______ _______ _____ _____    ______ ____
ROOT
ATOM      1  N   UNL     1      22.902  -8.317  24.411  0.00  0.00    +0.000 NA
ATOM      2  C   UNL     1      22.393  -7.199  25.121  0.00  0.00    +0.000 C 
ATOM      3  O   UNL     1      23.187  -6.252  25.329  0.00  0.00    +0.000 OA
ENDROOT
BRANCH   2   4
ATOM      4  C   UNL     1      21.023  -7.116  25.602  0.00  0.00    +0.000 A 
ATOM      5  C   UNL     1      20.333  -5.911  25.655  0.00  0.00    +0.000 A 
ATOM      6  C   UNL     1      19.033  -5.885  26.118  0.00  0.00    +0.000 A 
ATOM      7  C   UNL     1      18.423  -7.049  26.525  0.00  0.00    +0.000 A 
ATOM      8  C   UNL     1      17.023  -7.054  27.028  0.00  0.00    +0.000 C 
ATOM      9  C   UNL     1      19.112  -8.252  26.471  0.00  0.00    +0.000 A 
ATOM     10  C   UNL     1      20.394  -8.262  26.011  0.00  0.00    +0.000 A 
BRANCH   9  11
ATOM     11  N   UNL     1      18.449  -9.424  26.896  0.00  0.00    +0.000 N 
ATOM     12  O   UNL     1      17.844 -10.115  26.068  0.00  0.00    +0.000 OA
ATOM     13  O   UNL     1      18.475  -9.794  28.210  0.00  0.00    +0.000 OA
ENDBRANCH   9  11
ENDBRANCH   2   4
BRANCH   1  17
ATOM     14  C   UNL     1      26.916  -8.560  23.042  0.00  0.00    +0.000 A 
ATOM     15  C   UNL     1      26.353  -9.560  23.808  0.00  0.00    +0.000 A 
ATOM     16  C   UNL     1      25.035  -9.472  24.252  0.00  0.00    +0.000 A 
ATOM     17  C   UNL     1      24.244  -8.386  23.946  0.00  0.00    +0.000 A 
ATOM     18  C   UNL     1      24.810  -7.388  23.180  0.00  0.00    +0.000 A 
ATOM     19  C   UNL     1      26.120  -7.474  22.737  0.00  0.00    +0.000 A 
BRANCH  14  21
ATOM     20  C   UNL     1      28.790  -7.333  21.994  0.00  0.00    +0.000 C 
ATOM     21  C   UNL     1      28.331  -8.646  22.560  0.00  0.00    +0.000 C 
ENDBRANCH  14  21
ENDBRANCH   1  17
TORSDOF 4
ENDMDL
