MODEL 1
REMARK VINA RESULT:      -7.1      0.000      0.000
REMARK  Name = 
REMARK  8 active torsions:
REMARK  status: ('A' for Active; 'I' for Inactive)
REMARK    1  A    between atoms: C_2  and  N_3
REMARK    2  A    between atoms: C_2  and  C_25
REMARK    3  A    between atoms: N_3  and  N_4
REMARK    4  A    between atoms: C_5  and  C_7
REMARK    5  A    between atoms: C_10  and  C_11
REMARK    6  A    between atoms: C_11  and  O_12
REMARK    7  A    between atoms: O_12  and  C_13
REMARK    8  A    between atoms: C_19  and  C_20
REMARK                            x       y       z     vdW  Elec       q    Type
REMARK                         _______ _______ _______ _____ _____    ______ ____
ROOT
ATOM      1  C   UNL     1      38.028   3.908  15.985  0.00  0.00    +0.000 A 
ATOM      2  C   UNL     1      36.699   3.535  15.837  0.00  0.00    +0.000 A 
ATOM      3  C   UNL     1      36.379   2.509  14.977  0.00  0.00    +0.000 A 
ATOM      4  C   UNL     1      37.334   1.841  14.259  0.00  0.00    +0.000 A 
ATOM      5  C   UNL     1      38.636   2.227  14.421  0.00  0.00    +0.000 A 
ATOM      6  C   UNL     1      38.989   3.257  15.280  0.00  0.00    +0.000 A 
ENDROOT
BRANCH   1   8
ATOM      7  N   UNL     1      38.920   4.788  18.164  0.00  0.00    +0.000 NA
ATOM      8  C   UNL     1      38.318   5.000  16.908  0.00  0.00    +0.000 C 
ATOM      9  O   UNL     1      38.021   6.163  16.564  0.00  0.00    +0.000 OA
BRANCH   7  10
ATOM     10  N   UNL     1      39.225   5.781  19.088  0.00  0.00    +0.000 NA
BRANCH  10  12
ATOM     11  C   UNL     1      41.163   6.332  20.310  0.00  0.00    +0.000 C 
ATOM     12  C   UNL     1      40.536   6.317  19.135  0.00  0.00    +0.000 C 
BRANCH  12  13
ATOM     13  C   UNL     1      41.227   6.845  17.969  0.00  0.00    +0.000 A 
ATOM     14  C   UNL     1      42.442   6.430  17.470  0.00  0.00    +0.000 A 
ATOM     15  C   UNL     1      42.729   7.197  16.352  0.00  0.00    +0.000 A 
ATOM     16  C   UNL     1      41.653   8.054  16.225  0.00  0.00    +0.000 A 
ATOM     17  O   UNL     1      40.792   7.811  17.199  0.00  0.00    +0.000 OA
ENDBRANCH  12  13
ENDBRANCH  10  12
ENDBRANCH   7  10
ENDBRANCH   1   8
BRANCH   4  18
ATOM     18  C   UNL     1      36.975   0.751  13.348  0.00  0.00    +0.000 C 
BRANCH  18  19
ATOM     19  O   UNL     1      36.518  -0.347  14.112  0.00  0.00    +0.000 OA
BRANCH  19  20
ATOM     20  C   UNL     1      37.329  -1.022  15.013  0.00  0.00    +0.000 A 
ATOM     21  C   UNL     1      38.528  -1.550  14.606  0.00  0.00    +0.000 A 
ATOM     22  C   UNL     1      39.362  -2.232  15.489  0.00  0.00    +0.000 A 
ATOM     23  C   UNL     1      40.663  -2.802  15.033  0.00  0.00    +0.000 C 
ATOM     24  C   UNL     1      38.922  -2.350  16.787  0.00  0.00    +0.000 A 
ATOM     25  C   UNL     1      37.724  -1.837  17.243  0.00  0.00    +0.000 A 
ATOM     26  C   UNL     1      36.921  -1.161  16.321  0.00  0.00    +0.000 A 
BRANCH  26  27
ATOM     27  C   UNL     1      35.620  -0.578  16.715  0.00  0.00    +0.000 C 
ATOM     28  C   UNL     1      34.615  -1.637  17.099  0.00  0.00    +0.000 C 
ATOM     29  C   UNL     1      35.784   0.373  17.879  0.00  0.00    +0.000 C 
ENDBRANCH  26  27
ENDBRANCH  19  20
ENDBRANCH  18  19
ENDBRANCH   4  18
TORSDOF 8
ENDMDL
MODEL 2
REMARK VINA RESULT:      -6.9      2.938      9.468
REMARK  Name = 
REMARK  8 active torsions:
REMARK  status: ('A' for Active; 'I' for Inactive)
REMARK    1  A    between atoms: C_2  and  N_3
REMARK    2  A    between atoms: C_2  and  C_25
REMARK    3  A    between atoms: N_3  and  N_4
REMARK    4  A    between atoms: C_5  and  C_7
REMARK    5  A    between atoms: C_10  and  C_11
REMARK    6  A    between atoms: C_11  and  O_12
REMARK    7  A    between atoms: O_12  and  C_13
REMARK    8  A    between atoms: C_19  and  C_20
REMARK                            x       y       z     vdW  Elec       q    Type
REMARK                         _______ _______ _______ _____ _____    ______ ____
ROOT
ATOM      1  C   UNL     1      38.552   4.587  16.954  0.00  0.00    +0.000 A 
ATOM      2  C   UNL     1      38.687   4.768  18.324  0.00  0.00    +0.000 A 
ATOM      3  C   UNL     1      39.687   5.585  18.800  0.00  0.00    +0.000 A 
ATOM      4  C   UNL     1      40.559   6.227  17.964  0.00  0.00    +0.000 A 
ATOM      5  C   UNL     1      40.407   6.033  16.618  0.00  0.00    +0.000 A 
ATOM      6  C   UNL     1      39.408   5.217  16.108  0.00  0.00    +0.000 A 
ENDROOT
BRANCH   1   8
ATOM      7  N   UNL     1      36.905   2.726  17.322  0.00  0.00    +0.000 NA
ATOM      8  C   UNL     1      37.478   3.713  16.496  0.00  0.00    +0.000 C 
ATOM      9  O   UNL     1      37.057   3.850  15.329  0.00  0.00    +0.000 OA
BRANCH   7  10
ATOM     10  N   UNL     1      35.880   1.862  16.950  0.00  0.00    +0.000 NA
BRANCH  10  12
ATOM     11  C   UNL     1      35.957   0.049  15.447  0.00  0.00    +0.000 C 
ATOM     12  C   UNL     1      36.173   0.502  16.681  0.00  0.00    +0.000 C 
BRANCH  12  13
ATOM     13  C   UNL     1      36.697  -0.417  17.680  0.00  0.00    +0.000 A 
ATOM     14  C   UNL     1      36.151  -0.694  18.914  0.00  0.00    +0.000 A 
ATOM     15  C   UNL     1      36.967  -1.623  19.543  0.00  0.00    +0.000 A 
ATOM     16  C   UNL     1      37.984  -1.867  18.641  0.00  0.00    +0.000 A 
ATOM     17  O   UNL     1      37.785  -1.135  17.557  0.00  0.00    +0.000 OA
ENDBRANCH  12  13
ENDBRANCH  10  12
ENDBRANCH   7  10
ENDBRANCH   1   8
BRANCH   4  18
ATOM     18  C   UNL     1      41.618   7.094  18.488  0.00  0.00    +0.000 C 
BRANCH  18  19
ATOM     19  O   UNL     1      41.280   8.440  18.215  0.00  0.00    +0.000 OA
BRANCH  19  20
ATOM     20  C   UNL     1      40.867   9.324  19.201  0.00  0.00    +0.000 A 
ATOM     21  C   UNL     1      41.767   9.812  20.115  0.00  0.00    +0.000 A 
ATOM     22  C   UNL     1      41.380  10.701  21.115  0.00  0.00    +0.000 A 
ATOM     23  C   UNL     1      42.368  11.222  22.104  0.00  0.00    +0.000 C 
ATOM     24  C   UNL     1      40.053  11.064  21.140  0.00  0.00    +0.000 A 
ATOM     25  C   UNL     1      39.112  10.599  20.242  0.00  0.00    +0.000 A 
ATOM     26  C   UNL     1      39.547   9.709  19.257  0.00  0.00    +0.000 A 
BRANCH  26  27
ATOM     27  C   UNL     1      38.612   9.158  18.252  0.00  0.00    +0.000 C 
ATOM     28  C   UNL     1      37.398   8.526  18.891  0.00  0.00    +0.000 C 
ATOM     29  C   UNL     1      38.147  10.234  17.297  0.00  0.00    +0.000 C 
ENDBRANCH  26  27
ENDBRANCH  19  20
ENDBRANCH  18  19
ENDBRANCH   4  18
TORSDOF 8
ENDMDL
MODEL 3
REMARK VINA RESULT:      -6.8      1.861      2.180
REMARK  Name = 
REMARK  8 active torsions:
REMARK  status: ('A' for Active; 'I' for Inactive)
REMARK    1  A    between atoms: C_2  and  N_3
REMARK    2  A    between atoms: C_2  and  C_25
REMARK    3  A    between atoms: N_3  and  N_4
REMARK    4  A    between atoms: C_5  and  C_7
REMARK    5  A    between atoms: C_10  and  C_11
REMARK    6  A    between atoms: C_11  and  O_12
REMARK    7  A    between atoms: O_12  and  C_13
REMARK    8  A    between atoms: C_19  and  C_20
REMARK                            x       y       z     vdW  Elec       q    Type
REMARK                         _______ _______ _______ _____ _____    ______ ____
ROOT
ATOM      1  C   UNL     1      38.618   4.240  16.433  0.00  0.00    +0.000 A 
ATOM      2  C   UNL     1      37.375   3.767  16.833  0.00  0.00    +0.000 A 
ATOM      3  C   UNL     1      36.734   2.823  16.063  0.00  0.00    +0.000 A 
ATOM      4  C   UNL     1      37.284   2.334  14.909  0.00  0.00    +0.000 A 
ATOM      5  C   UNL     1      38.509   2.816  14.535  0.00  0.00    +0.000 A 
ATOM      6  C   UNL     1      39.179   3.766  15.291  0.00  0.00    +0.000 A 
ENDROOT
BRANCH   1   8
ATOM      7  N   UNL     1      38.823   5.506  18.594  0.00  0.00    +0.000 NA
ATOM      8  C   UNL     1      39.258   5.240  17.281  0.00  0.00    +0.000 C 
ATOM      9  O   UNL     1      40.226   5.878  16.819  0.00  0.00    +0.000 OA
BRANCH   7  10
ATOM     10  N   UNL     1      39.388   6.441  19.455  0.00  0.00    +0.000 NA
BRANCH  10  12
ATOM     11  C   UNL     1      38.759   8.272  20.799  0.00  0.00    +0.000 C 
ATOM     12  C   UNL     1      38.793   7.721  19.587  0.00  0.00    +0.000 C 
BRANCH  12  13
ATOM     13  C   UNL     1      38.224   8.458  18.469  0.00  0.00    +0.000 A 
ATOM     14  C   UNL     1      38.914   9.091  17.460  0.00  0.00    +0.000 A 
ATOM     15  C   UNL     1      37.987   9.668  16.604  0.00  0.00    +0.000 A 
ATOM     16  C   UNL     1      36.758   9.347  17.147  0.00  0.00    +0.000 A 
ATOM     17  O   UNL     1      36.945   8.633  18.245  0.00  0.00    +0.000 OA
ENDBRANCH  12  13
ENDBRANCH  10  12
ENDBRANCH   7  10
ENDBRANCH   1   8
BRANCH   4  18
ATOM     18  C   UNL     1      36.588   1.329  14.102  0.00  0.00    +0.000 C 
BRANCH  18  19
ATOM     19  O   UNL     1      36.137   0.295  14.954  0.00  0.00    +0.000 OA
BRANCH  19  20
ATOM     20  C   UNL     1      37.003  -0.549  15.633  0.00  0.00    +0.000 A 
ATOM     21  C   UNL     1      38.137  -1.018  15.018  0.00  0.00    +0.000 A 
ATOM     22  C   UNL     1      39.025  -1.866  15.676  0.00  0.00    +0.000 A 
ATOM     23  C   UNL     1      40.254  -2.369  14.996  0.00  0.00    +0.000 C 
ATOM     24  C   UNL     1      38.707  -2.210  16.969  0.00  0.00    +0.000 A 
ATOM     25  C   UNL     1      37.578  -1.765  17.628  0.00  0.00    +0.000 A 
ATOM     26  C   UNL     1      36.717  -0.916  16.928  0.00  0.00    +0.000 A 
BRANCH  26  27
ATOM     27  C   UNL     1      35.484  -0.388  17.550  0.00  0.00    +0.000 C 
ATOM     28  C   UNL     1      34.344  -1.377  17.481  0.00  0.00    +0.000 C 
ATOM     29  C   UNL     1      35.720  -0.028  19.000  0.00  0.00    +0.000 C 
ENDBRANCH  26  27
ENDBRANCH  19  20
ENDBRANCH  18  19
ENDBRANCH   4  18
TORSDOF 8
ENDMDL
MODEL 4
REMARK VINA RESULT:      -6.8      2.464      8.922
REMARK  Name = 
REMARK  8 active torsions:
REMARK  status: ('A' for Active; 'I' for Inactive)
REMARK    1  A    between atoms: C_2  and  N_3
REMARK    2  A    between atoms: C_2  and  C_25
REMARK    3  A    between atoms: N_3  and  N_4
REMARK    4  A    between atoms: C_5  and  C_7
REMARK    5  A    between atoms: C_10  and  C_11
REMARK    6  A    between atoms: C_11  and  O_12
REMARK    7  A    between atoms: O_12  and  C_13
REMARK    8  A    between atoms: C_19  and  C_20
REMARK                            x       y       z     vdW  Elec       q    Type
REMARK                         _______ _______ _______ _____ _____    ______ ____
ROOT
ATOM      1  C   UNL     1      38.353   4.977  17.107  0.00  0.00    +0.000 A 
ATOM      2  C   UNL     1      38.175   6.284  16.673  0.00  0.00    +0.000 A 
ATOM      3  C   UNL     1      38.584   7.323  17.478  0.00  0.00    +0.000 A 
ATOM      4  C   UNL     1      39.161   7.110  18.700  0.00  0.00    +0.000 A 
ATOM      5  C   UNL     1      39.325   5.813  19.107  0.00  0.00    +0.000 A 
ATOM      6  C   UNL     1      38.924   4.746  18.318  0.00  0.00    +0.000 A 
ENDROOT
BRANCH   1   8
ATOM      7  N   UNL     1      36.545   3.569  16.076  0.00  0.00    +0.000 NA
ATOM      8  C   UNL     1      37.905   3.910  16.220  0.00  0.00    +0.000 C 
ATOM      9  O   UNL     1      38.763   3.280  15.568  0.00  0.00    +0.000 OA
BRANCH   7  10
ATOM     10  N   UNL     1      36.051   2.566  15.249  0.00  0.00    +0.000 NA
BRANCH  10  12
ATOM     11  C   UNL     1      36.812   0.425  14.624  0.00  0.00    +0.000 C 
ATOM     12  C   UNL     1      36.297   1.208  15.570  0.00  0.00    +0.000 C 
BRANCH  12  13
ATOM     13  C   UNL     1      36.018   0.632  16.877  0.00  0.00    +0.000 A 
ATOM     14  C   UNL     1      35.034  -0.281  17.184  0.00  0.00    +0.000 A 
ATOM     15  C   UNL     1      35.120  -0.562  18.539  0.00  0.00    +0.000 A 
ATOM     16  C   UNL     1      36.173   0.209  18.994  0.00  0.00    +0.000 A 
ATOM     17  O   UNL     1      36.672   0.896  17.980  0.00  0.00    +0.000 OA
ENDBRANCH  12  13
ENDBRANCH  10  12
ENDBRANCH   7  10
ENDBRANCH   1   8
BRANCH   4  18
ATOM     18  C   UNL     1      39.589   8.228  19.544  0.00  0.00    +0.000 C 
BRANCH  18  19
ATOM     19  O   UNL     1      40.868   8.654  19.118  0.00  0.00    +0.000 OA
BRANCH  19  20
ATOM     20  C   UNL     1      42.031   7.963  19.426  0.00  0.00    +0.000 A 
ATOM     21  C   UNL     1      42.369   7.725  20.735  0.00  0.00    +0.000 A 
ATOM     22  C   UNL     1      43.529   7.033  21.073  0.00  0.00    +0.000 A 
ATOM     23  C   UNL     1      43.886   6.782  22.500  0.00  0.00    +0.000 C 
ATOM     24  C   UNL     1      44.318   6.602  20.031  0.00  0.00    +0.000 A 
ATOM     25  C   UNL     1      44.020   6.819  18.700  0.00  0.00    +0.000 A 
ATOM     26  C   UNL     1      42.845   7.517  18.409  0.00  0.00    +0.000 A 
BRANCH  26  27
ATOM     27  C   UNL     1      42.442   7.798  17.015  0.00  0.00    +0.000 C 
ATOM     28  C   UNL     1      43.560   8.422  16.214  0.00  0.00    +0.000 C 
ATOM     29  C   UNL     1      41.999   6.532  16.315  0.00  0.00    +0.000 C 
ENDBRANCH  26  27
ENDBRANCH  19  20
ENDBRANCH  18  19
ENDBRANCH   4  18
TORSDOF 8
ENDMDL
MODEL 5
REMARK VINA RESULT:      -6.7      2.679      9.275
REMARK  Name = 
REMARK  8 active torsions:
REMARK  status: ('A' for Active; 'I' for Inactive)
REMARK    1  A    between atoms: C_2  and  N_3
REMARK    2  A    between atoms: C_2  and  C_25
REMARK    3  A    between atoms: N_3  and  N_4
REMARK    4  A    between atoms: C_5  and  C_7
REMARK    5  A    between atoms: C_10  and  C_11
REMARK    6  A    between atoms: C_11  and  O_12
REMARK    7  A    between atoms: O_12  and  C_13
REMARK    8  A    between atoms: C_19  and  C_20
REMARK                            x       y       z     vdW  Elec       q    Type
REMARK                         _______ _______ _______ _____ _____    ______ ____
ROOT
ATOM      1  C   UNL     1      38.329   4.264  16.755  0.00  0.00    +0.000 A 
ATOM      2  C   UNL     1      39.199   4.838  15.839  0.00  0.00    +0.000 A 
ATOM      3  C   UNL     1      40.136   5.747  16.277  0.00  0.00    +0.000 A 
ATOM      4  C   UNL     1      40.238   6.105  17.593  0.00  0.00    +0.000 A 
ATOM      5  C   UNL     1      39.369   5.526  18.478  0.00  0.00    +0.000 A 
ATOM      6  C   UNL     1      38.415   4.608  18.066  0.00  0.00    +0.000 A 
ENDROOT
BRANCH   1   8
ATOM      7  N   UNL     1      37.731   2.146  15.542  0.00  0.00    +0.000 NA
ATOM      8  C   UNL     1      37.353   3.308  16.244  0.00  0.00    +0.000 C 
ATOM      9  O   UNL     1      36.141   3.532  16.441  0.00  0.00    +0.000 OA
BRANCH   7  10
ATOM     10  N   UNL     1      36.856   1.195  15.030  0.00  0.00    +0.000 NA
BRANCH  10  12
ATOM     11  C   UNL     1      36.879  -1.156  14.866  0.00  0.00    +0.000 C 
ATOM     12  C   UNL     1      36.769  -0.080  15.644  0.00  0.00    +0.000 C 
BRANCH  12  13
ATOM     13  C   UNL     1      36.570  -0.269  17.073  0.00  0.00    +0.000 A 
ATOM     14  C   UNL     1      35.563   0.268  17.844  0.00  0.00    +0.000 A 
ATOM     15  C   UNL     1      35.747  -0.166  19.148  0.00  0.00    +0.000 A 
ATOM     16  C   UNL     1      36.878  -0.959  19.101  0.00  0.00    +0.000 A 
ATOM     17  O   UNL     1      37.329  -0.991  17.858  0.00  0.00    +0.000 OA
ENDBRANCH  12  13
ENDBRANCH  10  12
ENDBRANCH   7  10
ENDBRANCH   1   8
BRANCH   4  18
ATOM     18  C   UNL     1      41.242   7.073  18.042  0.00  0.00    +0.000 C 
BRANCH  18  19
ATOM     19  O   UNL     1      41.074   7.291  19.430  0.00  0.00    +0.000 OA
BRANCH  19  20
ATOM     20  C   UNL     1      42.139   7.319  20.318  0.00  0.00    +0.000 A 
ATOM     21  C   UNL     1      42.714   6.149  20.747  0.00  0.00    +0.000 A 
ATOM     22  C   UNL     1      43.785   6.147  21.638  0.00  0.00    +0.000 A 
ATOM     23  C   UNL     1      44.400   4.868  22.098  0.00  0.00    +0.000 C 
ATOM     24  C   UNL     1      44.235   7.375  22.066  0.00  0.00    +0.000 A 
ATOM     25  C   UNL     1      43.688   8.577  21.663  0.00  0.00    +0.000 A 
ATOM     26  C   UNL     1      42.616   8.529  20.768  0.00  0.00    +0.000 A 
BRANCH  26  27
ATOM     27  C   UNL     1      41.965   9.764  20.280  0.00  0.00    +0.000 C 
ATOM     28  C   UNL     1      41.705  10.749  21.396  0.00  0.00    +0.000 C 
ATOM     29  C   UNL     1      42.813  10.443  19.228  0.00  0.00    +0.000 C 
ENDBRANCH  26  27
ENDBRANCH  19  20
ENDBRANCH  18  19
ENDBRANCH   4  18
TORSDOF 8
ENDMDL
MODEL 6
REMARK VINA RESULT:      -6.7      3.609      9.553
REMARK  Name = 
REMARK  8 active torsions:
REMARK  status: ('A' for Active; 'I' for Inactive)
REMARK    1  A    between atoms: C_2  and  N_3
REMARK    2  A    between atoms: C_2  and  C_25
REMARK    3  A    between atoms: N_3  and  N_4
REMARK    4  A    between atoms: C_5  and  C_7
REMARK    5  A    between atoms: C_10  and  C_11
REMARK    6  A    between atoms: C_11  and  O_12
REMARK    7  A    between atoms: O_12  and  C_13
REMARK    8  A    between atoms: C_19  and  C_20
REMARK                            x       y       z     vdW  Elec       q    Type
REMARK                         _______ _______ _______ _____ _____    ______ ____
ROOT
ATOM      1  C   UNL     1      40.047   5.994  18.087  0.00  0.00    +0.000 A 
ATOM      2  C   UNL     1      41.318   6.259  17.593  0.00  0.00    +0.000 A 
ATOM      3  C   UNL     1      42.314   6.637  18.464  0.00  0.00    +0.000 A 
ATOM      4  C   UNL     1      42.093   6.762  19.809  0.00  0.00    +0.000 A 
ATOM      5  C   UNL     1      40.833   6.495  20.272  0.00  0.00    +0.000 A 
ATOM      6  C   UNL     1      39.809   6.112  19.419  0.00  0.00    +0.000 A 
ENDROOT
BRANCH   1   8
ATOM      7  N   UNL     1      38.274   4.413  17.268  0.00  0.00    +0.000 NA
ATOM      8  C   UNL     1      39.024   5.597  17.126  0.00  0.00    +0.000 C 
ATOM      9  O   UNL     1      38.811   6.339  16.145  0.00  0.00    +0.000 OA
BRANCH   7  10
ATOM     10  N   UNL     1      37.286   3.977  16.393  0.00  0.00    +0.000 NA
BRANCH  10  12
ATOM     11  C   UNL     1      38.064   2.276  14.960  0.00  0.00    +0.000 C 
ATOM     12  C   UNL     1      37.270   2.624  15.971  0.00  0.00    +0.000 C 
BRANCH  12  13
ATOM     13  C   UNL     1      36.435   1.604  16.586  0.00  0.00    +0.000 A 
ATOM     14  C   UNL     1      35.277   1.063  16.073  0.00  0.00    +0.000 A 
ATOM     15  C   UNL     1      34.804   0.126  16.979  0.00  0.00    +0.000 A 
ATOM     16  C   UNL     1      35.718   0.145  18.016  0.00  0.00    +0.000 A 
ATOM     17  O   UNL     1      36.662   1.030  17.742  0.00  0.00    +0.000 OA
ENDBRANCH  12  13
ENDBRANCH  10  12
ENDBRANCH   7  10
ENDBRANCH   1   8
BRANCH   4  18
ATOM     18  C   UNL     1      43.165   7.165  20.722  0.00  0.00    +0.000 C 
BRANCH  18  19
ATOM     19  O   UNL     1      43.145   6.312  21.850  0.00  0.00    +0.000 OA
BRANCH  19  20
ATOM     20  C   UNL     1      44.271   5.638  22.301  0.00  0.00    +0.000 A 
ATOM     21  C   UNL     1      44.875   4.693  21.510  0.00  0.00    +0.000 A 
ATOM     22  C   UNL     1      46.006   4.001  21.936  0.00  0.00    +0.000 A 
ATOM     23  C   UNL     1      46.652   2.975  21.067  0.00  0.00    +0.000 C 
ATOM     24  C   UNL     1      46.485   4.312  23.188  0.00  0.00    +0.000 A 
ATOM     25  C   UNL     1      45.912   5.254  24.019  0.00  0.00    +0.000 A 
ATOM     26  C   UNL     1      44.778   5.923  23.548  0.00  0.00    +0.000 A 
BRANCH  26  27
ATOM     27  C   UNL     1      44.095   6.948  24.366  0.00  0.00    +0.000 C 
ATOM     28  C   UNL     1      44.022   6.557  25.823  0.00  0.00    +0.000 C 
ATOM     29  C   UNL     1      44.798   8.282  24.261  0.00  0.00    +0.000 C 
ENDBRANCH  26  27
ENDBRANCH  19  20
ENDBRANCH  18  19
ENDBRANCH   4  18
TORSDOF 8
ENDMDL
MODEL 7
REMARK VINA RESULT:      -6.7      4.424      5.567
REMARK  Name = 
REMARK  8 active torsions:
REMARK  status: ('A' for Active; 'I' for Inactive)
REMARK    1  A    between atoms: C_2  and  N_3
REMARK    2  A    between atoms: C_2  and  C_25
REMARK    3  A    between atoms: N_3  and  N_4
REMARK    4  A    between atoms: C_5  and  C_7
REMARK    5  A    between atoms: C_10  and  C_11
REMARK    6  A    between atoms: C_11  and  O_12
REMARK    7  A    between atoms: O_12  and  C_13
REMARK    8  A    between atoms: C_19  and  C_20
REMARK                            x       y       z     vdW  Elec       q    Type
REMARK                         _______ _______ _______ _____ _____    ______ ____
ROOT
ATOM      1  C   UNL     1      35.423   4.220  14.048  0.00  0.00    +0.000 A 
ATOM      2  C   UNL     1      34.636   3.571  14.990  0.00  0.00    +0.000 A 
ATOM      3  C   UNL     1      34.970   2.295  15.384  0.00  0.00    +0.000 A 
ATOM      4  C   UNL     1      36.058   1.641  14.873  0.00  0.00    +0.000 A 
ATOM      5  C   UNL     1      36.818   2.300  13.946  0.00  0.00    +0.000 A 
ATOM      6  C   UNL     1      36.507   3.586  13.531  0.00  0.00    +0.000 A 
ENDROOT
BRANCH   1   8
ATOM      7  N   UNL     1      34.155   6.354  14.442  0.00  0.00    +0.000 NA
ATOM      8  C   UNL     1      35.030   5.571  13.663  0.00  0.00    +0.000 C 
ATOM      9  O   UNL     1      35.489   6.044  12.603  0.00  0.00    +0.000 OA
BRANCH   7  10
ATOM     10  N   UNL     1      33.741   7.646  14.134  0.00  0.00    +0.000 NA
BRANCH  10  12
ATOM     11  C   UNL     1      35.555   9.147  14.241  0.00  0.00    +0.000 C 
ATOM     12  C   UNL     1      34.386   8.751  14.742  0.00  0.00    +0.000 C 
BRANCH  12  13
ATOM     13  C   UNL     1      33.835   9.473  15.880  0.00  0.00    +0.000 A 
ATOM     14  C   UNL     1      33.111   8.941  16.923  0.00  0.00    +0.000 A 
ATOM     15  C   UNL     1      32.782   9.975  17.787  0.00  0.00    +0.000 A 
ATOM     16  C   UNL     1      33.335  11.104  17.212  0.00  0.00    +0.000 A 
ATOM     17  O   UNL     1      33.946  10.761  16.090  0.00  0.00    +0.000 OA
ENDBRANCH  12  13
ENDBRANCH  10  12
ENDBRANCH   7  10
ENDBRANCH   1   8
BRANCH   4  18
ATOM     18  C   UNL     1      36.399   0.282  15.303  0.00  0.00    +0.000 C 
BRANCH  18  19
ATOM     19  O   UNL     1      37.742   0.270  15.745  0.00  0.00    +0.000 OA
BRANCH  19  20
ATOM     20  C   UNL     1      38.510  -0.885  15.776  0.00  0.00    +0.000 A 
ATOM     21  C   UNL     1      38.178  -1.916  16.618  0.00  0.00    +0.000 A 
ATOM     22  C   UNL     1      38.931  -3.086  16.670  0.00  0.00    +0.000 A 
ATOM     23  C   UNL     1      38.559  -4.200  17.591  0.00  0.00    +0.000 C 
ATOM     24  C   UNL     1      40.023  -3.156  15.836  0.00  0.00    +0.000 A 
ATOM     25  C   UNL     1      40.397  -2.145  14.972  0.00  0.00    +0.000 A 
ATOM     26  C   UNL     1      39.611  -0.989  14.956  0.00  0.00    +0.000 A 
BRANCH  26  27
ATOM     27  C   UNL     1      39.932   0.147  14.065  0.00  0.00    +0.000 C 
ATOM     28  C   UNL     1      41.420   0.384  13.960  0.00  0.00    +0.000 C 
ATOM     29  C   UNL     1      39.383  -0.084  12.675  0.00  0.00    +0.000 C 
ENDBRANCH  26  27
ENDBRANCH  19  20
ENDBRANCH  18  19
ENDBRANCH   4  18
TORSDOF 8
ENDMDL
MODEL 8
REMARK VINA RESULT:      -6.6      1.659      3.125
REMARK  Name = 
REMARK  8 active torsions:
REMARK  status: ('A' for Active; 'I' for Inactive)
REMARK    1  A    between atoms: C_2  and  N_3
REMARK    2  A    between atoms: C_2  and  C_25
REMARK    3  A    between atoms: N_3  and  N_4
REMARK    4  A    between atoms: C_5  and  C_7
REMARK    5  A    between atoms: C_10  and  C_11
REMARK    6  A    between atoms: C_11  and  O_12
REMARK    7  A    between atoms: O_12  and  C_13
REMARK    8  A    between atoms: C_19  and  C_20
REMARK                            x       y       z     vdW  Elec       q    Type
REMARK                         _______ _______ _______ _____ _____    ______ ____
ROOT
ATOM      1  C   UNL     1      38.458   4.017  16.151  0.00  0.00    +0.000 A 
ATOM      2  C   UNL     1      38.664   3.195  15.051  0.00  0.00    +0.000 A 
ATOM      3  C   UNL     1      37.766   2.186  14.786  0.00  0.00    +0.000 A 
ATOM      4  C   UNL     1      36.671   1.965  15.575  0.00  0.00    +0.000 A 
ATOM      5  C   UNL     1      36.488   2.787  16.654  0.00  0.00    +0.000 A 
ATOM      6  C   UNL     1      37.376   3.812  16.946  0.00  0.00    +0.000 A 
ENDROOT
BRANCH   1   8
ATOM      7  N   UNL     1      39.728   5.548  17.686  0.00  0.00    +0.000 NA
ATOM      8  C   UNL     1      39.436   5.072  16.393  0.00  0.00    +0.000 C 
ATOM      9  O   UNL     1      40.031   5.565  15.413  0.00  0.00    +0.000 OA
BRANCH   7  10
ATOM     10  N   UNL     1      40.648   6.547  17.986  0.00  0.00    +0.000 NA
BRANCH  10  12
ATOM     11  C   UNL     1      40.097   7.091  20.212  0.00  0.00    +0.000 C 
ATOM     12  C   UNL     1      41.040   6.758  19.331  0.00  0.00    +0.000 C 
BRANCH  12  13
ATOM     13  C   UNL     1      42.413   6.627  19.795  0.00  0.00    +0.000 A 
ATOM     14  C   UNL     1      42.829   6.176  21.028  0.00  0.00    +0.000 A 
ATOM     15  C   UNL     1      44.215   6.210  21.050  0.00  0.00    +0.000 A 
ATOM     16  C   UNL     1      44.576   6.689  19.805  0.00  0.00    +0.000 A 
ATOM     17  O   UNL     1      43.482   6.920  19.098  0.00  0.00    +0.000 OA
ENDBRANCH  12  13
ENDBRANCH  10  12
ENDBRANCH   7  10
ENDBRANCH   1   8
BRANCH   4  18
ATOM     18  C   UNL     1      35.725   0.886  15.277  0.00  0.00    +0.000 C 
BRANCH  18  19
ATOM     19  O   UNL     1      36.453  -0.263  14.891  0.00  0.00    +0.000 OA
BRANCH  19  20
ATOM     20  C   UNL     1      37.231  -0.990  15.780  0.00  0.00    +0.000 A 
ATOM     21  C   UNL     1      36.853  -1.112  17.093  0.00  0.00    +0.000 A 
ATOM     22  C   UNL     1      37.615  -1.837  18.007  0.00  0.00    +0.000 A 
ATOM     23  C   UNL     1      37.193  -1.960  19.433  0.00  0.00    +0.000 C 
ATOM     24  C   UNL     1      38.764  -2.422  17.526  0.00  0.00    +0.000 A 
ATOM     25  C   UNL     1      39.185  -2.327  16.215  0.00  0.00    +0.000 A 
ATOM     26  C   UNL     1      38.388  -1.589  15.335  0.00  0.00    +0.000 A 
BRANCH  26  27
ATOM     27  C   UNL     1      38.757  -1.431  13.912  0.00  0.00    +0.000 C 
ATOM     28  C   UNL     1      40.071  -0.705  13.742  0.00  0.00    +0.000 C 
ATOM     29  C   UNL     1      38.859  -2.775  13.226  0.00  0.00    +0.000 C 
ENDBRANCH  26  27
ENDBRANCH  19  20
ENDBRANCH  18  19
ENDBRANCH   4  18
TORSDOF 8
ENDMDL
MODEL 9
REMARK VINA RESULT:      -6.6      2.780      9.602
REMARK  Name = 
REMARK  8 active torsions:
REMARK  status: ('A' for Active; 'I' for Inactive)
REMARK    1  A    between atoms: C_2  and  N_3
REMARK    2  A    between atoms: C_2  and  C_25
REMARK    3  A    between atoms: N_3  and  N_4
REMARK    4  A    between atoms: C_5  and  C_7
REMARK    5  A    between atoms: C_10  and  C_11
REMARK    6  A    between atoms: C_11  and  O_12
REMARK    7  A    between atoms: O_12  and  C_13
REMARK    8  A    between atoms: C_19  and  C_20
REMARK                            x       y       z     vdW  Elec       q    Type
REMARK                         _______ _______ _______ _____ _____    ______ ____
ROOT
ATOM      1  C   UNL     1      39.193   5.205  17.018  0.00  0.00    +0.000 A 
ATOM      2  C   UNL     1      39.007   5.143  18.393  0.00  0.00    +0.000 A 
ATOM      3  C   UNL     1      39.932   5.732  19.225  0.00  0.00    +0.000 A 
ATOM      4  C   UNL     1      41.036   6.379  18.739  0.00  0.00    +0.000 A 
ATOM      5  C   UNL     1      41.198   6.426  17.381  0.00  0.00    +0.000 A 
ATOM      6  C   UNL     1      40.282   5.843  16.518  0.00  0.00    +0.000 A 
ENDROOT
BRANCH   1   8
ATOM      7  N   UNL     1      38.016   3.168  16.133  0.00  0.00    +0.000 NA
ATOM      8  C   UNL     1      38.187   4.566  16.177  0.00  0.00    +0.000 C 
ATOM      9  O   UNL     1      37.454   5.291  15.474  0.00  0.00    +0.000 OA
BRANCH   7  10
ATOM     10  N   UNL     1      37.078   2.497  15.356  0.00  0.00    +0.000 NA
BRANCH  10  12
ATOM     11  C   UNL     1      34.802   2.636  15.949  0.00  0.00    +0.000 C 
ATOM     12  C   UNL     1      35.933   1.933  15.971  0.00  0.00    +0.000 C 
BRANCH  12  13
ATOM     13  C   UNL     1      35.932   0.630  16.620  0.00  0.00    +0.000 A 
ATOM     14  C   UNL     1      34.831  -0.088  17.030  0.00  0.00    +0.000 A 
ATOM     15  C   UNL     1      35.280  -1.271  17.597  0.00  0.00    +0.000 A 
ATOM     16  C   UNL     1      36.656  -1.210  17.499  0.00  0.00    +0.000 A 
ATOM     17  O   UNL     1      36.997  -0.073  16.917  0.00  0.00    +0.000 OA
ENDBRANCH  12  13
ENDBRANCH  10  12
ENDBRANCH   7  10
ENDBRANCH   1   8
BRANCH   4  18
ATOM     18  C   UNL     1      42.010   7.000  19.639  0.00  0.00    +0.000 C 
BRANCH  18  19
ATOM     19  O   UNL     1      41.410   8.125  20.251  0.00  0.00    +0.000 OA
BRANCH  19  20
ATOM     20  C   UNL     1      41.326   9.362  19.628  0.00  0.00    +0.000 A 
ATOM     21  C   UNL     1      42.463  10.086  19.370  0.00  0.00    +0.000 A 
ATOM     22  C   UNL     1      42.408  11.330  18.746  0.00  0.00    +0.000 A 
ATOM     23  C   UNL     1      43.651  12.109  18.472  0.00  0.00    +0.000 C 
ATOM     24  C   UNL     1      41.159  11.794  18.402  0.00  0.00    +0.000 A 
ATOM     25  C   UNL     1      39.988  11.102  18.642  0.00  0.00    +0.000 A 
ATOM     26  C   UNL     1      40.093   9.859  19.271  0.00  0.00    +0.000 A 
BRANCH  26  27
ATOM     27  C   UNL     1      38.895   9.044  19.569  0.00  0.00    +0.000 C 
ATOM     28  C   UNL     1      38.078   9.626  20.698  0.00  0.00    +0.000 C 
ATOM     29  C   UNL     1      38.009   8.918  18.350  0.00  0.00    +0.000 C 
ENDBRANCH  26  27
ENDBRANCH  19  20
ENDBRANCH  18  19
ENDBRANCH   4  18
TORSDOF 8
ENDMDL
MODEL 10
REMARK VINA RESULT:      -6.5      3.096      8.558
REMARK  Name = 
REMARK  8 active torsions:
REMARK  status: ('A' for Active; 'I' for Inactive)
REMARK    1  A    between atoms: C_2  and  N_3
REMARK    2  A    between atoms: C_2  and  C_25
REMARK    3  A    between atoms: N_3  and  N_4
REMARK    4  A    between atoms: C_5  and  C_7
REMARK    5  A    between atoms: C_10  and  C_11
REMARK    6  A    between atoms: C_11  and  O_12
REMARK    7  A    between atoms: O_12  and  C_13
REMARK    8  A    between atoms: C_19  and  C_20
REMARK                            x       y       z     vdW  Elec       q    Type
REMARK                         _______ _______ _______ _____ _____    ______ ____
ROOT
ATOM      1  C   UNL     1      36.473   2.403  15.386  0.00  0.00    +0.000 A 
ATOM      2  C   UNL     1      37.859   2.484  15.352  0.00  0.00    +0.000 A 
ATOM      3  C   UNL     1      38.457   3.686  15.046  0.00  0.00    +0.000 A 
ATOM      4  C   UNL     1      37.726   4.810  14.771  0.00  0.00    +0.000 A 
ATOM      5  C   UNL     1      36.362   4.705  14.810  0.00  0.00    +0.000 A 
ATOM      6  C   UNL     1      35.732   3.509  15.115  0.00  0.00    +0.000 A 
ENDROOT
BRANCH   1   8
ATOM      7  N   UNL     1      36.363  -0.097  15.168  0.00  0.00    +0.000 NA
ATOM      8  C   UNL     1      35.885   1.110  15.715  0.00  0.00    +0.000 C 
ATOM      9  O   UNL     1      34.925   1.079  16.511  0.00  0.00    +0.000 OA
BRANCH   7  10
ATOM     10  N   UNL     1      35.851  -1.362  15.439  0.00  0.00    +0.000 NA
BRANCH  10  12
ATOM     11  C   UNL     1      37.070  -3.355  15.135  0.00  0.00    +0.000 C 
ATOM     12  C   UNL     1      36.705  -2.369  15.952  0.00  0.00    +0.000 C 
BRANCH  12  13
ATOM     13  C   UNL     1      37.202  -2.376  17.320  0.00  0.00    +0.000 A 
ATOM     14  C   UNL     1      36.669  -1.702  18.396  0.00  0.00    +0.000 A 
ATOM     15  C   UNL     1      37.450  -1.985  19.507  0.00  0.00    +0.000 A 
ATOM     16  C   UNL     1      38.435  -2.834  19.039  0.00  0.00    +0.000 A 
ATOM     17  O   UNL     1      38.250  -3.037  17.745  0.00  0.00    +0.000 OA
ENDBRANCH  12  13
ENDBRANCH  10  12
ENDBRANCH   7  10
ENDBRANCH   1   8
BRANCH   4  18
ATOM     18  C   UNL     1      38.379   6.081  14.447  0.00  0.00    +0.000 C 
BRANCH  18  19
ATOM     19  O   UNL     1      38.999   6.583  15.615  0.00  0.00    +0.000 OA
BRANCH  19  20
ATOM     20  C   UNL     1      38.321   7.342  16.557  0.00  0.00    +0.000 A 
ATOM     21  C   UNL     1      37.474   8.346  16.158  0.00  0.00    +0.000 A 
ATOM     22  C   UNL     1      36.780   9.124  17.081  0.00  0.00    +0.000 A 
ATOM     23  C   UNL     1      35.864  10.214  16.635  0.00  0.00    +0.000 C 
ATOM     24  C   UNL     1      36.987   8.836  18.411  0.00  0.00    +0.000 A 
ATOM     25  C   UNL     1      37.828   7.837  18.860  0.00  0.00    +0.000 A 
ATOM     26  C   UNL     1      38.503   7.083  17.896  0.00  0.00    +0.000 A 
BRANCH  26  27
ATOM     27  C   UNL     1      39.425   5.992  18.280  0.00  0.00    +0.000 C 
ATOM     28  C   UNL     1      40.131   6.277  19.585  0.00  0.00    +0.000 C 
ATOM     29  C   UNL     1      38.686   4.679  18.410  0.00  0.00    +0.000 C 
ENDBRANCH  26  27
ENDBRANCH  19  20
ENDBRANCH  18  19
ENDBRANCH   4  18
TORSDOF 8
ENDMDL
