MODEL 1
REMARK VINA RESULT:      -6.9      0.000      0.000
REMARK  Name = 
REMARK  2 active torsions:
REMARK  status: ('A' for Active; 'I' for Inactive)
REMARK    1  A    between atoms: C_2  and  N_4
REMARK    2  A    between atoms: C_6  and  C_7
REMARK                            x       y       z     vdW  Elec       q    Type
REMARK                         _______ _______ _______ _____ _____    ______ ____
ROOT
ATOM      1  N   UNL     1      27.284  23.316  24.604  0.00  0.00    +0.000 N 
ATOM      2  C   UNL     1      26.450  23.383  25.654  0.00  0.00    +0.000 A 
ATOM      3  C   UNL     1      27.136  23.122  26.820  0.00  0.00    +0.000 A 
ATOM      4  C   UNL     1      28.452  22.894  26.397  0.00  0.00    +0.000 A 
ATOM      5  C   UNL     1      29.596  22.597  27.114  0.00  0.00    +0.000 A 
ATOM      6  C   UNL     1      30.795  22.424  26.472  0.00  0.00    +0.000 A 
ATOM      7  C   UNL     1      30.856  22.547  25.116  0.00  0.00    +0.000 A 
ATOM      8  C   UNL     1      29.747  22.841  24.369  0.00  0.00    +0.000 A 
ATOM      9  C   UNL     1      28.543  23.013  25.026  0.00  0.00    +0.000 A 
ENDROOT
BRANCH   3  10
ATOM     10  C   UNL     1      26.747  23.088  28.194  0.00  0.00    +0.000 C 
ATOM     11  C   UNL     1      26.623  24.023  29.078  0.00  0.00    +0.000 C 
ATOM     12  C   UNL     1      26.188  23.557  30.425  0.00  0.00    +0.000 C 
ATOM     13  O   UNL     1      25.943  22.347  30.667  0.00  0.00    +0.000 OA
ATOM     14  N   UNL     1      26.056  24.520  31.454  0.00  0.00    +0.000 NA
ATOM     15  C   UNL     1      26.314  25.898  31.267  0.00  0.00    +0.000 C 
ATOM     16  S   UNL     1      26.110  26.882  32.573  0.00  0.00    +0.000 S 
ATOM     17  N   UNL     1      26.733  26.396  29.995  0.00  0.00    +0.000 NA
ATOM     18  C   UNL     1      26.880  25.440  28.914  0.00  0.00    +0.000 C 
ATOM     19  O   UNL     1      27.245  25.828  27.773  0.00  0.00    +0.000 OA
ENDBRANCH   3  10
BRANCH   1  21
ATOM     20  C   UNL     1      25.533  23.084  22.878  0.00  0.00    +0.000 C 
ATOM     21  C   UNL     1      26.946  23.518  23.204  0.00  0.00    +0.000 C 
ATOM     22  C   UNL     1      27.227  24.948  22.795  0.00  0.00    +0.000 C 
ENDBRANCH   1  21
TORSDOF 2
ENDMDL
MODEL 2
REMARK VINA RESULT:      -6.5      1.085      2.892
REMARK  Name = 
REMARK  2 active torsions:
REMARK  status: ('A' for Active; 'I' for Inactive)
REMARK    1  A    between atoms: C_2  and  N_4
REMARK    2  A    between atoms: C_6  and  C_7
REMARK                            x       y       z     vdW  Elec       q    Type
REMARK                         _______ _______ _______ _____ _____    ______ ____
ROOT
ATOM      1  N   UNL     1      29.334  23.696  24.916  0.00  0.00    +0.000 N 
ATOM      2  C   UNL     1      29.276  23.558  26.251  0.00  0.00    +0.000 A 
ATOM      3  C   UNL     1      27.978  23.320  26.646  0.00  0.00    +0.000 A 
ATOM      4  C   UNL     1      27.252  23.322  25.447  0.00  0.00    +0.000 A 
ATOM      5  C   UNL     1      25.906  23.124  25.203  0.00  0.00    +0.000 A 
ATOM      6  C   UNL     1      25.417  23.161  23.923  0.00  0.00    +0.000 A 
ATOM      7  C   UNL     1      26.269  23.395  22.884  0.00  0.00    +0.000 A 
ATOM      8  C   UNL     1      27.609  23.594  23.083  0.00  0.00    +0.000 A 
ATOM      9  C   UNL     1      28.091  23.555  24.378  0.00  0.00    +0.000 A 
ENDROOT
BRANCH   3  10
ATOM     10  C   UNL     1      27.374  23.079  27.917  0.00  0.00    +0.000 C 
ATOM     11  C   UNL     1      26.892  23.882  28.808  0.00  0.00    +0.000 C 
ATOM     12  C   UNL     1      26.344  23.215  30.022  0.00  0.00    +0.000 C 
ATOM     13  O   UNL     1      26.336  21.963  30.150  0.00  0.00    +0.000 OA
ATOM     14  N   UNL     1      25.824  24.030  31.055  0.00  0.00    +0.000 NA
ATOM     15  C   UNL     1      25.797  25.442  30.992  0.00  0.00    +0.000 C 
ATOM     16  S   UNL     1      25.155  26.238  32.284  0.00  0.00    +0.000 S 
ATOM     17  N   UNL     1      26.311  26.132  29.850  0.00  0.00    +0.000 NA
ATOM     18  C   UNL     1      26.853  25.331  28.769  0.00  0.00    +0.000 C 
ATOM     19  O   UNL     1      27.315  25.889  27.740  0.00  0.00    +0.000 OA
ENDBRANCH   3  10
BRANCH   1  21
ATOM     20  C   UNL     1      30.887  25.434  24.098  0.00  0.00    +0.000 C 
ATOM     21  C   UNL     1      30.517  23.966  24.115  0.00  0.00    +0.000 C 
ATOM     22  C   UNL     1      31.663  23.081  24.554  0.00  0.00    +0.000 C 
ENDBRANCH   1  21
TORSDOF 2
ENDMDL
MODEL 3
REMARK VINA RESULT:      -6.5     18.269     19.941
REMARK  Name = 
REMARK  2 active torsions:
REMARK  status: ('A' for Active; 'I' for Inactive)
REMARK    1  A    between atoms: C_2  and  N_4
REMARK    2  A    between atoms: C_6  and  C_7
REMARK                            x       y       z     vdW  Elec       q    Type
REMARK                         _______ _______ _______ _____ _____    ______ ____
ROOT
ATOM      1  N   UNL     1      20.521  10.408  38.730  0.00  0.00    +0.000 N 
ATOM      2  C   UNL     1      19.945  11.108  37.739  0.00  0.00    +0.000 A 
ATOM      3  C   UNL     1      18.574  10.988  37.809  0.00  0.00    +0.000 A 
ATOM      4  C   UNL     1      18.362  10.162  38.921  0.00  0.00    +0.000 A 
ATOM      5  C   UNL     1      17.193   9.699  39.496  0.00  0.00    +0.000 A 
ATOM      6  C   UNL     1      17.233   8.897  40.606  0.00  0.00    +0.000 A 
ATOM      7  C   UNL     1      18.438   8.557  41.148  0.00  0.00    +0.000 A 
ATOM      8  C   UNL     1      19.617   8.996  40.610  0.00  0.00    +0.000 A 
ATOM      9  C   UNL     1      19.565   9.804  39.490  0.00  0.00    +0.000 A 
ENDROOT
BRANCH   3  10
ATOM     10  C   UNL     1      17.506  11.534  37.035  0.00  0.00    +0.000 C 
ATOM     11  C   UNL     1      17.053  11.237  35.862  0.00  0.00    +0.000 C 
ATOM     12  C   UNL     1      15.902  12.067  35.405  0.00  0.00    +0.000 C 
ATOM     13  O   UNL     1      15.404  12.971  36.125  0.00  0.00    +0.000 OA
ATOM     14  N   UNL     1      15.368  11.819  34.119  0.00  0.00    +0.000 NA
ATOM     15  C   UNL     1      15.870  10.826  33.247  0.00  0.00    +0.000 C 
ATOM     16  S   UNL     1      15.130  10.670  31.783  0.00  0.00    +0.000 S 
ATOM     17  N   UNL     1      16.973  10.003  33.635  0.00  0.00    +0.000 NA
ATOM     18  C   UNL     1      17.548  10.226  34.948  0.00  0.00    +0.000 C 
ATOM     19  O   UNL     1      18.519   9.527  35.339  0.00  0.00    +0.000 OA
ENDBRANCH   3  10
BRANCH   1  21
ATOM     20  C   UNL     1      22.675   9.548  37.883  0.00  0.00    +0.000 C 
ATOM     21  C   UNL     1      21.944  10.273  38.992  0.00  0.00    +0.000 C 
ATOM     22  C   UNL     1      22.552  11.623  39.307  0.00  0.00    +0.000 C 
ENDBRANCH   1  21
TORSDOF 2
ENDMDL
MODEL 4
REMARK VINA RESULT:      -6.4      3.362      5.981
REMARK  Name = 
REMARK  2 active torsions:
REMARK  status: ('A' for Active; 'I' for Inactive)
REMARK    1  A    between atoms: C_2  and  N_4
REMARK    2  A    between atoms: C_6  and  C_7
REMARK                            x       y       z     vdW  Elec       q    Type
REMARK                         _______ _______ _______ _____ _____    ______ ____
ROOT
ATOM      1  N   UNL     1      27.449  23.142  28.666  0.00  0.00    +0.000 N 
ATOM      2  C   UNL     1      26.721  23.374  27.562  0.00  0.00    +0.000 A 
ATOM      3  C   UNL     1      27.520  23.296  26.443  0.00  0.00    +0.000 A 
ATOM      4  C   UNL     1      28.791  22.998  26.953  0.00  0.00    +0.000 A 
ATOM      5  C   UNL     1      29.998  22.787  26.313  0.00  0.00    +0.000 A 
ATOM      6  C   UNL     1      31.127  22.493  27.033  0.00  0.00    +0.000 A 
ATOM      7  C   UNL     1      31.054  22.406  28.392  0.00  0.00    +0.000 A 
ATOM      8  C   UNL     1      29.878  22.606  29.063  0.00  0.00    +0.000 A 
ATOM      9  C   UNL     1      28.747  22.903  28.328  0.00  0.00    +0.000 A 
ENDROOT
BRANCH   3  10
ATOM     10  C   UNL     1      27.259  23.431  25.046  0.00  0.00    +0.000 C 
ATOM     11  C   UNL     1      27.444  24.411  24.225  0.00  0.00    +0.000 C 
ATOM     12  C   UNL     1      27.025  24.141  22.820  0.00  0.00    +0.000 C 
ATOM     13  O   UNL     1      26.549  23.031  22.468  0.00  0.00    +0.000 OA
ATOM     14  N   UNL     1      27.172  25.177  21.868  0.00  0.00    +0.000 NA
ATOM     15  C   UNL     1      27.695  26.453  22.182  0.00  0.00    +0.000 C 
ATOM     16  S   UNL     1      27.797  27.544  20.951  0.00  0.00    +0.000 S 
ATOM     17  N   UNL     1      28.111  26.764  23.514  0.00  0.00    +0.000 NA
ATOM     18  C   UNL     1      27.977  25.727  24.519  0.00  0.00    +0.000 C 
ATOM     19  O   UNL     1      28.332  25.949  25.706  0.00  0.00    +0.000 OA
ENDBRANCH   3  10
BRANCH   1  21
ATOM     20  C   UNL     1      26.003  24.268  30.322  0.00  0.00    +0.000 C 
ATOM     21  C   UNL     1      26.977  23.145  30.041  0.00  0.00    +0.000 C 
ATOM     22  C   UNL     1      26.423  21.785  30.410  0.00  0.00    +0.000 C 
ENDBRANCH   1  21
TORSDOF 2
ENDMDL
MODEL 5
REMARK VINA RESULT:      -6.4     11.787     13.505
REMARK  Name = 
REMARK  2 active torsions:
REMARK  status: ('A' for Active; 'I' for Inactive)
REMARK    1  A    between atoms: C_2  and  N_4
REMARK    2  A    between atoms: C_6  and  C_7
REMARK                            x       y       z     vdW  Elec       q    Type
REMARK                         _______ _______ _______ _____ _____    ______ ____
ROOT
ATOM      1  N   UNL     1      16.245  22.770  35.550  0.00  0.00    +0.000 N 
ATOM      2  C   UNL     1      17.320  23.056  36.303  0.00  0.00    +0.000 A 
ATOM      3  C   UNL     1      18.425  22.389  35.823  0.00  0.00    +0.000 A 
ATOM      4  C   UNL     1      17.939  21.675  34.719  0.00  0.00    +0.000 A 
ATOM      5  C   UNL     1      18.582  20.836  33.828  0.00  0.00    +0.000 A 
ATOM      6  C   UNL     1      17.890  20.249  32.801  0.00  0.00    +0.000 A 
ATOM      7  C   UNL     1      16.557  20.499  32.659  0.00  0.00    +0.000 A 
ATOM      8  C   UNL     1      15.884  21.325  33.518  0.00  0.00    +0.000 A 
ATOM      9  C   UNL     1      16.591  21.911  34.551  0.00  0.00    +0.000 A 
ENDROOT
BRANCH   3  10
ATOM     10  C   UNL     1      19.795  22.356  36.225  0.00  0.00    +0.000 C 
ATOM     11  C   UNL     1      20.444  21.560  37.009  0.00  0.00    +0.000 C 
ATOM     12  C   UNL     1      21.892  21.879  37.168  0.00  0.00    +0.000 C 
ATOM     13  O   UNL     1      22.434  22.839  36.562  0.00  0.00    +0.000 OA
ATOM     14  N   UNL     1      22.664  21.067  38.032  0.00  0.00    +0.000 NA
ATOM     15  C   UNL     1      22.132  19.972  38.751  0.00  0.00    +0.000 C 
ATOM     16  S   UNL     1      23.173  19.133  39.716  0.00  0.00    +0.000 S 
ATOM     17  N   UNL     1      20.751  19.624  38.635  0.00  0.00    +0.000 NA
ATOM     18  C   UNL     1      19.926  20.432  37.758  0.00  0.00    +0.000 C 
ATOM     19  O   UNL     1      18.703  20.166  37.618  0.00  0.00    +0.000 OA
ENDBRANCH   3  10
BRANCH   1  21
ATOM     20  C   UNL     1      14.482  23.315  37.191  0.00  0.00    +0.000 C 
ATOM     21  C   UNL     1      14.891  23.265  35.735  0.00  0.00    +0.000 C 
ATOM     22  C   UNL     1      14.716  24.595  35.033  0.00  0.00    +0.000 C 
ENDBRANCH   1  21
TORSDOF 2
ENDMDL
MODEL 6
REMARK VINA RESULT:      -6.3     18.821     21.245
REMARK  Name = 
REMARK  2 active torsions:
REMARK  status: ('A' for Active; 'I' for Inactive)
REMARK    1  A    between atoms: C_2  and  N_4
REMARK    2  A    between atoms: C_6  and  C_7
REMARK                            x       y       z     vdW  Elec       q    Type
REMARK                         _______ _______ _______ _____ _____    ______ ____
ROOT
ATOM      1  N   UNL     1      17.791  11.240  37.190  0.00  0.00    +0.000 N 
ATOM      2  C   UNL     1      17.519   9.962  37.500  0.00  0.00    +0.000 A 
ATOM      3  C   UNL     1      18.369   9.526  38.494  0.00  0.00    +0.000 A 
ATOM      4  C   UNL     1      19.176  10.640  38.763  0.00  0.00    +0.000 A 
ATOM      5  C   UNL     1      20.203  10.816  39.671  0.00  0.00    +0.000 A 
ATOM      6  C   UNL     1      20.853  12.019  39.764  0.00  0.00    +0.000 A 
ATOM      7  C   UNL     1      20.478  13.050  38.953  0.00  0.00    +0.000 A 
ATOM      8  C   UNL     1      19.466  12.917  38.042  0.00  0.00    +0.000 A 
ATOM      9  C   UNL     1      18.818  11.699  37.956  0.00  0.00    +0.000 A 
ENDROOT
BRANCH   3  10
ATOM     10  C   UNL     1      18.496   8.290  39.195  0.00  0.00    +0.000 C 
ATOM     11  C   UNL     1      17.960   7.861  40.291  0.00  0.00    +0.000 C 
ATOM     12  C   UNL     1      18.366   6.484  40.690  0.00  0.00    +0.000 C 
ATOM     13  O   UNL     1      19.154   5.792  39.995  0.00  0.00    +0.000 OA
ATOM     14  N   UNL     1      17.841   5.955  41.894  0.00  0.00    +0.000 NA
ATOM     15  C   UNL     1      16.953   6.667  42.733  0.00  0.00    +0.000 C 
ATOM     16  S   UNL     1      16.438   5.902  44.099  0.00  0.00    +0.000 S 
ATOM     17  N   UNL     1      16.533   7.991  42.396  0.00  0.00    +0.000 NA
ATOM     18  C   UNL     1      17.049   8.568  41.169  0.00  0.00    +0.000 C 
ATOM     19  O   UNL     1      16.708   9.730  40.826  0.00  0.00    +0.000 OA
ENDBRANCH   3  10
BRANCH   1  21
ATOM     20  C   UNL     1      16.898  11.314  34.888  0.00  0.00    +0.000 C 
ATOM     21  C   UNL     1      17.125  12.056  36.187  0.00  0.00    +0.000 C 
ATOM     22  C   UNL     1      15.852  12.649  36.750  0.00  0.00    +0.000 C 
ENDBRANCH   1  21
TORSDOF 2
ENDMDL
MODEL 7
REMARK VINA RESULT:      -6.2     33.250     34.117
REMARK  Name = 
REMARK  2 active torsions:
REMARK  status: ('A' for Active; 'I' for Inactive)
REMARK    1  A    between atoms: C_2  and  N_4
REMARK    2  A    between atoms: C_6  and  C_7
REMARK                            x       y       z     vdW  Elec       q    Type
REMARK                         _______ _______ _______ _____ _____    ______ ____
ROOT
ATOM      1  N   UNL     1      20.774  -8.543  25.826  0.00  0.00    +0.000 N 
ATOM      2  C   UNL     1      20.130  -9.554  26.432  0.00  0.00    +0.000 A 
ATOM      3  C   UNL     1      18.996  -9.085  27.058  0.00  0.00    +0.000 A 
ATOM      4  C   UNL     1      19.001  -7.710  26.784  0.00  0.00    +0.000 A 
ATOM      5  C   UNL     1      18.110  -6.713  27.136  0.00  0.00    +0.000 A 
ATOM      6  C   UNL     1      18.320  -5.419  26.736  0.00  0.00    +0.000 A 
ATOM      7  C   UNL     1      19.417  -5.116  25.985  0.00  0.00    +0.000 A 
ATOM      8  C   UNL     1      20.321  -6.074  25.614  0.00  0.00    +0.000 A 
ATOM      9  C   UNL     1      20.100  -7.376  26.022  0.00  0.00    +0.000 A 
ENDROOT
BRANCH   3  10
ATOM     10  C   UNL     1      17.962  -9.721  27.809  0.00  0.00    +0.000 C 
ATOM     11  C   UNL     1      17.876 -10.040  29.058  0.00  0.00    +0.000 C 
ATOM     12  C   UNL     1      16.602 -10.708  29.448  0.00  0.00    +0.000 C 
ATOM     13  O   UNL     1      15.679 -10.920  28.620  0.00  0.00    +0.000 OA
ATOM     14  N   UNL     1      16.444 -11.112  30.795  0.00  0.00    +0.000 NA
ATOM     15  C   UNL     1      17.432 -10.913  31.787  0.00  0.00    +0.000 C 
ATOM     16  S   UNL     1      17.085 -11.445  33.308  0.00  0.00    +0.000 S 
ATOM     17  N   UNL     1      18.672 -10.278  31.466  0.00  0.00    +0.000 NA
ATOM     18  C   UNL     1      18.872  -9.849  30.095  0.00  0.00    +0.000 C 
ATOM     19  O   UNL     1      19.945  -9.282  29.760  0.00  0.00    +0.000 OA
ENDBRANCH   3  10
BRANCH   1  21
ATOM     20  C   UNL     1      22.945  -9.699  25.590  0.00  0.00    +0.000 C 
ATOM     21  C   UNL     1      22.014  -8.624  25.070  0.00  0.00    +0.000 C 
ATOM     22  C   UNL     1      21.720  -8.771  23.593  0.00  0.00    +0.000 C 
ENDBRANCH   1  21
TORSDOF 2
ENDMDL
MODEL 8
REMARK VINA RESULT:      -6.2     32.497     33.758
REMARK  Name = 
REMARK  2 active torsions:
REMARK  status: ('A' for Active; 'I' for Inactive)
REMARK    1  A    between atoms: C_2  and  N_4
REMARK    2  A    between atoms: C_6  and  C_7
REMARK                            x       y       z     vdW  Elec       q    Type
REMARK                         _______ _______ _______ _____ _____    ______ ____
ROOT
ATOM      1  N   UNL     1      19.178  -9.067  27.164  0.00  0.00    +0.000 N 
ATOM      2  C   UNL     1      20.262  -9.527  26.518  0.00  0.00    +0.000 A 
ATOM      3  C   UNL     1      20.872  -8.502  25.828  0.00  0.00    +0.000 A 
ATOM      4  C   UNL     1      20.075  -7.383  26.107  0.00  0.00    +0.000 A 
ATOM      5  C   UNL     1      20.193  -6.065  25.708  0.00  0.00    +0.000 A 
ATOM      6  C   UNL     1      19.283  -5.128  26.123  0.00  0.00    +0.000 A 
ATOM      7  C   UNL     1      18.256  -5.502  26.938  0.00  0.00    +0.000 A 
ATOM      8  C   UNL     1      18.106  -6.796  27.358  0.00  0.00    +0.000 A 
ATOM      9  C   UNL     1      19.028  -7.733  26.933  0.00  0.00    +0.000 A 
ENDROOT
BRANCH   3  10
ATOM     10  C   UNL     1      22.044  -8.435  25.016  0.00  0.00    +0.000 C 
ATOM     11  C   UNL     1      22.238  -8.676  23.762  0.00  0.00    +0.000 C 
ATOM     12  C   UNL     1      23.641  -8.485  23.296  0.00  0.00    +0.000 C 
ATOM     13  O   UNL     1      24.555  -8.098  24.070  0.00  0.00    +0.000 OA
ATOM     14  N   UNL     1      23.938  -8.755  21.939  0.00  0.00    +0.000 NA
ATOM     15  C   UNL     1      22.972  -9.196  21.005  0.00  0.00    +0.000 C 
ATOM     16  S   UNL     1      23.488  -9.464  19.463  0.00  0.00    +0.000 S 
ATOM     17  N   UNL     1      21.612  -9.395  21.400  0.00  0.00    +0.000 NA
ATOM     18  C   UNL     1      21.268  -9.128  22.784  0.00  0.00    +0.000 C 
ATOM     19  O   UNL     1      20.084  -9.285  23.181  0.00  0.00    +0.000 OA
ENDBRANCH   3  10
BRANCH   1  21
ATOM     20  C   UNL     1      18.131 -11.273  27.536  0.00  0.00    +0.000 C 
ATOM     21  C   UNL     1      18.261  -9.835  27.990  0.00  0.00    +0.000 C 
ATOM     22  C   UNL     1      18.644  -9.717  29.450  0.00  0.00    +0.000 C 
ENDBRANCH   1  21
TORSDOF 2
ENDMDL
MODEL 9
REMARK VINA RESULT:      -6.1     16.301     18.774
REMARK  Name = 
REMARK  2 active torsions:
REMARK  status: ('A' for Active; 'I' for Inactive)
REMARK    1  A    between atoms: C_2  and  N_4
REMARK    2  A    between atoms: C_6  and  C_7
REMARK                            x       y       z     vdW  Elec       q    Type
REMARK                         _______ _______ _______ _____ _____    ______ ____
ROOT
ATOM      1  N   UNL     1      23.175  12.707  38.318  0.00  0.00    +0.000 N 
ATOM      2  C   UNL     1      21.857  12.787  38.564  0.00  0.00    +0.000 A 
ATOM      3  C   UNL     1      21.208  11.703  38.014  0.00  0.00    +0.000 A 
ATOM      4  C   UNL     1      22.233  10.959  37.416  0.00  0.00    +0.000 A 
ATOM      5  C   UNL     1      22.199   9.764  36.722  0.00  0.00    +0.000 A 
ATOM      6  C   UNL     1      23.353   9.212  36.229  0.00  0.00    +0.000 A 
ATOM      7  C   UNL     1      24.542   9.848  36.429  0.00  0.00    +0.000 A 
ATOM      8  C   UNL     1      24.619  11.032  37.112  0.00  0.00    +0.000 A 
ATOM      9  C   UNL     1      23.450  11.580  37.604  0.00  0.00    +0.000 A 
ENDROOT
BRANCH   3  10
ATOM     10  C   UNL     1      19.841  11.289  38.001  0.00  0.00    +0.000 C 
ATOM     11  C   UNL     1      19.117  10.679  38.880  0.00  0.00    +0.000 C 
ATOM     12  C   UNL     1      17.708  10.425  38.465  0.00  0.00    +0.000 C 
ATOM     13  O   UNL     1      17.263  10.801  37.350  0.00  0.00    +0.000 OA
ATOM     14  N   UNL     1      16.860   9.736  39.364  0.00  0.00    +0.000 NA
ATOM     15  C   UNL     1      17.282   9.278  40.634  0.00  0.00    +0.000 C 
ATOM     16  S   UNL     1      16.165   8.493  41.556  0.00  0.00    +0.000 S 
ATOM     17  N   UNL     1      18.623   9.495  41.080  0.00  0.00    +0.000 NA
ATOM     18  C   UNL     1      19.523  10.198  40.186  0.00  0.00    +0.000 C 
ATOM     19  O   UNL     1      20.713  10.417  40.533  0.00  0.00    +0.000 OA
ENDBRANCH   3  10
BRANCH   1  21
ATOM     20  C   UNL     1      23.763  15.096  38.536  0.00  0.00    +0.000 C 
ATOM     21  C   UNL     1      24.199  13.658  38.720  0.00  0.00    +0.000 C 
ATOM     22  C   UNL     1      24.664  13.366  40.130  0.00  0.00    +0.000 C 
ENDBRANCH   1  21
TORSDOF 2
ENDMDL
MODEL 10
REMARK VINA RESULT:      -6.1     33.511     34.694
REMARK  Name = 
REMARK  2 active torsions:
REMARK  status: ('A' for Active; 'I' for Inactive)
REMARK    1  A    between atoms: C_2  and  N_4
REMARK    2  A    between atoms: C_6  and  C_7
REMARK                            x       y       z     vdW  Elec       q    Type
REMARK                         _______ _______ _______ _____ _____    ______ ____
ROOT
ATOM      1  N   UNL     1      17.420 -10.363  29.803  0.00  0.00    +0.000 N 
ATOM      2  C   UNL     1      18.099  -9.240  29.517  0.00  0.00    +0.000 A 
ATOM      3  C   UNL     1      17.831  -8.843  28.225  0.00  0.00    +0.000 A 
ATOM      4  C   UNL     1      16.937  -9.811  27.749  0.00  0.00    +0.000 A 
ATOM      5  C   UNL     1      16.307  -9.939  26.526  0.00  0.00    +0.000 A 
ATOM      6  C   UNL     1      15.450 -10.983  26.289  0.00  0.00    +0.000 A 
ATOM      7  C   UNL     1      15.218 -11.899  27.273  0.00  0.00    +0.000 A 
ATOM      8  C   UNL     1      15.821 -11.807  28.498  0.00  0.00    +0.000 A 
ATOM      9  C   UNL     1      16.683 -10.751  28.725  0.00  0.00    +0.000 A 
ENDROOT
BRANCH   3  10
ATOM     10  C   UNL     1      18.258  -7.730  27.439  0.00  0.00    +0.000 C 
ATOM     11  C   UNL     1      19.307  -7.543  26.708  0.00  0.00    +0.000 C 
ATOM     12  C   UNL     1      19.377  -6.212  26.041  0.00  0.00    +0.000 C 
ATOM     13  O   UNL     1      18.468  -5.352  26.169  0.00  0.00    +0.000 OA
ATOM     14  N   UNL     1      20.511  -5.922  25.245  0.00  0.00    +0.000 NA
ATOM     15  C   UNL     1      21.577  -6.831  25.051  0.00  0.00    +0.000 C 
ATOM     16  S   UNL     1      22.821  -6.332  24.092  0.00  0.00    +0.000 S 
ATOM     17  N   UNL     1      21.559  -8.120  25.668  0.00  0.00    +0.000 NA
ATOM     18  C   UNL     1      20.413  -8.455  26.492  0.00  0.00    +0.000 C 
ATOM     19  O   UNL     1      20.348  -9.578  27.056  0.00  0.00    +0.000 OA
ENDBRANCH   3  10
BRANCH   1  21
ATOM     20  C   UNL     1      18.813 -11.127  31.695  0.00  0.00    +0.000 C 
ATOM     21  C   UNL     1      17.441 -11.102  31.055  0.00  0.00    +0.000 C 
ATOM     22  C   UNL     1      16.370 -10.583  31.990  0.00  0.00    +0.000 C 
ENDBRANCH   1  21
TORSDOF 2
ENDMDL
