MODEL 1
REMARK VINA RESULT:      -6.5      0.000      0.000
REMARK  Name = 
REMARK  1 active torsions:
REMARK  status: ('A' for Active; 'I' for Inactive)
REMARK    1  A    between atoms: N_12  and  C_13
REMARK                            x       y       z     vdW  Elec       q    Type
REMARK                         _______ _______ _______ _____ _____    ______ ____
ROOT
ATOM      1  C   UNL     1      25.786  23.103  25.201  0.00  0.00    +0.000 C 
ATOM      2  C   UNL     1      25.990  24.736  24.991  0.00  0.00    +0.000 C 
ATOM      3  C   UNL     1      27.014  24.633  23.763  0.00  0.00    +0.000 A 
ATOM      4  C   UNL     1      27.013  23.627  22.899  0.00  0.00    +0.000 A 
ATOM      5  C   UNL     1      27.924  23.642  21.868  0.00  0.00    +0.000 A 
ATOM      6  C   UNL     1      28.816  24.689  21.745  0.00  0.00    +0.000 A 
ATOM      7  O   UNL     1      29.743  24.704  20.697  0.00  0.00    +0.000 OA
ATOM      8  C   UNL     1      28.786  25.731  22.680  0.00  0.00    +0.000 A 
ATOM      9  C   UNL     1      27.865  25.700  23.708  0.00  0.00    +0.000 A 
ATOM     10  C   UNL     1      27.848  26.806  24.706  0.00  0.00    +0.000 C 
ATOM     11  C   UNL     1      27.903  26.086  26.045  0.00  0.00    +0.000 C 
ATOM     12  N   UNL     1      27.011  24.966  26.102  0.00  0.00    +0.000 N 
ENDROOT
BRANCH  12  13
ATOM     13  C   UNL     1      27.060  24.087  27.188  0.00  0.00    +0.000 A 
ATOM     14  C   UNL     1      27.962  23.064  27.376  0.00  0.00    +0.000 A 
ATOM     15  C   UNL     1      27.944  22.241  28.476  0.00  0.00    +0.000 A 
ATOM     16  C   UNL     1      27.000  22.412  29.453  0.00  0.00    +0.000 A 
ATOM     17  O   UNL     1      26.934  21.606  30.592  0.00  0.00    +0.000 OA
ATOM     18  C   UNL     1      26.086  23.421  29.297  0.00  0.00    +0.000 A 
ATOM     19  C   UNL     1      26.124  24.215  28.211  0.00  0.00    +0.000 A 
ENDBRANCH  12  13
TORSDOF 1
ENDMDL
MODEL 2
REMARK VINA RESULT:      -6.5      1.517      6.281
REMARK  Name = 
REMARK  1 active torsions:
REMARK  status: ('A' for Active; 'I' for Inactive)
REMARK    1  A    between atoms: N_12  and  C_13
REMARK                            x       y       z     vdW  Elec       q    Type
REMARK                         _______ _______ _______ _____ _____    ______ ____
ROOT
ATOM      1  C   UNL     1      25.735  24.293  24.407  0.00  0.00    +0.000 C 
ATOM      2  C   UNL     1      26.234  23.006  25.328  0.00  0.00    +0.000 C 
ATOM      3  C   UNL     1      26.024  23.712  26.752  0.00  0.00    +0.000 A 
ATOM      4  C   UNL     1      25.112  24.651  26.969  0.00  0.00    +0.000 A 
ATOM      5  C   UNL     1      25.001  25.182  28.234  0.00  0.00    +0.000 A 
ATOM      6  C   UNL     1      25.826  24.738  29.248  0.00  0.00    +0.000 A 
ATOM      7  O   UNL     1      25.712  25.277  30.534  0.00  0.00    +0.000 OA
ATOM      8  C   UNL     1      26.776  23.746  28.977  0.00  0.00    +0.000 A 
ATOM      9  C   UNL     1      26.875  23.224  27.702  0.00  0.00    +0.000 A 
ATOM     10  C   UNL     1      27.897  22.179  27.418  0.00  0.00    +0.000 C 
ATOM     11  C   UNL     1      28.632  22.714  26.198  0.00  0.00    +0.000 C 
ATOM     12  N   UNL     1      27.739  23.226  25.202  0.00  0.00    +0.000 N 
ENDROOT
BRANCH  12  13
ATOM     13  C   UNL     1      28.245  23.916  24.096  0.00  0.00    +0.000 A 
ATOM     14  C   UNL     1      28.785  25.182  24.096  0.00  0.00    +0.000 A 
ATOM     15  C   UNL     1      29.264  25.794  22.963  0.00  0.00    +0.000 A 
ATOM     16  C   UNL     1      29.220  25.146  21.756  0.00  0.00    +0.000 A 
ATOM     17  O   UNL     1      29.693  25.718  20.572  0.00  0.00    +0.000 OA
ATOM     18  C   UNL     1      28.689  23.884  21.721  0.00  0.00    +0.000 A 
ATOM     19  C   UNL     1      28.226  23.306  22.845  0.00  0.00    +0.000 A 
ENDBRANCH  12  13
TORSDOF 1
ENDMDL
MODEL 3
REMARK VINA RESULT:      -6.5     18.427     19.946
REMARK  Name = 
REMARK  1 active torsions:
REMARK  status: ('A' for Active; 'I' for Inactive)
REMARK    1  A    between atoms: N_12  and  C_13
REMARK                            x       y       z     vdW  Elec       q    Type
REMARK                         _______ _______ _______ _____ _____    ______ ____
ROOT
ATOM      1  C   UNL     1      16.644  12.933  36.566  0.00  0.00    +0.000 C 
ATOM      2  C   UNL     1      16.893  11.511  37.385  0.00  0.00    +0.000 C 
ATOM      3  C   UNL     1      18.444  11.760  37.709  0.00  0.00    +0.000 A 
ATOM      4  C   UNL     1      18.968  12.969  37.861  0.00  0.00    +0.000 A 
ATOM      5  C   UNL     1      20.308  13.073  38.155  0.00  0.00    +0.000 A 
ATOM      6  C   UNL     1      21.081  11.937  38.287  0.00  0.00    +0.000 A 
ATOM      7  O   UNL     1      22.444  12.043  38.586  0.00  0.00    +0.000 OA
ATOM      8  C   UNL     1      20.488  10.679  38.118  0.00  0.00    +0.000 A 
ATOM      9  C   UNL     1      19.142  10.592  37.822  0.00  0.00    +0.000 A 
ATOM     10  C   UNL     1      18.523   9.252  37.630  0.00  0.00    +0.000 C 
ATOM     11  C   UNL     1      17.806   9.373  36.294  0.00  0.00    +0.000 C 
ATOM     12  N   UNL     1      17.073  10.598  36.175  0.00  0.00    +0.000 N 
ENDROOT
BRANCH  12  13
ATOM     13  C   UNL     1      16.502  10.956  34.950  0.00  0.00    +0.000 A 
ATOM     14  C   UNL     1      15.330  11.653  34.763  0.00  0.00    +0.000 A 
ATOM     15  C   UNL     1      14.833  11.967  33.521  0.00  0.00    +0.000 A 
ATOM     16  C   UNL     1      15.506  11.587  32.390  0.00  0.00    +0.000 A 
ATOM     17  O   UNL     1      15.050  11.878  31.102  0.00  0.00    +0.000 OA
ATOM     18  C   UNL     1      16.677  10.891  32.540  0.00  0.00    +0.000 A 
ATOM     19  C   UNL     1      17.143  10.595  33.768  0.00  0.00    +0.000 A 
ENDBRANCH  12  13
TORSDOF 1
ENDMDL
MODEL 4
REMARK VINA RESULT:      -6.3      1.851      2.735
REMARK  Name = 
REMARK  1 active torsions:
REMARK  status: ('A' for Active; 'I' for Inactive)
REMARK    1  A    between atoms: N_12  and  C_13
REMARK                            x       y       z     vdW  Elec       q    Type
REMARK                         _______ _______ _______ _____ _____    ______ ____
ROOT
ATOM      1  C   UNL     1      28.710  23.012  27.088  0.00  0.00    +0.000 C 
ATOM      2  C   UNL     1      27.546  22.472  26.035  0.00  0.00    +0.000 C 
ATOM      3  C   UNL     1      28.229  23.048  24.704  0.00  0.00    +0.000 A 
ATOM      4  C   UNL     1      29.540  23.200  24.567  0.00  0.00    +0.000 A 
ATOM      5  C   UNL     1      30.026  23.687  23.376  0.00  0.00    +0.000 A 
ATOM      6  C   UNL     1      29.159  24.007  22.350  0.00  0.00    +0.000 A 
ATOM      7  O   UNL     1      29.653  24.502  21.139  0.00  0.00    +0.000 OA
ATOM      8  C   UNL     1      27.781  23.832  22.535  0.00  0.00    +0.000 A 
ATOM      9  C   UNL     1      27.310  23.343  23.738  0.00  0.00    +0.000 A 
ATOM     10  C   UNL     1      25.843  23.174  23.931  0.00  0.00    +0.000 C 
ATOM     11  C   UNL     1      25.565  23.899  25.239  0.00  0.00    +0.000 C 
ATOM     12  N   UNL     1      26.530  23.589  26.253  0.00  0.00    +0.000 N 
ENDROOT
BRANCH  12  13
ATOM     13  C   UNL     1      26.532  24.299  27.457  0.00  0.00    +0.000 A 
ATOM     14  C   UNL     1      27.033  25.565  27.663  0.00  0.00    +0.000 A 
ATOM     15  C   UNL     1      26.996  26.197  28.882  0.00  0.00    +0.000 A 
ATOM     16  C   UNL     1      26.443  25.573  29.969  0.00  0.00    +0.000 A 
ATOM     17  O   UNL     1      26.378  26.167  31.232  0.00  0.00    +0.000 OA
ATOM     18  C   UNL     1      25.934  24.313  29.799  0.00  0.00    +0.000 A 
ATOM     19  C   UNL     1      25.983  23.714  28.595  0.00  0.00    +0.000 A 
ENDBRANCH  12  13
TORSDOF 1
ENDMDL
MODEL 5
REMARK VINA RESULT:      -6.3      2.339      6.590
REMARK  Name = 
REMARK  1 active torsions:
REMARK  status: ('A' for Active; 'I' for Inactive)
REMARK    1  A    between atoms: N_12  and  C_13
REMARK                            x       y       z     vdW  Elec       q    Type
REMARK                         _______ _______ _______ _____ _____    ______ ____
ROOT
ATOM      1  C   UNL     1      27.340  24.035  23.131  0.00  0.00    +0.000 C 
ATOM      2  C   UNL     1      28.637  23.029  23.375  0.00  0.00    +0.000 C 
ATOM      3  C   UNL     1      28.467  22.899  24.963  0.00  0.00    +0.000 A 
ATOM      4  C   UNL     1      27.295  22.991  25.578  0.00  0.00    +0.000 A 
ATOM      5  C   UNL     1      27.255  22.847  26.945  0.00  0.00    +0.000 A 
ATOM      6  C   UNL     1      28.416  22.611  27.653  0.00  0.00    +0.000 A 
ATOM      7  O   UNL     1      28.376  22.464  29.044  0.00  0.00    +0.000 OA
ATOM      8  C   UNL     1      29.634  22.522  26.967  0.00  0.00    +0.000 A 
ATOM      9  C   UNL     1      29.656  22.669  25.594  0.00  0.00    +0.000 A 
ATOM     10  C   UNL     1      30.956  22.586  24.873  0.00  0.00    +0.000 C 
ATOM     11  C   UNL     1      30.981  23.850  24.026  0.00  0.00    +0.000 C 
ATOM     12  N   UNL     1      29.733  24.091  23.365  0.00  0.00    +0.000 N 
ENDROOT
BRANCH  12  13
ATOM     13  C   UNL     1      29.520  25.297  22.690  0.00  0.00    +0.000 A 
ATOM     14  C   UNL     1      29.332  26.535  23.261  0.00  0.00    +0.000 A 
ATOM     15  C   UNL     1      29.129  27.678  22.526  0.00  0.00    +0.000 A 
ATOM     16  C   UNL     1      29.105  27.624  21.157  0.00  0.00    +0.000 A 
ATOM     17  O   UNL     1      28.903  28.753  20.358  0.00  0.00    +0.000 OA
ATOM     18  C   UNL     1      29.289  26.407  20.555  0.00  0.00    +0.000 A 
ATOM     19  C   UNL     1      29.486  25.302  21.298  0.00  0.00    +0.000 A 
ENDBRANCH  12  13
TORSDOF 1
ENDMDL
MODEL 6
REMARK VINA RESULT:      -6.1      0.997      6.287
REMARK  Name = 
REMARK  1 active torsions:
REMARK  status: ('A' for Active; 'I' for Inactive)
REMARK    1  A    between atoms: N_12  and  C_13
REMARK                            x       y       z     vdW  Elec       q    Type
REMARK                         _______ _______ _______ _____ _____    ______ ____
ROOT
ATOM      1  C   UNL     1      29.433  25.229  26.368  0.00  0.00    +0.000 C 
ATOM      2  C   UNL     1      27.893  25.622  26.847  0.00  0.00    +0.000 C 
ATOM      3  C   UNL     1      27.742  24.458  27.938  0.00  0.00    +0.000 A 
ATOM      4  C   UNL     1      28.771  23.950  28.605  0.00  0.00    +0.000 A 
ATOM      5  C   UNL     1      28.531  22.964  29.534  0.00  0.00    +0.000 A 
ATOM      6  C   UNL     1      27.243  22.521  29.760  0.00  0.00    +0.000 A 
ATOM      7  O   UNL     1      27.000  21.518  30.706  0.00  0.00    +0.000 OA
ATOM      8  C   UNL     1      26.185  23.083  29.035  0.00  0.00    +0.000 A 
ATOM      9  C   UNL     1      26.443  24.071  28.105  0.00  0.00    +0.000 A 
ATOM     10  C   UNL     1      25.315  24.654  27.328  0.00  0.00    +0.000 C 
ATOM     11  C   UNL     1      25.774  24.539  25.883  0.00  0.00    +0.000 C 
ATOM     12  N   UNL     1      27.137  24.945  25.707  0.00  0.00    +0.000 N 
ENDROOT
BRANCH  12  13
ATOM     13  C   UNL     1      27.777  24.738  24.482  0.00  0.00    +0.000 A 
ATOM     14  C   UNL     1      28.187  23.530  23.963  0.00  0.00    +0.000 A 
ATOM     15  C   UNL     1      28.811  23.409  22.745  0.00  0.00    +0.000 A 
ATOM     16  C   UNL     1      29.055  24.519  21.980  0.00  0.00    +0.000 A 
ATOM     17  O   UNL     1      29.686  24.457  20.735  0.00  0.00    +0.000 OA
ATOM     18  C   UNL     1      28.660  25.738  22.466  0.00  0.00    +0.000 A 
ATOM     19  C   UNL     1      28.051  25.830  23.662  0.00  0.00    +0.000 A 
ENDBRANCH  12  13
TORSDOF 1
ENDMDL
MODEL 7
REMARK VINA RESULT:      -6.0      2.993      3.904
REMARK  Name = 
REMARK  1 active torsions:
REMARK  status: ('A' for Active; 'I' for Inactive)
REMARK    1  A    between atoms: N_12  and  C_13
REMARK                            x       y       z     vdW  Elec       q    Type
REMARK                         _______ _______ _______ _____ _____    ______ ____
ROOT
ATOM      1  C   UNL     1      28.589  24.888  27.033  0.00  0.00    +0.000 C 
ATOM      2  C   UNL     1      29.107  25.374  25.533  0.00  0.00    +0.000 C 
ATOM      3  C   UNL     1      27.960  24.629  24.697  0.00  0.00    +0.000 A 
ATOM      4  C   UNL     1      26.746  24.397  25.179  0.00  0.00    +0.000 A 
ATOM      5  C   UNL     1      25.827  23.764  24.373  0.00  0.00    +0.000 A 
ATOM      6  C   UNL     1      26.173  23.384  23.092  0.00  0.00    +0.000 A 
ATOM      7  O   UNL     1      25.238  22.741  22.272  0.00  0.00    +0.000 OA
ATOM      8  C   UNL     1      27.466  23.646  22.622  0.00  0.00    +0.000 A 
ATOM      9  C   UNL     1      28.375  24.282  23.444  0.00  0.00    +0.000 A 
ATOM     10  C   UNL     1      29.752  24.545  22.942  0.00  0.00    +0.000 C 
ATOM     11  C   UNL     1      30.649  23.975  24.030  0.00  0.00    +0.000 C 
ATOM     12  N   UNL     1      30.213  24.339  25.346  0.00  0.00    +0.000 N 
ENDROOT
BRANCH  12  13
ATOM     13  C   UNL     1      30.813  23.759  26.467  0.00  0.00    +0.000 A 
ATOM     14  C   UNL     1      31.651  24.382  27.364  0.00  0.00    +0.000 A 
ATOM     15  C   UNL     1      32.202  23.741  28.447  0.00  0.00    +0.000 A 
ATOM     16  C   UNL     1      31.930  22.419  28.680  0.00  0.00    +0.000 A 
ATOM     17  O   UNL     1      32.462  21.715  29.764  0.00  0.00    +0.000 OA
ATOM     18  C   UNL     1      31.099  21.768  27.807  0.00  0.00    +0.000 A 
ATOM     19  C   UNL     1      30.571  22.418  26.753  0.00  0.00    +0.000 A 
ENDBRANCH  12  13
TORSDOF 1
ENDMDL
MODEL 8
REMARK VINA RESULT:      -5.9      3.361      4.530
REMARK  Name = 
REMARK  1 active torsions:
REMARK  status: ('A' for Active; 'I' for Inactive)
REMARK    1  A    between atoms: N_12  and  C_13
REMARK                            x       y       z     vdW  Elec       q    Type
REMARK                         _______ _______ _______ _____ _____    ______ ____
ROOT
ATOM      1  C   UNL     1      30.596  22.781  29.090  0.00  0.00    +0.000 C 
ATOM      2  C   UNL     1      30.542  22.073  27.590  0.00  0.00    +0.000 C 
ATOM      3  C   UNL     1      31.502  23.128  26.859  0.00  0.00    +0.000 A 
ATOM      4  C   UNL     1      32.465  23.790  27.488  0.00  0.00    +0.000 A 
ATOM      5  C   UNL     1      33.246  24.662  26.764  0.00  0.00    +0.000 A 
ATOM      6  C   UNL     1      33.024  24.835  25.413  0.00  0.00    +0.000 A 
ATOM      7  O   UNL     1      33.818  25.722  24.677  0.00  0.00    +0.000 OA
ATOM      8  C   UNL     1      31.996  24.118  24.787  0.00  0.00    +0.000 A 
ATOM      9  C   UNL     1      31.222  23.247  25.528  0.00  0.00    +0.000 A 
ATOM     10  C   UNL     1      30.123  22.498  24.858  0.00  0.00    +0.000 C 
ATOM     11  C   UNL     1      28.911  22.774  25.735  0.00  0.00    +0.000 C 
ATOM     12  N   UNL     1      29.205  22.649  27.132  0.00  0.00    +0.000 N 
ENDROOT
BRANCH  12  13
ATOM     13  C   UNL     1      28.259  23.039  28.084  0.00  0.00    +0.000 A 
ATOM     14  C   UNL     1      27.517  22.207  28.892  0.00  0.00    +0.000 A 
ATOM     15  C   UNL     1      26.603  22.670  29.808  0.00  0.00    +0.000 A 
ATOM     16  C   UNL     1      26.391  24.015  29.955  0.00  0.00    +0.000 A 
ATOM     17  O   UNL     1      25.476  24.543  30.869  0.00  0.00    +0.000 OA
ATOM     18  C   UNL     1      27.113  24.872  29.166  0.00  0.00    +0.000 A 
ATOM     19  C   UNL     1      28.002  24.394  28.276  0.00  0.00    +0.000 A 
ENDBRANCH  12  13
TORSDOF 1
ENDMDL
MODEL 9
REMARK VINA RESULT:      -5.9      2.783      4.062
REMARK  Name = 
REMARK  1 active torsions:
REMARK  status: ('A' for Active; 'I' for Inactive)
REMARK    1  A    between atoms: N_12  and  C_13
REMARK                            x       y       z     vdW  Elec       q    Type
REMARK                         _______ _______ _______ _____ _____    ______ ____
ROOT
ATOM      1  C   UNL     1      27.174  26.819  25.950  0.00  0.00    +0.000 C 
ATOM      2  C   UNL     1      27.670  25.243  26.113  0.00  0.00    +0.000 C 
ATOM      3  C   UNL     1      28.254  25.085  24.629  0.00  0.00    +0.000 A 
ATOM      4  C   UNL     1      28.751  26.098  23.932  0.00  0.00    +0.000 A 
ATOM      5  C   UNL     1      29.243  25.852  22.671  0.00  0.00    +0.000 A 
ATOM      6  C   UNL     1      29.216  24.573  22.152  0.00  0.00    +0.000 A 
ATOM      7  O   UNL     1      29.717  24.323  20.870  0.00  0.00    +0.000 OA
ATOM      8  C   UNL     1      28.681  23.531  22.920  0.00  0.00    +0.000 A 
ATOM      9  C   UNL     1      28.191  23.796  24.183  0.00  0.00    +0.000 A 
ATOM     10  C   UNL     1      27.611  22.684  24.988  0.00  0.00    +0.000 C 
ATOM     11  C   UNL     1      26.253  23.219  25.417  0.00  0.00    +0.000 C 
ATOM     12  N   UNL     1      26.319  24.572  25.884  0.00  0.00    +0.000 N 
ENDROOT
BRANCH  12  13
ATOM     13  C   UNL     1      25.142  25.279  26.149  0.00  0.00    +0.000 A 
ATOM     14  C   UNL     1      24.559  25.467  27.382  0.00  0.00    +0.000 A 
ATOM     15  C   UNL     1      23.397  26.179  27.561  0.00  0.00    +0.000 A 
ATOM     16  C   UNL     1      22.759  26.742  26.488  0.00  0.00    +0.000 A 
ATOM     17  O   UNL     1      21.576  27.476  26.610  0.00  0.00    +0.000 OA
ATOM     18  C   UNL     1      23.312  26.574  25.246  0.00  0.00    +0.000 A 
ATOM     19  C   UNL     1      24.451  25.873  25.097  0.00  0.00    +0.000 A 
ENDBRANCH  12  13
TORSDOF 1
ENDMDL
MODEL 10
REMARK VINA RESULT:      -5.9     32.349     34.037
REMARK  Name = 
REMARK  1 active torsions:
REMARK  status: ('A' for Active; 'I' for Inactive)
REMARK    1  A    between atoms: N_12  and  C_13
REMARK                            x       y       z     vdW  Elec       q    Type
REMARK                         _______ _______ _______ _____ _____    ______ ____
ROOT
ATOM      1  C   UNL     1      19.353 -10.698  27.037  0.00  0.00    +0.000 C 
ATOM      2  C   UNL     1      18.624  -9.394  26.314  0.00  0.00    +0.000 C 
ATOM      3  C   UNL     1      19.976  -8.639  25.901  0.00  0.00    +0.000 A 
ATOM      4  C   UNL     1      21.111  -9.274  25.636  0.00  0.00    +0.000 A 
ATOM      5  C   UNL     1      22.211  -8.532  25.274  0.00  0.00    +0.000 A 
ATOM      6  C   UNL     1      22.125  -7.157  25.189  0.00  0.00    +0.000 A 
ATOM      7  O   UNL     1      23.245  -6.403  24.820  0.00  0.00    +0.000 OA
ATOM      8  C   UNL     1      20.909  -6.525  25.478  0.00  0.00    +0.000 A 
ATOM      9  C   UNL     1      19.814  -7.285  25.841  0.00  0.00    +0.000 A 
ATOM     10  C   UNL     1      18.528  -6.604  26.159  0.00  0.00    +0.000 C 
ATOM     11  C   UNL     1      18.142  -7.177  27.515  0.00  0.00    +0.000 C 
ATOM     12  N   UNL     1      18.313  -8.598  27.578  0.00  0.00    +0.000 N 
ENDROOT
BRANCH  12  13
ATOM     13  C   UNL     1      18.176  -9.266  28.798  0.00  0.00    +0.000 A 
ATOM     14  C   UNL     1      17.095 -10.013  29.208  0.00  0.00    +0.000 A 
ATOM     15  C   UNL     1      17.038 -10.642  30.429  0.00  0.00    +0.000 A 
ATOM     16  C   UNL     1      18.084 -10.545  31.307  0.00  0.00    +0.000 A 
ATOM     17  O   UNL     1      18.081 -11.163  32.561  0.00  0.00    +0.000 OA
ATOM     18  C   UNL     1      19.176  -9.809  30.931  0.00  0.00    +0.000 A 
ATOM     19  C   UNL     1      19.209  -9.202  29.730  0.00  0.00    +0.000 A 
ENDBRANCH  12  13
TORSDOF 1
ENDMDL
