MODEL 1
REMARK VINA RESULT:      -8.4      0.000      0.000
REMARK  Name = 
REMARK  5 active torsions:
REMARK  status: ('A' for Active; 'I' for Inactive)
REMARK    1  A    between atoms: C_8  and  C_9
REMARK    2  A    between atoms: C_11  and  C_12
REMARK    3  A    between atoms: N_20  and  C_22
REMARK    4  A    between atoms: C_22  and  C_23
REMARK    5  A    between atoms: C_23  and  C_24
REMARK                            x       y       z     vdW  Elec       q    Type
REMARK                         _______ _______ _______ _____ _____    ______ ____
ROOT
ATOM      1  C   UNL     1      37.104   3.693  15.936  0.00  0.00    +0.000 A 
ATOM      2  C   UNL     1      38.077   4.134  16.804  0.00  0.00    +0.000 A 
ATOM      3  C   UNL     1      38.560   5.419  16.745  0.00  0.00    +0.000 A 
ATOM      4  C   UNL     1      38.038   6.255  15.789  0.00  0.00    +0.000 A 
ATOM      5  C   UNL     1      37.072   5.817  14.929  0.00  0.00    +0.000 A 
ATOM      6  N   UNL     1      36.499   6.673  13.915  0.00  0.00    +0.000 N 
ATOM      7  C   UNL     1      35.517   6.135  13.024  0.00  0.00    +0.000 C 
ATOM      8  N   UNL     1      36.633   4.558  15.023  0.00  0.00    +0.000 NA
ENDROOT
BRANCH   1  16
ATOM      9  C   UNL     1      38.428   1.622  14.555  0.00  0.00    +0.000 C 
ATOM     10  C   UNL     1      37.218   1.291  15.342  0.00  0.00    +0.000 A 
ATOM     11  C   UNL     1      36.704  -0.001  15.426  0.00  0.00    +0.000 A 
ATOM     12  C   UNL     1      35.583  -0.320  16.149  0.00  0.00    +0.000 A 
ATOM     13  O   UNL     1      35.059  -1.608  16.241  0.00  0.00    +0.000 OA
ATOM     14  C   UNL     1      34.949   0.728  16.826  0.00  0.00    +0.000 A 
ATOM     15  C   UNL     1      35.461   2.007  16.742  0.00  0.00    +0.000 A 
ATOM     16  C   UNL     1      36.585   2.314  16.012  0.00  0.00    +0.000 A 
ENDBRANCH   1  16
BRANCH   3  17
ATOM     17  C   UNL     1      39.585   5.843  17.679  0.00  0.00    +0.000 A 
ATOM     18  C   UNL     1      40.829   6.142  17.149  0.00  0.00    +0.000 A 
ATOM     19  C   UNL     1      41.844   6.554  17.994  0.00  0.00    +0.000 A 
ATOM     20  C   UNL     1      41.573   6.650  19.339  0.00  0.00    +0.000 A 
ATOM     21  C   UNL     1      40.328   6.352  19.870  0.00  0.00    +0.000 A 
ATOM     22  C   UNL     1      39.316   5.941  19.028  0.00  0.00    +0.000 A 
ENDBRANCH   3  17
BRANCH   6  23
ATOM     23  C   UNL     1      36.949   8.020  13.873  0.00  0.00    +0.000 C 
BRANCH  23  24
ATOM     24  C   UNL     1      35.915   9.058  13.955  0.00  0.00    +0.000 C 
BRANCH  24  25
ATOM     25  C   UNL     1      35.179   9.208  15.226  0.00  0.00    +0.000 A 
ATOM     26  C   UNL     1      33.818   8.853  15.225  0.00  0.00    +0.000 A 
ATOM     27  C   UNL     1      33.107   9.007  16.384  0.00  0.00    +0.000 A 
ATOM     28  C   UNL     1      33.694   9.495  17.530  0.00  0.00    +0.000 A 
ATOM     29  C   UNL     1      35.033   9.823  17.454  0.00  0.00    +0.000 A 
ATOM     30  N   UNL     1      35.732   9.681  16.345  0.00  0.00    +0.000 NA
ENDBRANCH  24  25
ENDBRANCH  23  24
ENDBRANCH   6  23
TORSDOF 5
ENDMDL
MODEL 2
REMARK VINA RESULT:      -8.3      3.379      6.743
REMARK  Name = 
REMARK  5 active torsions:
REMARK  status: ('A' for Active; 'I' for Inactive)
REMARK    1  A    between atoms: C_8  and  C_9
REMARK    2  A    between atoms: C_11  and  C_12
REMARK    3  A    between atoms: N_20  and  C_22
REMARK    4  A    between atoms: C_22  and  C_23
REMARK    5  A    between atoms: C_23  and  C_24
REMARK                            x       y       z     vdW  Elec       q    Type
REMARK                         _______ _______ _______ _____ _____    ______ ____
ROOT
ATOM      1  C   UNL     1      36.704   4.647  13.799  0.00  0.00    +0.000 A 
ATOM      2  C   UNL     1      37.471   5.197  14.800  0.00  0.00    +0.000 A 
ATOM      3  C   UNL     1      38.282   4.418  15.590  0.00  0.00    +0.000 A 
ATOM      4  C   UNL     1      38.305   3.067  15.348  0.00  0.00    +0.000 A 
ATOM      5  C   UNL     1      37.543   2.523  14.354  0.00  0.00    +0.000 A 
ATOM      6  N   UNL     1      37.548   1.105  14.070  0.00  0.00    +0.000 N 
ATOM      7  C   UNL     1      36.696   0.599  13.037  0.00  0.00    +0.000 C 
ATOM      8  N   UNL     1      36.768   3.319  13.611  0.00  0.00    +0.000 NA
ENDROOT
BRANCH   1  16
ATOM      9  C   UNL     1      37.361   5.030  11.084  0.00  0.00    +0.000 C 
ATOM     10  C   UNL     1      36.151   5.693  11.622  0.00  0.00    +0.000 A 
ATOM     11  C   UNL     1      35.325   6.500  10.844  0.00  0.00    +0.000 A 
ATOM     12  C   UNL     1      34.203   7.121  11.331  0.00  0.00    +0.000 A 
ATOM     13  O   UNL     1      33.369   7.931  10.563  0.00  0.00    +0.000 OA
ATOM     14  C   UNL     1      33.900   6.909  12.681  0.00  0.00    +0.000 A 
ATOM     15  C   UNL     1      34.720   6.108  13.450  0.00  0.00    +0.000 A 
ATOM     16  C   UNL     1      35.843   5.492  12.950  0.00  0.00    +0.000 A 
ENDBRANCH   1  16
BRANCH   3  17
ATOM     17  C   UNL     1      39.076   5.038  16.634  0.00  0.00    +0.000 A 
ATOM     18  C   UNL     1      40.221   5.707  16.235  0.00  0.00    +0.000 A 
ATOM     19  C   UNL     1      41.015   6.320  17.188  0.00  0.00    +0.000 A 
ATOM     20  C   UNL     1      40.629   6.238  18.507  0.00  0.00    +0.000 A 
ATOM     21  C   UNL     1      39.483   5.570  18.906  0.00  0.00    +0.000 A 
ATOM     22  C   UNL     1      38.692   4.959  17.956  0.00  0.00    +0.000 A 
ENDBRANCH   3  17
BRANCH   6  23
ATOM     23  C   UNL     1      38.419   0.291  14.843  0.00  0.00    +0.000 C 
BRANCH  23  24
ATOM     24  C   UNL     1      37.839  -0.931  15.411  0.00  0.00    +0.000 C 
BRANCH  24  25
ATOM     25  C   UNL     1      37.147  -0.834  16.712  0.00  0.00    +0.000 A 
ATOM     26  C   UNL     1      35.827  -0.349  16.703  0.00  0.00    +0.000 A 
ATOM     27  C   UNL     1      35.173  -0.226  17.899  0.00  0.00    +0.000 A 
ATOM     28  C   UNL     1      35.777  -0.564  19.089  0.00  0.00    +0.000 A 
ATOM     29  C   UNL     1      37.074  -1.033  19.018  0.00  0.00    +0.000 A 
ATOM     30  N   UNL     1      37.718  -1.157  17.875  0.00  0.00    +0.000 NA
ENDBRANCH  24  25
ENDBRANCH  23  24
ENDBRANCH   6  23
TORSDOF 5
ENDMDL
MODEL 3
REMARK VINA RESULT:      -8.1      2.955      7.253
REMARK  Name = 
REMARK  5 active torsions:
REMARK  status: ('A' for Active; 'I' for Inactive)
REMARK    1  A    between atoms: C_8  and  C_9
REMARK    2  A    between atoms: C_11  and  C_12
REMARK    3  A    between atoms: N_20  and  C_22
REMARK    4  A    between atoms: C_22  and  C_23
REMARK    5  A    between atoms: C_23  and  C_24
REMARK                            x       y       z     vdW  Elec       q    Type
REMARK                         _______ _______ _______ _____ _____    ______ ____
ROOT
ATOM      1  C   UNL     1      36.174   5.086  13.927  0.00  0.00    +0.000 A 
ATOM      2  C   UNL     1      35.869   3.777  14.228  0.00  0.00    +0.000 A 
ATOM      3  C   UNL     1      36.423   3.146  15.316  0.00  0.00    +0.000 A 
ATOM      4  C   UNL     1      37.293   3.863  16.098  0.00  0.00    +0.000 A 
ATOM      5  C   UNL     1      37.594   5.161  15.799  0.00  0.00    +0.000 A 
ATOM      6  N   UNL     1      38.502   5.946  16.605  0.00  0.00    +0.000 N 
ATOM      7  C   UNL     1      38.800   7.289  16.210  0.00  0.00    +0.000 C 
ATOM      8  N   UNL     1      37.032   5.735  14.730  0.00  0.00    +0.000 NA
ENDROOT
BRANCH   1  16
ATOM      9  C   UNL     1      33.852   6.648  14.267  0.00  0.00    +0.000 C 
ATOM     10  C   UNL     1      34.432   6.524  12.910  0.00  0.00    +0.000 A 
ATOM     11  C   UNL     1      33.877   7.143  11.794  0.00  0.00    +0.000 A 
ATOM     12  C   UNL     1      34.403   7.033  10.531  0.00  0.00    +0.000 A 
ATOM     13  O   UNL     1      33.856   7.648   9.407  0.00  0.00    +0.000 OA
ATOM     14  C   UNL     1      35.557   6.254  10.394  0.00  0.00    +0.000 A 
ATOM     15  C   UNL     1      36.106   5.641  11.503  0.00  0.00    +0.000 A 
ATOM     16  C   UNL     1      35.568   5.759  12.763  0.00  0.00    +0.000 A 
ENDBRANCH   1  16
BRANCH   3  17
ATOM     17  C   UNL     1      36.074   1.767  15.597  0.00  0.00    +0.000 A 
ATOM     18  C   UNL     1      35.183   1.546  16.635  0.00  0.00    +0.000 A 
ATOM     19  C   UNL     1      34.812   0.250  16.946  0.00  0.00    +0.000 A 
ATOM     20  C   UNL     1      35.350  -0.777  16.205  0.00  0.00    +0.000 A 
ATOM     21  C   UNL     1      36.241  -0.557  15.166  0.00  0.00    +0.000 A 
ATOM     22  C   UNL     1      36.610   0.735  14.856  0.00  0.00    +0.000 A 
ENDBRANCH   3  17
BRANCH   6  23
ATOM     23  C   UNL     1      39.044   5.325  17.762  0.00  0.00    +0.000 C 
BRANCH  23  24
ATOM     24  C   UNL     1      39.452   6.218  18.853  0.00  0.00    +0.000 C 
BRANCH  24  25
ATOM     25  C   UNL     1      40.895   6.377  19.120  0.00  0.00    +0.000 A 
ATOM     26  C   UNL     1      41.314   6.295  20.460  0.00  0.00    +0.000 A 
ATOM     27  C   UNL     1      42.643   6.463  20.737  0.00  0.00    +0.000 A 
ATOM     28  C   UNL     1      43.561   6.707  19.740  0.00  0.00    +0.000 A 
ATOM     29  C   UNL     1      43.076   6.773  18.449  0.00  0.00    +0.000 A 
ATOM     30  N   UNL     1      41.798   6.614  18.166  0.00  0.00    +0.000 NA
ENDBRANCH  24  25
ENDBRANCH  23  24
ENDBRANCH   6  23
TORSDOF 5
ENDMDL
MODEL 4
REMARK VINA RESULT:      -8.0      1.117      1.892
REMARK  Name = 
REMARK  5 active torsions:
REMARK  status: ('A' for Active; 'I' for Inactive)
REMARK    1  A    between atoms: C_8  and  C_9
REMARK    2  A    between atoms: C_11  and  C_12
REMARK    3  A    between atoms: N_20  and  C_22
REMARK    4  A    between atoms: C_22  and  C_23
REMARK    5  A    between atoms: C_23  and  C_24
REMARK                            x       y       z     vdW  Elec       q    Type
REMARK                         _______ _______ _______ _____ _____    ______ ____
ROOT
ATOM      1  C   UNL     1      37.420   3.621  15.445  0.00  0.00    +0.000 A 
ATOM      2  C   UNL     1      37.936   4.225  16.570  0.00  0.00    +0.000 A 
ATOM      3  C   UNL     1      37.997   5.593  16.684  0.00  0.00    +0.000 A 
ATOM      4  C   UNL     1      37.524   6.344  15.637  0.00  0.00    +0.000 A 
ATOM      5  C   UNL     1      37.011   5.743  14.522  0.00  0.00    +0.000 A 
ATOM      6  N   UNL     1      36.500   6.505  13.405  0.00  0.00    +0.000 N 
ATOM      7  C   UNL     1      36.013   5.810  12.253  0.00  0.00    +0.000 C 
ATOM      8  N   UNL     1      36.973   4.409  14.455  0.00  0.00    +0.000 NA
ENDROOT
BRANCH   1  16
ATOM      9  C   UNL     1      35.096   2.265  16.287  0.00  0.00    +0.000 C 
ATOM     10  C   UNL     1      36.224   1.472  15.745  0.00  0.00    +0.000 A 
ATOM     11  C   UNL     1      36.186   0.085  15.636  0.00  0.00    +0.000 A 
ATOM     12  C   UNL     1      37.225  -0.660  15.138  0.00  0.00    +0.000 A 
ATOM     13  O   UNL     1      37.199  -2.049  15.024  0.00  0.00    +0.000 OA
ATOM     14  C   UNL     1      38.364   0.040  14.725  0.00  0.00    +0.000 A 
ATOM     15  C   UNL     1      38.398   1.417  14.834  0.00  0.00    +0.000 A 
ATOM     16  C   UNL     1      37.350   2.152  15.336  0.00  0.00    +0.000 A 
ENDBRANCH   1  16
BRANCH   3  17
ATOM     17  C   UNL     1      38.547   6.188  17.886  0.00  0.00    +0.000 A 
ATOM     18  C   UNL     1      39.617   5.534  18.475  0.00  0.00    +0.000 A 
ATOM     19  C   UNL     1      40.184   6.058  19.623  0.00  0.00    +0.000 A 
ATOM     20  C   UNL     1      39.656   7.219  20.138  0.00  0.00    +0.000 A 
ATOM     21  C   UNL     1      38.586   7.874  19.549  0.00  0.00    +0.000 A 
ATOM     22  C   UNL     1      38.021   7.352  18.405  0.00  0.00    +0.000 A 
ENDBRANCH   3  17
BRANCH   6  23
ATOM     23  C   UNL     1      36.508   7.921  13.526  0.00  0.00    +0.000 C 
BRANCH  23  24
ATOM     24  C   UNL     1      35.203   8.569  13.699  0.00  0.00    +0.000 C 
BRANCH  24  25
ATOM     25  C   UNL     1      34.799   8.970  15.061  0.00  0.00    +0.000 A 
ATOM     26  C   UNL     1      35.807   9.460  15.912  0.00  0.00    +0.000 A 
ATOM     27  C   UNL     1      35.462   9.815  17.187  0.00  0.00    +0.000 A 
ATOM     28  C   UNL     1      34.168   9.702  17.642  0.00  0.00    +0.000 A 
ATOM     29  C   UNL     1      33.234   9.213  16.750  0.00  0.00    +0.000 A 
ATOM     30  N   UNL     1      33.550   8.867  15.518  0.00  0.00    +0.000 NA
ENDBRANCH  24  25
ENDBRANCH  23  24
ENDBRANCH   6  23
TORSDOF 5
ENDMDL
MODEL 5
REMARK VINA RESULT:      -7.7      5.687      8.901
REMARK  Name = 
REMARK  5 active torsions:
REMARK  status: ('A' for Active; 'I' for Inactive)
REMARK    1  A    between atoms: C_8  and  C_9
REMARK    2  A    between atoms: C_11  and  C_12
REMARK    3  A    between atoms: N_20  and  C_22
REMARK    4  A    between atoms: C_22  and  C_23
REMARK    5  A    between atoms: C_23  and  C_24
REMARK                            x       y       z     vdW  Elec       q    Type
REMARK                         _______ _______ _______ _____ _____    ______ ____
ROOT
ATOM      1  C   UNL     1      41.252  -1.152  14.431  0.00  0.00    +0.000 A 
ATOM      2  C   UNL     1      40.487  -2.195  14.902  0.00  0.00    +0.000 A 
ATOM      3  C   UNL     1      39.143  -2.044  15.144  0.00  0.00    +0.000 A 
ATOM      4  C   UNL     1      38.583  -0.814  14.900  0.00  0.00    +0.000 A 
ATOM      5  C   UNL     1      39.344   0.219  14.432  0.00  0.00    +0.000 A 
ATOM      6  N   UNL     1      38.783   1.524  14.160  0.00  0.00    +0.000 N 
ATOM      7  C   UNL     1      39.647   2.571  13.707  0.00  0.00    +0.000 C 
ATOM      8  N   UNL     1      40.647   0.026  14.212  0.00  0.00    +0.000 NA
ENDROOT
BRANCH   1  16
ATOM      9  C   UNL     1      42.091  -2.725  12.247  0.00  0.00    +0.000 C 
ATOM     10  C   UNL     1      43.120  -2.094  13.103  0.00  0.00    +0.000 A 
ATOM     11  C   UNL     1      44.486  -2.247  12.878  0.00  0.00    +0.000 A 
ATOM     12  C   UNL     1      45.449  -1.669  13.666  0.00  0.00    +0.000 A 
ATOM     13  O   UNL     1      46.818  -1.815  13.451  0.00  0.00    +0.000 OA
ATOM     14  C   UNL     1      45.003  -0.892  14.740  0.00  0.00    +0.000 A 
ATOM     15  C   UNL     1      43.648  -0.741  14.961  0.00  0.00    +0.000 A 
ATOM     16  C   UNL     1      42.693  -1.326  14.165  0.00  0.00    +0.000 A 
ENDBRANCH   1  16
BRANCH   3  17
ATOM     17  C   UNL     1      38.373  -3.169  15.639  0.00  0.00    +0.000 A 
ATOM     18  C   UNL     1      38.892  -3.852  16.726  0.00  0.00    +0.000 A 
ATOM     19  C   UNL     1      38.199  -4.932  17.242  0.00  0.00    +0.000 A 
ATOM     20  C   UNL     1      37.011  -5.287  16.647  0.00  0.00    +0.000 A 
ATOM     21  C   UNL     1      36.490  -4.603  15.560  0.00  0.00    +0.000 A 
ATOM     22  C   UNL     1      37.181  -3.527  15.046  0.00  0.00    +0.000 A 
ENDBRANCH   3  17
BRANCH   6  23
ATOM     23  C   UNL     1      37.386   1.684  14.357  0.00  0.00    +0.000 C 
BRANCH  23  24
ATOM     24  C   UNL     1      36.960   2.138  15.686  0.00  0.00    +0.000 C 
BRANCH  24  25
ATOM     25  C   UNL     1      36.370   1.144  16.605  0.00  0.00    +0.000 A 
ATOM     26  C   UNL     1      35.521   0.173  16.042  0.00  0.00    +0.000 A 
ATOM     27  C   UNL     1      34.942  -0.744  16.876  0.00  0.00    +0.000 A 
ATOM     28  C   UNL     1      35.173  -0.730  18.233  0.00  0.00    +0.000 A 
ATOM     29  C   UNL     1      36.016   0.252  18.712  0.00  0.00    +0.000 A 
ATOM     30  N   UNL     1      36.582   1.143  17.922  0.00  0.00    +0.000 NA
ENDBRANCH  24  25
ENDBRANCH  23  24
ENDBRANCH   6  23
TORSDOF 5
ENDMDL
MODEL 6
REMARK VINA RESULT:      -7.7      2.980      6.532
REMARK  Name = 
REMARK  5 active torsions:
REMARK  status: ('A' for Active; 'I' for Inactive)
REMARK    1  A    between atoms: C_8  and  C_9
REMARK    2  A    between atoms: C_11  and  C_12
REMARK    3  A    between atoms: N_20  and  C_22
REMARK    4  A    between atoms: C_22  and  C_23
REMARK    5  A    between atoms: C_23  and  C_24
REMARK                            x       y       z     vdW  Elec       q    Type
REMARK                         _______ _______ _______ _____ _____    ______ ____
ROOT
ATOM      1  C   UNL     1      38.246   5.165  16.553  0.00  0.00    +0.000 A 
ATOM      2  C   UNL     1      37.771   3.876  16.653  0.00  0.00    +0.000 A 
ATOM      3  C   UNL     1      36.775   3.415  15.826  0.00  0.00    +0.000 A 
ATOM      4  C   UNL     1      36.265   4.282  14.893  0.00  0.00    +0.000 A 
ATOM      5  C   UNL     1      36.737   5.560  14.795  0.00  0.00    +0.000 A 
ATOM      6  N   UNL     1      36.225   6.496  13.819  0.00  0.00    +0.000 N 
ATOM      7  C   UNL     1      36.741   7.831  13.798  0.00  0.00    +0.000 C 
ATOM      8  N   UNL     1      37.706   5.965  15.620  0.00  0.00    +0.000 NA
ENDROOT
BRANCH   1  16
ATOM      9  C   UNL     1      40.757   5.837  15.463  0.00  0.00    +0.000 C 
ATOM     10  C   UNL     1      40.556   5.979  16.923  0.00  0.00    +0.000 A 
ATOM     11  C   UNL     1      41.556   6.428  17.781  0.00  0.00    +0.000 A 
ATOM     12  C   UNL     1      41.383   6.561  19.136  0.00  0.00    +0.000 A 
ATOM     13  O   UNL     1      42.376   7.009  20.005  0.00  0.00    +0.000 OA
ATOM     14  C   UNL     1      40.125   6.223  19.648  0.00  0.00    +0.000 A 
ATOM     15  C   UNL     1      39.135   5.779  18.794  0.00  0.00    +0.000 A 
ATOM     16  C   UNL     1      39.322   5.649  17.439  0.00  0.00    +0.000 A 
ENDBRANCH   1  16
BRANCH   3  17
ATOM     17  C   UNL     1      36.305   2.050  15.964  0.00  0.00    +0.000 A 
ATOM     18  C   UNL     1      36.951   1.085  15.209  0.00  0.00    +0.000 A 
ATOM     19  C   UNL     1      36.546  -0.234  15.303  0.00  0.00    +0.000 A 
ATOM     20  C   UNL     1      35.507  -0.537  16.151  0.00  0.00    +0.000 A 
ATOM     21  C   UNL     1      34.860   0.427  16.908  0.00  0.00    +0.000 A 
ATOM     22  C   UNL     1      35.263   1.742  16.815  0.00  0.00    +0.000 A 
ENDBRANCH   3  17
BRANCH   6  23
ATOM     23  C   UNL     1      35.231   6.020  12.923  0.00  0.00    +0.000 C 
BRANCH  23  24
ATOM     24  C   UNL     1      34.614   7.018  12.041  0.00  0.00    +0.000 C 
BRANCH  24  25
ATOM     25  C   UNL     1      34.688   6.800  10.583  0.00  0.00    +0.000 A 
ATOM     26  C   UNL     1      35.734   5.989  10.107  0.00  0.00    +0.000 A 
ATOM     27  C   UNL     1      35.840   5.791   8.758  0.00  0.00    +0.000 A 
ATOM     28  C   UNL     1      34.954   6.365   7.874  0.00  0.00    +0.000 A 
ATOM     29  C   UNL     1      33.954   7.149   8.415  0.00  0.00    +0.000 A 
ATOM     30  N   UNL     1      33.839   7.349   9.713  0.00  0.00    +0.000 NA
ENDBRANCH  24  25
ENDBRANCH  23  24
ENDBRANCH   6  23
TORSDOF 5
ENDMDL
MODEL 7
REMARK VINA RESULT:      -7.6      3.113      7.242
REMARK  Name = 
REMARK  5 active torsions:
REMARK  status: ('A' for Active; 'I' for Inactive)
REMARK    1  A    between atoms: C_8  and  C_9
REMARK    2  A    between atoms: C_11  and  C_12
REMARK    3  A    between atoms: N_20  and  C_22
REMARK    4  A    between atoms: C_22  and  C_23
REMARK    5  A    between atoms: C_23  and  C_24
REMARK                            x       y       z     vdW  Elec       q    Type
REMARK                         _______ _______ _______ _____ _____    ______ ____
ROOT
ATOM      1  C   UNL     1      37.344   5.898  14.555  0.00  0.00    +0.000 A 
ATOM      2  C   UNL     1      38.301   6.217  15.493  0.00  0.00    +0.000 A 
ATOM      3  C   UNL     1      38.513   5.426  16.596  0.00  0.00    +0.000 A 
ATOM      4  C   UNL     1      37.737   4.302  16.737  0.00  0.00    +0.000 A 
ATOM      5  C   UNL     1      36.789   3.987  15.806  0.00  0.00    +0.000 A 
ATOM      6  N   UNL     1      35.959   2.809  15.922  0.00  0.00    +0.000 N 
ATOM      7  C   UNL     1      34.959   2.561  14.928  0.00  0.00    +0.000 C 
ATOM      8  N   UNL     1      36.617   4.786  14.749  0.00  0.00    +0.000 NA
ENDROOT
BRANCH   1  16
ATOM      9  C   UNL     1      35.634   8.132  14.725  0.00  0.00    +0.000 C 
ATOM     10  C   UNL     1      36.296   7.842  13.433  0.00  0.00    +0.000 A 
ATOM     11  C   UNL     1      36.106   8.624  12.297  0.00  0.00    +0.000 A 
ATOM     12  C   UNL     1      36.712   8.364  11.094  0.00  0.00    +0.000 A 
ATOM     13  O   UNL     1      36.531   9.139   9.950  0.00  0.00    +0.000 OA
ATOM     14  C   UNL     1      37.558   7.251  11.040  0.00  0.00    +0.000 A 
ATOM     15  C   UNL     1      37.745   6.477  12.169  0.00  0.00    +0.000 A 
ATOM     16  C   UNL     1      37.131   6.748  13.369  0.00  0.00    +0.000 A 
ENDBRANCH   1  16
BRANCH   3  17
ATOM     17  C   UNL     1      39.532   5.798  17.559  0.00  0.00    +0.000 A 
ATOM     18  C   UNL     1      40.794   6.075  17.059  0.00  0.00    +0.000 A 
ATOM     19  C   UNL     1      41.804   6.437  17.931  0.00  0.00    +0.000 A 
ATOM     20  C   UNL     1      41.512   6.507  19.274  0.00  0.00    +0.000 A 
ATOM     21  C   UNL     1      40.249   6.231  19.774  0.00  0.00    +0.000 A 
ATOM     22  C   UNL     1      39.242   5.870  18.905  0.00  0.00    +0.000 A 
ENDBRANCH   3  17
BRANCH   6  23
ATOM     23  C   UNL     1      36.199   1.953  17.030  0.00  0.00    +0.000 C 
BRANCH  23  24
ATOM     24  C   UNL     1      35.819   0.546  16.863  0.00  0.00    +0.000 C 
BRANCH  24  25
ATOM     25  C   UNL     1      36.661  -0.484  17.504  0.00  0.00    +0.000 A 
ATOM     26  C   UNL     1      36.419  -0.757  18.863  0.00  0.00    +0.000 A 
ATOM     27  C   UNL     1      37.203  -1.689  19.486  0.00  0.00    +0.000 A 
ATOM     28  C   UNL     1      38.206  -2.352  18.816  0.00  0.00    +0.000 A 
ATOM     29  C   UNL     1      38.384  -2.031  17.485  0.00  0.00    +0.000 A 
ATOM     30  N   UNL     1      37.637  -1.135  16.870  0.00  0.00    +0.000 NA
ENDBRANCH  24  25
ENDBRANCH  23  24
ENDBRANCH   6  23
TORSDOF 5
ENDMDL
MODEL 8
REMARK VINA RESULT:      -7.6     23.812     26.845
REMARK  Name = 
REMARK  5 active torsions:
REMARK  status: ('A' for Active; 'I' for Inactive)
REMARK    1  A    between atoms: C_8  and  C_9
REMARK    2  A    between atoms: C_11  and  C_12
REMARK    3  A    between atoms: N_20  and  C_22
REMARK    4  A    between atoms: C_22  and  C_23
REMARK    5  A    between atoms: C_23  and  C_24
REMARK                            x       y       z     vdW  Elec       q    Type
REMARK                         _______ _______ _______ _____ _____    ______ ____
ROOT
ATOM      1  C   UNL     1      13.352   0.056  29.016  0.00  0.00    +0.000 A 
ATOM      2  C   UNL     1      12.356  -0.253  28.117  0.00  0.00    +0.000 A 
ATOM      3  C   UNL     1      12.633  -0.470  26.789  0.00  0.00    +0.000 A 
ATOM      4  C   UNL     1      13.940  -0.370  26.383  0.00  0.00    +0.000 A 
ATOM      5  C   UNL     1      14.928  -0.065  27.276  0.00  0.00    +0.000 A 
ATOM      6  N   UNL     1      16.315   0.043  26.882  0.00  0.00    +0.000 N 
ATOM      7  C   UNL     1      17.291   0.403  27.865  0.00  0.00    +0.000 C 
ATOM      8  N   UNL     1      14.611   0.139  28.558  0.00  0.00    +0.000 NA
ENDROOT
BRANCH   1  16
ATOM      9  C   UNL     1      11.429   1.982  29.750  0.00  0.00    +0.000 C 
ATOM     10  C   UNL     1      12.111   1.217  30.818  0.00  0.00    +0.000 A 
ATOM     11  C   UNL     1      11.846   1.412  32.171  0.00  0.00    +0.000 A 
ATOM     12  C   UNL     1      12.473   0.712  33.170  0.00  0.00    +0.000 A 
ATOM     13  O   UNL     1      12.217   0.897  34.527  0.00  0.00    +0.000 OA
ATOM     14  C   UNL     1      13.421  -0.240  32.776  0.00  0.00    +0.000 A 
ATOM     15  C   UNL     1      13.682  -0.431  31.433  0.00  0.00    +0.000 A 
ATOM     16  C   UNL     1      13.046   0.278  30.442  0.00  0.00    +0.000 A 
ENDBRANCH   1  16
BRANCH   3  17
ATOM     17  C   UNL     1      11.554  -0.794  25.875  0.00  0.00    +0.000 A 
ATOM     18  C   UNL     1      10.491   0.093  25.823  0.00  0.00    +0.000 A 
ATOM     19  C   UNL     1       9.435  -0.164  24.968  0.00  0.00    +0.000 A 
ATOM     20  C   UNL     1       9.484  -1.302  24.196  0.00  0.00    +0.000 A 
ATOM     21  C   UNL     1      10.548  -2.189  24.247  0.00  0.00    +0.000 A 
ATOM     22  C   UNL     1      11.601  -1.933  25.100  0.00  0.00    +0.000 A 
ENDBRANCH   3  17
BRANCH   6  23
ATOM     23  C   UNL     1      16.626  -0.228  25.523  0.00  0.00    +0.000 C 
BRANCH  23  24
ATOM     24  C   UNL     1      17.808  -1.062  25.277  0.00  0.00    +0.000 C 
BRANCH  24  25
ATOM     25  C   UNL     1      18.917  -0.484  24.492  0.00  0.00    +0.000 A 
ATOM     26  C   UNL     1      19.096   0.909  24.563  0.00  0.00    +0.000 A 
ATOM     27  C   UNL     1      20.101   1.473  23.825  0.00  0.00    +0.000 A 
ATOM     28  C   UNL     1      20.924   0.709  23.028  0.00  0.00    +0.000 A 
ATOM     29  C   UNL     1      20.688  -0.651  23.009  0.00  0.00    +0.000 A 
ATOM     30  N   UNL     1      19.724  -1.209  23.715  0.00  0.00    +0.000 NA
ENDBRANCH  24  25
ENDBRANCH  23  24
ENDBRANCH   6  23
TORSDOF 5
ENDMDL
MODEL 9
REMARK VINA RESULT:      -7.5      1.700      2.071
REMARK  Name = 
REMARK  5 active torsions:
REMARK  status: ('A' for Active; 'I' for Inactive)
REMARK    1  A    between atoms: C_8  and  C_9
REMARK    2  A    between atoms: C_11  and  C_12
REMARK    3  A    between atoms: N_20  and  C_22
REMARK    4  A    between atoms: C_22  and  C_23
REMARK    5  A    between atoms: C_23  and  C_24
REMARK                            x       y       z     vdW  Elec       q    Type
REMARK                         _______ _______ _______ _____ _____    ______ ____
ROOT
ATOM      1  C   UNL     1      37.019   3.565  15.888  0.00  0.00    +0.000 A 
ATOM      2  C   UNL     1      38.013   4.031  16.718  0.00  0.00    +0.000 A 
ATOM      3  C   UNL     1      38.524   5.299  16.582  0.00  0.00    +0.000 A 
ATOM      4  C   UNL     1      38.010   6.092  15.587  0.00  0.00    +0.000 A 
ATOM      5  C   UNL     1      37.023   5.629  14.764  0.00  0.00    +0.000 A 
ATOM      6  N   UNL     1      36.456   6.441  13.711  0.00  0.00    +0.000 N 
ATOM      7  C   UNL     1      35.450   5.878  12.862  0.00  0.00    +0.000 C 
ATOM      8  N   UNL     1      36.557   4.388  14.933  0.00  0.00    +0.000 NA
ENDROOT
BRANCH   1  16
ATOM      9  C   UNL     1      38.271   1.391  14.602  0.00  0.00    +0.000 C 
ATOM     10  C   UNL     1      37.068   1.132  15.424  0.00  0.00    +0.000 A 
ATOM     11  C   UNL     1      36.526  -0.141  15.587  0.00  0.00    +0.000 A 
ATOM     12  C   UNL     1      35.410  -0.393  16.344  0.00  0.00    +0.000 A 
ATOM     13  O   UNL     1      34.859  -1.661  16.514  0.00  0.00    +0.000 OA
ATOM     14  C   UNL     1      34.812   0.704  16.973  0.00  0.00    +0.000 A 
ATOM     15  C   UNL     1      35.352   1.965  16.810  0.00  0.00    +0.000 A 
ATOM     16  C   UNL     1      36.470   2.205  16.048  0.00  0.00    +0.000 A 
ENDBRANCH   1  16
BRANCH   3  17
ATOM     17  C   UNL     1      39.571   5.750  17.479  0.00  0.00    +0.000 A 
ATOM     18  C   UNL     1      39.266   5.784  18.830  0.00  0.00    +0.000 A 
ATOM     19  C   UNL     1      40.227   6.204  19.731  0.00  0.00    +0.000 A 
ATOM     20  C   UNL     1      41.459   6.574  19.244  0.00  0.00    +0.000 A 
ATOM     21  C   UNL     1      41.765   6.539  17.893  0.00  0.00    +0.000 A 
ATOM     22  C   UNL     1      40.807   6.121  16.994  0.00  0.00    +0.000 A 
ENDBRANCH   3  17
BRANCH   6  23
ATOM     23  C   UNL     1      36.936   7.772  13.588  0.00  0.00    +0.000 C 
BRANCH  23  24
ATOM     24  C   UNL     1      36.309   8.601  12.552  0.00  0.00    +0.000 C 
BRANCH  24  25
ATOM     25  C   UNL     1      35.691   9.878  12.961  0.00  0.00    +0.000 A 
ATOM     26  C   UNL     1      36.551  10.886  13.431  0.00  0.00    +0.000 A 
ATOM     27  C   UNL     1      36.001  12.070  13.839  0.00  0.00    +0.000 A 
ATOM     28  C   UNL     1      34.642  12.285  13.798  0.00  0.00    +0.000 A 
ATOM     29  C   UNL     1      33.861  11.250  13.324  0.00  0.00    +0.000 A 
ATOM     30  N   UNL     1      34.376  10.103  12.927  0.00  0.00    +0.000 NA
ENDBRANCH  24  25
ENDBRANCH  23  24
ENDBRANCH   6  23
TORSDOF 5
ENDMDL
MODEL 10
REMARK VINA RESULT:      -7.4      4.968      8.109
REMARK  Name = 
REMARK  5 active torsions:
REMARK  status: ('A' for Active; 'I' for Inactive)
REMARK    1  A    between atoms: C_8  and  C_9
REMARK    2  A    between atoms: C_11  and  C_12
REMARK    3  A    between atoms: N_20  and  C_22
REMARK    4  A    between atoms: C_22  and  C_23
REMARK    5  A    between atoms: C_23  and  C_24
REMARK                            x       y       z     vdW  Elec       q    Type
REMARK                         _______ _______ _______ _____ _____    ______ ____
ROOT
ATOM      1  C   UNL     1      41.126  -1.636  13.889  0.00  0.00    +0.000 A 
ATOM      2  C   UNL     1      40.443  -1.903  15.054  0.00  0.00    +0.000 A 
ATOM      3  C   UNL     1      39.165  -1.441  15.257  0.00  0.00    +0.000 A 
ATOM      4  C   UNL     1      38.586  -0.701  14.256  0.00  0.00    +0.000 A 
ATOM      5  C   UNL     1      39.264  -0.438  13.100  0.00  0.00    +0.000 A 
ATOM      6  N   UNL     1      38.681   0.334  12.025  0.00  0.00    +0.000 N 
ATOM      7  C   UNL     1      39.464   0.603  10.858  0.00  0.00    +0.000 C 
ATOM      8  N   UNL     1      40.506  -0.907  12.947  0.00  0.00    +0.000 NA
ENDROOT
BRANCH   1  16
ATOM      9  C   UNL     1      41.602  -3.585  11.908  0.00  0.00    +0.000 C 
ATOM     10  C   UNL     1      42.744  -3.099  12.715  0.00  0.00    +0.000 A 
ATOM     11  C   UNL     1      44.044  -3.566  12.539  0.00  0.00    +0.000 A 
ATOM     12  C   UNL     1      45.110  -3.125  13.282  0.00  0.00    +0.000 A 
ATOM     13  O   UNL     1      46.415  -3.585  13.115  0.00  0.00    +0.000 OA
ATOM     14  C   UNL     1      44.844  -2.156  14.255  0.00  0.00    +0.000 A 
ATOM     15  C   UNL     1      43.554  -1.694  14.428  0.00  0.00    +0.000 A 
ATOM     16  C   UNL     1      42.494  -2.144  13.677  0.00  0.00    +0.000 A 
ENDBRANCH   1  16
BRANCH   3  17
ATOM     17  C   UNL     1      38.481  -1.747  16.499  0.00  0.00    +0.000 A 
ATOM     18  C   UNL     1      37.358  -0.992  16.797  0.00  0.00    +0.000 A 
ATOM     19  C   UNL     1      36.665  -1.241  17.968  0.00  0.00    +0.000 A 
ATOM     20  C   UNL     1      37.124  -2.239  18.796  0.00  0.00    +0.000 A 
ATOM     21  C   UNL     1      38.246  -2.995  18.498  0.00  0.00    +0.000 A 
ATOM     22  C   UNL     1      38.938  -2.747  17.331  0.00  0.00    +0.000 A 
ENDBRANCH   3  17
BRANCH   6  23
ATOM     23  C   UNL     1      37.342   0.776  12.196  0.00  0.00    +0.000 C 
BRANCH  23  24
ATOM     24  C   UNL     1      37.165   2.148  12.686  0.00  0.00    +0.000 C 
BRANCH  24  25
ATOM     25  C   UNL     1      36.770   2.338  14.096  0.00  0.00    +0.000 A 
ATOM     26  C   UNL     1      35.606   1.680  14.532  0.00  0.00    +0.000 A 
ATOM     27  C   UNL     1      35.205   1.859  15.827  0.00  0.00    +0.000 A 
ATOM     28  C   UNL     1      35.912   2.661  16.695  0.00  0.00    +0.000 A 
ATOM     29  C   UNL     1      37.043   3.275  16.196  0.00  0.00    +0.000 A 
ATOM     30  N   UNL     1      37.443   3.112  14.950  0.00  0.00    +0.000 NA
ENDBRANCH  24  25
ENDBRANCH  23  24
ENDBRANCH   6  23
TORSDOF 5
ENDMDL
