MODEL 1
REMARK VINA RESULT:      -5.5      0.000      0.000
REMARK  Name = 
REMARK  4 active torsions:
REMARK  status: ('A' for Active; 'I' for Inactive)
REMARK    1  A    between atoms: C_2  and  C_4
REMARK    2  A    between atoms: C_4  and  C_5
REMARK    3  A    between atoms: N_9  and  C_10
REMARK    4  A    between atoms: C_10  and  C_11
REMARK                            x       y       z     vdW  Elec       q    Type
REMARK                         _______ _______ _______ _____ _____    ______ ____
ROOT
ATOM      1  C   UNL     1      28.610  27.127  22.897  0.00  0.00    +0.000 C 
ATOM      2  N   UNL     1      29.028  26.556  21.503  0.00  0.00    +0.000 NA
ATOM      3  C   UNL     1      29.055  25.191  21.559  0.00  0.00    +0.000 C 
ATOM      4  O   UNL     1      29.702  24.392  20.793  0.00  0.00    +0.000 OA
ATOM      5  N   UNL     1      28.248  24.768  22.609  0.00  0.00    +0.000 N 
ATOM      6  C   UNL     1      27.686  25.833  23.255  0.00  0.00    +0.000 C 
ATOM      7  O   UNL     1      26.703  25.986  23.989  0.00  0.00    +0.000 OA
ENDROOT
BRANCH   1   8
ATOM      8  C   UNL     1      29.917  26.497  23.655  0.00  0.00    +0.000 C 
BRANCH   8  10
ATOM      9  C   UNL     1      29.943  26.179  26.162  0.00  0.00    +0.000 C 
ATOM     10  C   UNL     1      29.937  27.031  24.999  0.00  0.00    +0.000 C 
ATOM     11  C   UNL     1      29.964  28.474  25.116  0.00  0.00    +0.000 C 
ENDBRANCH   8  10
ENDBRANCH   1   8
BRANCH   5  12
ATOM     12  C   UNL     1      27.981  23.366  23.037  0.00  0.00    +0.000 C 
BRANCH  12  13
ATOM     13  C   UNL     1      28.827  23.044  24.209  0.00  0.00    +0.000 A 
ATOM     14  C   UNL     1      28.192  22.844  25.404  0.00  0.00    +0.000 A 
ATOM     15  C   UNL     1      28.896  22.539  26.547  0.00  0.00    +0.000 A 
ATOM     16  C   UNL     1      30.263  22.441  26.455  0.00  0.00    +0.000 A 
ATOM     17 CL   UNL     1      31.195  22.053  27.896  0.00  0.00    +0.000 Cl
ATOM     18  C   UNL     1      30.926  22.637  25.267  0.00  0.00    +0.000 A 
ATOM     19  C   UNL     1      30.191  22.942  24.130  0.00  0.00    +0.000 A 
ENDBRANCH  12  13
ENDBRANCH   5  12
TORSDOF 4
ENDMDL
MODEL 2
REMARK VINA RESULT:      -5.3      2.334      3.787
REMARK  Name = 
REMARK  4 active torsions:
REMARK  status: ('A' for Active; 'I' for Inactive)
REMARK    1  A    between atoms: C_2  and  C_4
REMARK    2  A    between atoms: C_4  and  C_5
REMARK    3  A    between atoms: N_9  and  C_10
REMARK    4  A    between atoms: C_10  and  C_11
REMARK                            x       y       z     vdW  Elec       q    Type
REMARK                         _______ _______ _______ _____ _____    ______ ____
ROOT
ATOM      1  C   UNL     1      29.359  23.817  22.973  0.00  0.00    +0.000 C 
ATOM      2  N   UNL     1      28.075  23.315  22.237  0.00  0.00    +0.000 NA
ATOM      3  C   UNL     1      26.973  23.605  22.991  0.00  0.00    +0.000 C 
ATOM      4  O   UNL     1      25.824  23.039  22.945  0.00  0.00    +0.000 OA
ATOM      5  N   UNL     1      27.284  24.648  23.857  0.00  0.00    +0.000 N 
ATOM      6  C   UNL     1      28.578  25.055  23.691  0.00  0.00    +0.000 C 
ATOM      7  O   UNL     1      29.208  26.085  23.955  0.00  0.00    +0.000 OA
ENDROOT
BRANCH   1   8
ATOM      8  C   UNL     1      29.126  22.828  24.258  0.00  0.00    +0.000 C 
BRANCH   8  10
ATOM      9  C   UNL     1      31.610  23.225  24.500  0.00  0.00    +0.000 C 
ATOM     10  C   UNL     1      30.330  22.869  25.059  0.00  0.00    +0.000 C 
ATOM     11  C   UNL     1      30.178  22.546  26.462  0.00  0.00    +0.000 C 
ENDBRANCH   8  10
ENDBRANCH   1   8
BRANCH   5  12
ATOM     12  C   UNL     1      26.386  25.292  24.858  0.00  0.00    +0.000 C 
BRANCH  12  13
ATOM     13  C   UNL     1      26.742  24.811  26.213  0.00  0.00    +0.000 A 
ATOM     14  C   UNL     1      27.490  25.645  26.997  0.00  0.00    +0.000 A 
ATOM     15  C   UNL     1      27.868  25.282  28.271  0.00  0.00    +0.000 A 
ATOM     16  C   UNL     1      27.470  24.053  28.735  0.00  0.00    +0.000 A 
ATOM     17 CL   UNL     1      27.934  23.556  30.359  0.00  0.00    +0.000 Cl
ATOM     18  C   UNL     1      26.717  23.196  27.968  0.00  0.00    +0.000 A 
ATOM     19  C   UNL     1      26.351  23.587  26.688  0.00  0.00    +0.000 A 
ENDBRANCH  12  13
ENDBRANCH   5  12
TORSDOF 4
ENDMDL
MODEL 3
REMARK VINA RESULT:      -5.0      2.328      3.356
REMARK  Name = 
REMARK  4 active torsions:
REMARK  status: ('A' for Active; 'I' for Inactive)
REMARK    1  A    between atoms: C_2  and  C_4
REMARK    2  A    between atoms: C_4  and  C_5
REMARK    3  A    between atoms: N_9  and  C_10
REMARK    4  A    between atoms: C_10  and  C_11
REMARK                            x       y       z     vdW  Elec       q    Type
REMARK                         _______ _______ _______ _____ _____    ______ ____
ROOT
ATOM      1  C   UNL     1      25.451  25.410  24.775  0.00  0.00    +0.000 C 
ATOM      2  N   UNL     1      26.489  26.346  24.075  0.00  0.00    +0.000 NA
ATOM      3  C   UNL     1      27.633  25.645  23.813  0.00  0.00    +0.000 C 
ATOM      4  O   UNL     1      28.810  26.115  23.625  0.00  0.00    +0.000 OA
ATOM      5  N   UNL     1      27.329  24.288  23.779  0.00  0.00    +0.000 N 
ATOM      6  C   UNL     1      26.001  24.076  24.016  0.00  0.00    +0.000 C 
ATOM      7  O   UNL     1      25.211  23.153  23.785  0.00  0.00    +0.000 OA
ENDROOT
BRANCH   1   8
ATOM      8  C   UNL     1      26.414  25.155  26.076  0.00  0.00    +0.000 C 
BRANCH   8  10
ATOM      9  C   UNL     1      25.975  23.849  28.194  0.00  0.00    +0.000 C 
ATOM     10  C   UNL     1      25.558  24.787  27.182  0.00  0.00    +0.000 C 
ATOM     11  C   UNL     1      24.258  25.424  27.228  0.00  0.00    +0.000 C 
ENDBRANCH   8  10
ENDBRANCH   1   8
BRANCH   5  12
ATOM     12  C   UNL     1      28.266  23.158  23.525  0.00  0.00    +0.000 C 
BRANCH  12  13
ATOM     13  C   UNL     1      29.078  22.914  24.739  0.00  0.00    +0.000 A 
ATOM     14  C   UNL     1      30.420  23.165  24.657  0.00  0.00    +0.000 A 
ATOM     15  C   UNL     1      31.253  22.968  25.735  0.00  0.00    +0.000 A 
ATOM     16  C   UNL     1      30.697  22.510  26.904  0.00  0.00    +0.000 A 
ATOM     17 CL   UNL     1      31.732  22.247  28.303  0.00  0.00    +0.000 Cl
ATOM     18  C   UNL     1      29.351  22.250  27.014  0.00  0.00    +0.000 A 
ATOM     19  C   UNL     1      28.535  22.457  25.912  0.00  0.00    +0.000 A 
ENDBRANCH  12  13
ENDBRANCH   5  12
TORSDOF 4
ENDMDL
MODEL 4
REMARK VINA RESULT:      -4.9     12.414     14.467
REMARK  Name = 
REMARK  4 active torsions:
REMARK  status: ('A' for Active; 'I' for Inactive)
REMARK    1  A    between atoms: C_2  and  C_4
REMARK    2  A    between atoms: C_4  and  C_5
REMARK    3  A    between atoms: N_9  and  C_10
REMARK    4  A    between atoms: C_10  and  C_11
REMARK                            x       y       z     vdW  Elec       q    Type
REMARK                         _______ _______ _______ _____ _____    ______ ____
ROOT
ATOM      1  C   UNL     1      29.376  20.754  10.969  0.00  0.00    +0.000 C 
ATOM      2  N   UNL     1      29.990  20.762   9.531  0.00  0.00    +0.000 NA
ATOM      3  C   UNL     1      31.158  21.472   9.537  0.00  0.00    +0.000 C 
ATOM      4  O   UNL     1      31.735  22.032   8.539  0.00  0.00    +0.000 OA
ATOM      5  N   UNL     1      31.655  21.507  10.835  0.00  0.00    +0.000 N 
ATOM      6  C   UNL     1      30.834  20.831  11.693  0.00  0.00    +0.000 C 
ATOM      7  O   UNL     1      30.975  20.316  12.809  0.00  0.00    +0.000 OA
ENDROOT
BRANCH   1   8
ATOM      8  C   UNL     1      29.190  22.381  11.004  0.00  0.00    +0.000 C 
BRANCH   8  10
ATOM      9  C   UNL     1      26.679  22.309  11.272  0.00  0.00    +0.000 C 
ATOM     10  C   UNL     1      27.989  22.663  11.758  0.00  0.00    +0.000 C 
ATOM     11  C   UNL     1      28.173  23.310  13.040  0.00  0.00    +0.000 C 
ENDBRANCH   8  10
ENDBRANCH   1   8
BRANCH   5  12
ATOM     12  C   UNL     1      32.905  22.167  11.308  0.00  0.00    +0.000 C 
BRANCH  12  13
ATOM     13  C   UNL     1      34.053  21.260  11.077  0.00  0.00    +0.000 A 
ATOM     14  C   UNL     1      34.364  20.377  12.074  0.00  0.00    +0.000 A 
ATOM     15  C   UNL     1      35.414  19.495  11.948  0.00  0.00    +0.000 A 
ATOM     16  C   UNL     1      36.146  19.527  10.787  0.00  0.00    +0.000 A 
ATOM     17 CL   UNL     1      37.496  18.415  10.591  0.00  0.00    +0.000 Cl
ATOM     18  C   UNL     1      35.855  20.405   9.769  0.00  0.00    +0.000 A 
ATOM     19  C   UNL     1      34.791  21.282   9.923  0.00  0.00    +0.000 A 
ENDBRANCH  12  13
ENDBRANCH   5  12
TORSDOF 4
ENDMDL
MODEL 5
REMARK VINA RESULT:      -4.8      3.783      5.149
REMARK  Name = 
REMARK  4 active torsions:
REMARK  status: ('A' for Active; 'I' for Inactive)
REMARK    1  A    between atoms: C_2  and  C_4
REMARK    2  A    between atoms: C_4  and  C_5
REMARK    3  A    between atoms: N_9  and  C_10
REMARK    4  A    between atoms: C_10  and  C_11
REMARK                            x       y       z     vdW  Elec       q    Type
REMARK                         _______ _______ _______ _____ _____    ______ ____
ROOT
ATOM      1  C   UNL     1      29.169  24.487  23.613  0.00  0.00    +0.000 C 
ATOM      2  N   UNL     1      28.026  24.220  22.581  0.00  0.00    +0.000 NA
ATOM      3  C   UNL     1      26.963  23.643  23.216  0.00  0.00    +0.000 C 
ATOM      4  O   UNL     1      26.032  22.934  22.692  0.00  0.00    +0.000 OA
ATOM      5  N   UNL     1      27.033  23.943  24.572  0.00  0.00    +0.000 N 
ATOM      6  C   UNL     1      28.129  24.711  24.848  0.00  0.00    +0.000 C 
ATOM      7  O   UNL     1      28.451  25.471  25.769  0.00  0.00    +0.000 OA
ENDROOT
BRANCH   1   8
ATOM      8  C   UNL     1      29.358  22.898  23.961  0.00  0.00    +0.000 C 
BRANCH   8  10
ATOM      9  C   UNL     1      31.788  23.313  24.516  0.00  0.00    +0.000 C 
ATOM     10  C   UNL     1      30.490  22.782  24.853  0.00  0.00    +0.000 C 
ATOM     11  C   UNL     1      30.249  22.114  26.115  0.00  0.00    +0.000 C 
ENDBRANCH   8  10
ENDBRANCH   1   8
BRANCH   5  12
ATOM     12  C   UNL     1      26.084  23.525  25.642  0.00  0.00    +0.000 C 
BRANCH  12  13
ATOM     13  C   UNL     1      25.243  24.682  26.028  0.00  0.00    +0.000 A 
ATOM     14  C   UNL     1      25.025  24.880  27.363  0.00  0.00    +0.000 A 
ATOM     15  C   UNL     1      24.256  25.930  27.815  0.00  0.00    +0.000 A 
ATOM     16  C   UNL     1      23.713  26.779  26.882  0.00  0.00    +0.000 A 
ATOM     17 CL   UNL     1      22.726  28.131  27.424  0.00  0.00    +0.000 Cl
ATOM     18  C   UNL     1      23.917  26.603  25.534  0.00  0.00    +0.000 A 
ATOM     19  C   UNL     1      24.696  25.537  25.107  0.00  0.00    +0.000 A 
ENDBRANCH  12  13
ENDBRANCH   5  12
TORSDOF 4
ENDMDL
MODEL 6
REMARK VINA RESULT:      -4.8      4.757      6.322
REMARK  Name = 
REMARK  4 active torsions:
REMARK  status: ('A' for Active; 'I' for Inactive)
REMARK    1  A    between atoms: C_2  and  C_4
REMARK    2  A    between atoms: C_4  and  C_5
REMARK    3  A    between atoms: N_9  and  C_10
REMARK    4  A    between atoms: C_10  and  C_11
REMARK                            x       y       z     vdW  Elec       q    Type
REMARK                         _______ _______ _______ _____ _____    ______ ____
ROOT
ATOM      1  C   UNL     1      26.148  25.428  29.802  0.00  0.00    +0.000 C 
ATOM      2  N   UNL     1      25.683  24.281  30.756  0.00  0.00    +0.000 NA
ATOM      3  C   UNL     1      26.395  23.146  30.487  0.00  0.00    +0.000 C 
ATOM      4  O   UNL     1      26.063  21.936  30.751  0.00  0.00    +0.000 OA
ATOM      5  N   UNL     1      27.583  23.500  29.857  0.00  0.00    +0.000 N 
ATOM      6  C   UNL     1      27.671  24.855  29.702  0.00  0.00    +0.000 C 
ATOM      7  O   UNL     1      28.598  25.652  29.519  0.00  0.00    +0.000 OA
ENDROOT
BRANCH   1   8
ATOM      8  C   UNL     1      25.680  24.627  28.452  0.00  0.00    +0.000 C 
BRANCH   8  10
ATOM      9  C   UNL     1      23.890  26.409  28.369  0.00  0.00    +0.000 C 
ATOM     10  C   UNL     1      24.800  25.505  27.712  0.00  0.00    +0.000 C 
ATOM     11  C   UNL     1      24.892  25.437  26.268  0.00  0.00    +0.000 C 
ENDBRANCH   8  10
ENDBRANCH   1   8
BRANCH   5  12
ATOM     12  C   UNL     1      28.664  22.589  29.387  0.00  0.00    +0.000 C 
BRANCH  12  13
ATOM     13  C   UNL     1      28.805  22.717  27.918  0.00  0.00    +0.000 A 
ATOM     14  C   UNL     1      27.705  22.434  27.156  0.00  0.00    +0.000 A 
ATOM     15  C   UNL     1      27.742  22.526  25.782  0.00  0.00    +0.000 A 
ATOM     16  C   UNL     1      28.921  22.912  25.195  0.00  0.00    +0.000 A 
ATOM     17 CL   UNL     1      29.005  23.040  23.441  0.00  0.00    +0.000 Cl
ATOM     18  C   UNL     1      30.042  23.202  25.936  0.00  0.00    +0.000 A 
ATOM     19  C   UNL     1      29.976  23.102  27.319  0.00  0.00    +0.000 A 
ENDBRANCH  12  13
ENDBRANCH   5  12
TORSDOF 4
ENDMDL
MODEL 7
REMARK VINA RESULT:      -4.7      1.872      2.621
REMARK  Name = 
REMARK  4 active torsions:
REMARK  status: ('A' for Active; 'I' for Inactive)
REMARK    1  A    between atoms: C_2  and  C_4
REMARK    2  A    between atoms: C_4  and  C_5
REMARK    3  A    between atoms: N_9  and  C_10
REMARK    4  A    between atoms: C_10  and  C_11
REMARK                            x       y       z     vdW  Elec       q    Type
REMARK                         _______ _______ _______ _____ _____    ______ ____
ROOT
ATOM      1  C   UNL     1      28.292  26.446  23.229  0.00  0.00    +0.000 C 
ATOM      2  N   UNL     1      28.340  25.397  22.072  0.00  0.00    +0.000 NA
ATOM      3  C   UNL     1      27.671  24.267  22.452  0.00  0.00    +0.000 C 
ATOM      4  O   UNL     1      27.810  23.083  21.982  0.00  0.00    +0.000 OA
ATOM      5  N   UNL     1      26.777  24.595  23.465  0.00  0.00    +0.000 N 
ATOM      6  C   UNL     1      26.844  25.926  23.767  0.00  0.00    +0.000 C 
ATOM      7  O   UNL     1      26.086  26.733  24.317  0.00  0.00    +0.000 OA
ENDROOT
BRANCH   1   8
ATOM      8  C   UNL     1      29.108  25.481  24.270  0.00  0.00    +0.000 C 
BRANCH   8  10
ATOM      9  C   UNL     1      30.326  27.523  25.125  0.00  0.00    +0.000 C 
ATOM     10  C   UNL     1      29.576  26.314  25.356  0.00  0.00    +0.000 C 
ATOM     11  C   UNL     1      29.240  25.874  26.694  0.00  0.00    +0.000 C 
ENDBRANCH   8  10
ENDBRANCH   1   8
BRANCH   5  12
ATOM     12  C   UNL     1      25.840  23.680  24.176  0.00  0.00    +0.000 C 
BRANCH  12  13
ATOM     13  C   UNL     1      26.343  23.435  25.547  0.00  0.00    +0.000 A 
ATOM     14  C   UNL     1      27.426  22.611  25.679  0.00  0.00    +0.000 A 
ATOM     15  C   UNL     1      27.963  22.326  26.915  0.00  0.00    +0.000 A 
ATOM     16  C   UNL     1      27.378  22.897  28.019  0.00  0.00    +0.000 A 
ATOM     17 CL   UNL     1      28.037  22.555  29.614  0.00  0.00    +0.000 Cl
ATOM     18  C   UNL     1      26.288  23.729  27.914  0.00  0.00    +0.000 A 
ATOM     19  C   UNL     1      25.768  23.998  26.656  0.00  0.00    +0.000 A 
ENDBRANCH  12  13
ENDBRANCH   5  12
TORSDOF 4
ENDMDL
MODEL 8
REMARK VINA RESULT:      -4.6      2.074      2.876
REMARK  Name = 
REMARK  4 active torsions:
REMARK  status: ('A' for Active; 'I' for Inactive)
REMARK    1  A    between atoms: C_2  and  C_4
REMARK    2  A    between atoms: C_4  and  C_5
REMARK    3  A    between atoms: N_9  and  C_10
REMARK    4  A    between atoms: C_10  and  C_11
REMARK                            x       y       z     vdW  Elec       q    Type
REMARK                         _______ _______ _______ _____ _____    ______ ____
ROOT
ATOM      1  C   UNL     1      27.149  25.491  23.285  0.00  0.00    +0.000 C 
ATOM      2  N   UNL     1      28.573  26.109  23.108  0.00  0.00    +0.000 NA
ATOM      3  C   UNL     1      29.507  25.262  23.637  0.00  0.00    +0.000 C 
ATOM      4  O   UNL     1      30.688  25.556  24.038  0.00  0.00    +0.000 OA
ATOM      5  N   UNL     1      28.974  23.979  23.682  0.00  0.00    +0.000 N 
ATOM      6  C   UNL     1      27.699  23.960  23.193  0.00  0.00    +0.000 C 
ATOM      7  O   UNL     1      26.954  23.084  22.737  0.00  0.00    +0.000 OA
ENDROOT
BRANCH   1   8
ATOM      8  C   UNL     1      27.240  25.505  24.920  0.00  0.00    +0.000 C 
BRANCH   8  10
ATOM      9  C   UNL     1      25.430  24.448  26.332  0.00  0.00    +0.000 C 
ATOM     10  C   UNL     1      25.886  25.475  25.429  0.00  0.00    +0.000 C 
ATOM     11  C   UNL     1      25.013  26.544  24.992  0.00  0.00    +0.000 C 
ENDBRANCH   8  10
ENDBRANCH   1   8
BRANCH   5  12
ATOM     12  C   UNL     1      29.637  22.741  24.180  0.00  0.00    +0.000 C 
BRANCH  12  13
ATOM     13  C   UNL     1      29.613  22.736  25.661  0.00  0.00    +0.000 A 
ATOM     14  C   UNL     1      28.434  22.400  26.267  0.00  0.00    +0.000 A 
ATOM     15  C   UNL     1      28.318  22.369  27.639  0.00  0.00    +0.000 A 
ATOM     16  C   UNL     1      29.425  22.685  28.387  0.00  0.00    +0.000 A 
ATOM     17 CL   UNL     1      29.313  22.655  30.143  0.00  0.00    +0.000 Cl
ATOM     18  C   UNL     1      30.622  23.026  27.803  0.00  0.00    +0.000 A 
ATOM     19  C   UNL     1      30.711  23.050  26.419  0.00  0.00    +0.000 A 
ENDBRANCH  12  13
ENDBRANCH   5  12
TORSDOF 4
ENDMDL
MODEL 9
REMARK VINA RESULT:      -4.6      4.492      6.569
REMARK  Name = 
REMARK  4 active torsions:
REMARK  status: ('A' for Active; 'I' for Inactive)
REMARK    1  A    between atoms: C_2  and  C_4
REMARK    2  A    between atoms: C_4  and  C_5
REMARK    3  A    between atoms: N_9  and  C_10
REMARK    4  A    between atoms: C_10  and  C_11
REMARK                            x       y       z     vdW  Elec       q    Type
REMARK                         _______ _______ _______ _____ _____    ______ ____
ROOT
ATOM      1  C   UNL     1      27.272  23.776  27.504  0.00  0.00    +0.000 C 
ATOM      2  N   UNL     1      26.101  23.386  28.461  0.00  0.00    +0.000 NA
ATOM      3  C   UNL     1      26.545  23.395  29.754  0.00  0.00    +0.000 C 
ATOM      4  O   UNL     1      26.040  22.777  30.757  0.00  0.00    +0.000 OA
ATOM      5  N   UNL     1      27.673  24.204  29.835  0.00  0.00    +0.000 N 
ATOM      6  C   UNL     1      27.987  24.732  28.615  0.00  0.00    +0.000 C 
ATOM      7  O   UNL     1      28.646  25.705  28.230  0.00  0.00    +0.000 OA
ENDROOT
BRANCH   1   8
ATOM      8  C   UNL     1      28.180  22.480  27.928  0.00  0.00    +0.000 C 
BRANCH   8  10
ATOM      9  C   UNL     1      30.632  22.119  27.436  0.00  0.00    +0.000 C 
ATOM     10  C   UNL     1      29.288  22.406  27.001  0.00  0.00    +0.000 C 
ATOM     11  C   UNL     1      28.973  22.623  25.605  0.00  0.00    +0.000 C 
ENDBRANCH   8  10
ENDBRANCH   1   8
BRANCH   5  12
ATOM     12  C   UNL     1      28.484  24.507  31.048  0.00  0.00    +0.000 C 
BRANCH  12  13
ATOM     13  C   UNL     1      29.740  23.722  31.003  0.00  0.00    +0.000 A 
ATOM     14  C   UNL     1      30.873  24.376  30.608  0.00  0.00    +0.000 A 
ATOM     15  C   UNL     1      32.086  23.727  30.536  0.00  0.00    +0.000 A 
ATOM     16  C   UNL     1      32.126  22.397  30.876  0.00  0.00    +0.000 A 
ATOM     17 CL   UNL     1      33.659  21.537  30.797  0.00  0.00    +0.000 Cl
ATOM     18  C   UNL     1      31.002  21.716  31.277  0.00  0.00    +0.000 A 
ATOM     19  C   UNL     1      29.793  22.394  31.340  0.00  0.00    +0.000 A 
ENDBRANCH  12  13
ENDBRANCH   5  12
TORSDOF 4
ENDMDL
MODEL 10
REMARK VINA RESULT:      -4.6      3.915      6.437
REMARK  Name = 
REMARK  4 active torsions:
REMARK  status: ('A' for Active; 'I' for Inactive)
REMARK    1  A    between atoms: C_2  and  C_4
REMARK    2  A    between atoms: C_4  and  C_5
REMARK    3  A    between atoms: N_9  and  C_10
REMARK    4  A    between atoms: C_10  and  C_11
REMARK                            x       y       z     vdW  Elec       q    Type
REMARK                         _______ _______ _______ _____ _____    ______ ____
ROOT
ATOM      1  C   UNL     1      28.134  23.685  22.676  0.00  0.00    +0.000 C 
ATOM      2  N   UNL     1      26.915  24.653  22.816  0.00  0.00    +0.000 NA
ATOM      3  C   UNL     1      27.350  25.947  22.756  0.00  0.00    +0.000 C 
ATOM      4  O   UNL     1      26.758  26.991  23.209  0.00  0.00    +0.000 OA
ATOM      5  N   UNL     1      28.579  25.978  22.107  0.00  0.00    +0.000 N 
ATOM      6  C   UNL     1      28.969  24.722  21.736  0.00  0.00    +0.000 C 
ATOM      7  O   UNL     1      29.759  24.267  20.901  0.00  0.00    +0.000 OA
ENDROOT
BRANCH   1   8
ATOM      8  C   UNL     1      28.849  24.233  24.044  0.00  0.00    +0.000 C 
BRANCH   8  10
ATOM      9  C   UNL     1      30.482  22.415  24.687  0.00  0.00    +0.000 C 
ATOM     10  C   UNL     1      29.211  23.078  24.836  0.00  0.00    +0.000 C 
ATOM     11  C   UNL     1      28.229  22.629  25.800  0.00  0.00    +0.000 C 
ENDBRANCH   8  10
ENDBRANCH   1   8
BRANCH   5  12
ATOM     12  C   UNL     1      29.419  27.174  21.816  0.00  0.00    +0.000 C 
BRANCH  12  13
ATOM     13  C   UNL     1      29.200  27.594  20.412  0.00  0.00    +0.000 A 
ATOM     14  C   UNL     1      28.046  28.273  20.134  0.00  0.00    +0.000 A 
ATOM     15  C   UNL     1      27.758  28.703  18.858  0.00  0.00    +0.000 A 
ATOM     16  C   UNL     1      28.667  28.430  17.866  0.00  0.00    +0.000 A 
ATOM     17 CL   UNL     1      28.331  28.965  16.223  0.00  0.00    +0.000 Cl
ATOM     18  C   UNL     1      29.834  27.749  18.118  0.00  0.00    +0.000 A 
ATOM     19  C   UNL     1      30.099  27.327  19.413  0.00  0.00    +0.000 A 
ENDBRANCH  12  13
ENDBRANCH   5  12
TORSDOF 4
ENDMDL
