MODEL 1
REMARK VINA RESULT:      -7.0      0.000      0.000
REMARK  Name = 
REMARK  3 active torsions:
REMARK  status: ('A' for Active; 'I' for Inactive)
REMARK    1  A    between atoms: N_5  and  C_6
REMARK    2  A    between atoms: C_6  and  C_7
REMARK    3  A    between atoms: C_7  and  C_9
REMARK                            x       y       z     vdW  Elec       q    Type
REMARK                         _______ _______ _______ _____ _____    ______ ____
ROOT
ATOM      1  C   UNL     1      17.395  10.823  36.990  0.00  0.00    +0.000 C 
ATOM      2  O   UNL     1      17.054   9.901  36.297  0.00  0.00    +0.000 OA
ENDROOT
BRANCH   1   3
ATOM      3  C   UNL     1      18.635  10.727  37.775  0.00  0.00    +0.000 C 
ATOM      4  C   UNL     1      19.171  12.131  37.954  0.00  0.00    +0.000 C 
ATOM      5  C   UNL     1      20.470  12.092  38.691  0.00  0.00    +0.000 C 
ATOM      6  C   UNL     1      20.241  11.383  40.013  0.00  0.00    +0.000 C 
ATOM      7  C   UNL     1      19.749   9.975  39.812  0.00  0.00    +0.000 C 
ATOM      8  C   UNL     1      20.819   9.236  39.003  0.00  0.00    +0.000 C 
ATOM      9  C   UNL     1      20.974   9.924  37.670  0.00  0.00    +0.000 C 
ATOM     10  C   UNL     1      21.489  11.347  37.832  0.00  0.00    +0.000 C 
ATOM     11  C   UNL     1      19.631   9.896  36.980  0.00  0.00    +0.000 C 
ATOM     12  C   UNL     1      18.438  10.029  39.100  0.00  0.00    +0.000 C 
ENDBRANCH   1   3
BRANCH   1  13
ATOM     13  C   UNL     1      16.575  12.042  37.052  0.00  0.00    +0.000 C 
BRANCH  13  18
ATOM     14  C   UNL     1      11.042  11.119  37.693  0.00  0.00    +0.000 C 
ATOM     15  C   UNL     1      12.507  11.360  37.528  0.00  0.00    +0.000 A 
ATOM     16  C   UNL     1      13.397  10.905  38.467  0.00  0.00    +0.000 A 
ATOM     17  C   UNL     1      14.741  11.131  38.309  0.00  0.00    +0.000 A 
ATOM     18  N   UNL     1      15.185  11.796  37.238  0.00  0.00    +0.000 N 
ATOM     19  C   UNL     1      14.310  12.237  36.327  0.00  0.00    +0.000 A 
ATOM     20  N   UNL     1      14.746  12.956  35.161  0.00  0.00    +0.000 NA
ATOM     21  C   UNL     1      12.948  12.038  36.436  0.00  0.00    +0.000 A 
ENDBRANCH  13  18
ENDBRANCH   1  13
TORSDOF 3
ENDMDL
MODEL 2
REMARK VINA RESULT:      -6.5     19.228     20.866
REMARK  Name = 
REMARK  3 active torsions:
REMARK  status: ('A' for Active; 'I' for Inactive)
REMARK    1  A    between atoms: N_5  and  C_6
REMARK    2  A    between atoms: C_6  and  C_7
REMARK    3  A    between atoms: C_7  and  C_9
REMARK                            x       y       z     vdW  Elec       q    Type
REMARK                         _______ _______ _______ _____ _____    ______ ____
ROOT
ATOM      1  C   UNL     1      33.824  -0.302  33.537  0.00  0.00    +0.000 C 
ATOM      2  O   UNL     1      34.676  -0.131  32.705  0.00  0.00    +0.000 OA
ENDROOT
BRANCH   1   3
ATOM      3  C   UNL     1      33.716  -1.602  34.216  0.00  0.00    +0.000 C 
ATOM      4  C   UNL     1      33.728  -2.676  33.150  0.00  0.00    +0.000 C 
ATOM      5  C   UNL     1      33.556  -4.020  33.778  0.00  0.00    +0.000 C 
ATOM      6  C   UNL     1      34.657  -4.207  34.805  0.00  0.00    +0.000 C 
ATOM      7  C   UNL     1      34.601  -3.155  35.878  0.00  0.00    +0.000 C 
ATOM      8  C   UNL     1      33.232  -3.274  36.554  0.00  0.00    +0.000 C 
ATOM      9  C   UNL     1      32.163  -3.017  35.523  0.00  0.00    +0.000 C 
ATOM     10  C   UNL     1      32.176  -4.074  34.428  0.00  0.00    +0.000 C 
ATOM     11  C   UNL     1      32.390  -1.635  34.960  0.00  0.00    +0.000 C 
ATOM     12  C   UNL     1      34.803  -1.818  35.243  0.00  0.00    +0.000 C 
ENDBRANCH   1   3
BRANCH   1  13
ATOM     13  C   UNL     1      32.894   0.786  33.874  0.00  0.00    +0.000 C 
BRANCH  13  18
ATOM     14  C   UNL     1      35.235   5.024  36.779  0.00  0.00    +0.000 C 
ATOM     15  C   UNL     1      34.615   3.899  36.015  0.00  0.00    +0.000 A 
ATOM     16  C   UNL     1      34.322   2.713  36.639  0.00  0.00    +0.000 A 
ATOM     17  C   UNL     1      33.753   1.685  35.929  0.00  0.00    +0.000 A 
ATOM     18  N   UNL     1      33.484   1.839  34.630  0.00  0.00    +0.000 N 
ATOM     19  C   UNL     1      33.773   2.999  34.029  0.00  0.00    +0.000 A 
ATOM     20  N   UNL     1      33.500   3.205  32.634  0.00  0.00    +0.000 NA
ATOM     21  C   UNL     1      34.346   4.066  34.693  0.00  0.00    +0.000 A 
ENDBRANCH  13  18
ENDBRANCH   1  13
TORSDOF 3
ENDMDL
MODEL 3
REMARK VINA RESULT:      -6.4      2.587      3.988
REMARK  Name = 
REMARK  3 active torsions:
REMARK  status: ('A' for Active; 'I' for Inactive)
REMARK    1  A    between atoms: N_5  and  C_6
REMARK    2  A    between atoms: C_6  and  C_7
REMARK    3  A    between atoms: C_7  and  C_9
REMARK                            x       y       z     vdW  Elec       q    Type
REMARK                         _______ _______ _______ _____ _____    ______ ____
ROOT
ATOM      1  C   UNL     1      18.152  10.083  38.680  0.00  0.00    +0.000 C 
ATOM      2  O   UNL     1      18.855  11.057  38.728  0.00  0.00    +0.000 OA
ENDROOT
BRANCH   1   3
ATOM      3  C   UNL     1      17.845   9.342  39.913  0.00  0.00    +0.000 C 
ATOM      4  C   UNL     1      16.402   9.627  40.269  0.00  0.00    +0.000 C 
ATOM      5  C   UNL     1      16.050   8.950  41.553  0.00  0.00    +0.000 C 
ATOM      6  C   UNL     1      16.329   7.467  41.397  0.00  0.00    +0.000 C 
ATOM      7  C   UNL     1      17.777   7.202  41.085  0.00  0.00    +0.000 C 
ATOM      8  C   UNL     1      18.598   7.767  42.248  0.00  0.00    +0.000 C 
ATOM      9  C   UNL     1      18.351   9.252  42.334  0.00  0.00    +0.000 C 
ATOM     10  C   UNL     1      16.898   9.559  42.667  0.00  0.00    +0.000 C 
ATOM     11  C   UNL     1      18.757   9.862  41.014  0.00  0.00    +0.000 C 
ATOM     12  C   UNL     1      18.110   7.860  39.786  0.00  0.00    +0.000 C 
ENDBRANCH   1   3
BRANCH   1  13
ATOM     13  C   UNL     1      17.601   9.634  37.392  0.00  0.00    +0.000 C 
BRANCH  13  18
ATOM     14  C   UNL     1      14.194  13.351  34.851  0.00  0.00    +0.000 C 
ATOM     15  C   UNL     1      15.093  12.368  35.529  0.00  0.00    +0.000 A 
ATOM     16  C   UNL     1      14.975  12.131  36.874  0.00  0.00    +0.000 A 
ATOM     17  C   UNL     1      15.805  11.227  37.489  0.00  0.00    +0.000 A 
ATOM     18  N   UNL     1      16.729  10.577  36.776  0.00  0.00    +0.000 N 
ATOM     19  C   UNL     1      16.837  10.814  35.464  0.00  0.00    +0.000 A 
ATOM     20  N   UNL     1      17.817  10.135  34.662  0.00  0.00    +0.000 NA
ATOM     21  C   UNL     1      16.029  11.712  34.794  0.00  0.00    +0.000 A 
ENDBRANCH  13  18
ENDBRANCH   1  13
TORSDOF 3
ENDMDL
MODEL 4
REMARK VINA RESULT:      -6.3     18.555     20.650
REMARK  Name = 
REMARK  3 active torsions:
REMARK  status: ('A' for Active; 'I' for Inactive)
REMARK    1  A    between atoms: N_5  and  C_6
REMARK    2  A    between atoms: C_6  and  C_7
REMARK    3  A    between atoms: C_7  and  C_9
REMARK                            x       y       z     vdW  Elec       q    Type
REMARK                         _______ _______ _______ _____ _____    ______ ____
ROOT
ATOM      1  C   UNL     1      26.231  23.941  26.226  0.00  0.00    +0.000 C 
ATOM      2  O   UNL     1      25.380  24.735  25.923  0.00  0.00    +0.000 OA
ENDROOT
BRANCH   1   3
ATOM      3  C   UNL     1      26.756  23.919  27.599  0.00  0.00    +0.000 C 
ATOM      4  C   UNL     1      27.309  22.534  27.856  0.00  0.00    +0.000 C 
ATOM      5  C   UNL     1      27.800  22.432  29.262  0.00  0.00    +0.000 C 
ATOM      6  C   UNL     1      28.834  23.521  29.481  0.00  0.00    +0.000 C 
ATOM      7  C   UNL     1      28.254  24.892  29.263  0.00  0.00    +0.000 C 
ATOM      8  C   UNL     1      27.104  25.057  30.261  0.00  0.00    +0.000 C 
ATOM      9  C   UNL     1      26.064  24.004  29.974  0.00  0.00    +0.000 C 
ATOM     10  C   UNL     1      26.609  22.602  30.202  0.00  0.00    +0.000 C 
ATOM     11  C   UNL     1      25.600  24.193  28.549  0.00  0.00    +0.000 C 
ATOM     12  C   UNL     1      27.792  24.991  27.847  0.00  0.00    +0.000 C 
ENDBRANCH   1   3
BRANCH   1  13
ATOM     13  C   UNL     1      26.744  22.992  25.225  0.00  0.00    +0.000 C 
BRANCH  13  18
ATOM     14  C   UNL     1      29.328  25.417  20.830  0.00  0.00    +0.000 C 
ATOM     15  C   UNL     1      28.648  24.777  21.996  0.00  0.00    +0.000 A 
ATOM     16  C   UNL     1      29.241  24.779  23.233  0.00  0.00    +0.000 A 
ATOM     17  C   UNL     1      28.610  24.188  24.299  0.00  0.00    +0.000 A 
ATOM     18  N   UNL     1      27.417  23.611  24.133  0.00  0.00    +0.000 N 
ATOM     19  C   UNL     1      26.846  23.614  22.924  0.00  0.00    +0.000 A 
ATOM     20  N   UNL     1      25.564  23.004  22.702  0.00  0.00    +0.000 NA
ATOM     21  C   UNL     1      27.435  24.192  21.816  0.00  0.00    +0.000 A 
ENDBRANCH  13  18
ENDBRANCH   1  13
TORSDOF 3
ENDMDL
MODEL 5
REMARK VINA RESULT:      -6.3     19.154     21.018
REMARK  Name = 
REMARK  3 active torsions:
REMARK  status: ('A' for Active; 'I' for Inactive)
REMARK    1  A    between atoms: N_5  and  C_6
REMARK    2  A    between atoms: C_6  and  C_7
REMARK    3  A    between atoms: C_7  and  C_9
REMARK                            x       y       z     vdW  Elec       q    Type
REMARK                         _______ _______ _______ _____ _____    ______ ____
ROOT
ATOM      1  C   UNL     1      33.627  -0.717  33.738  0.00  0.00    +0.000 C 
ATOM      2  O   UNL     1      34.545  -0.454  33.008  0.00  0.00    +0.000 OA
ENDROOT
BRANCH   1   3
ATOM      3  C   UNL     1      33.488  -2.079  34.277  0.00  0.00    +0.000 C 
ATOM      4  C   UNL     1      34.635  -2.309  35.237  0.00  0.00    +0.000 C 
ATOM      5  C   UNL     1      34.584  -3.704  35.769  0.00  0.00    +0.000 C 
ATOM      6  C   UNL     1      33.229  -3.911  36.419  0.00  0.00    +0.000 C 
ATOM      7  C   UNL     1      32.105  -3.720  35.438  0.00  0.00    +0.000 C 
ATOM      8  C   UNL     1      32.307  -4.744  34.317  0.00  0.00    +0.000 C 
ATOM      9  C   UNL     1      33.630  -4.468  33.648  0.00  0.00    +0.000 C 
ATOM     10  C   UNL     1      34.794  -4.670  34.606  0.00  0.00    +0.000 C 
ATOM     11  C   UNL     1      33.589  -3.056  33.116  0.00  0.00    +0.000 C 
ATOM     12  C   UNL     1      32.149  -2.315  34.935  0.00  0.00    +0.000 C 
ENDBRANCH   1   3
BRANCH   1  13
ATOM     13  C   UNL     1      32.646   0.320  34.093  0.00  0.00    +0.000 C 
BRANCH  13  18
ATOM     14  C   UNL     1      34.947   5.351  35.220  0.00  0.00    +0.000 C 
ATOM     15  C   UNL     1      34.337   4.021  34.917  0.00  0.00    +0.000 A 
ATOM     16  C   UNL     1      33.845   3.751  33.666  0.00  0.00    +0.000 A 
ATOM     17  C   UNL     1      33.285   2.528  33.395  0.00  0.00    +0.000 A 
ATOM     18  N   UNL     1      33.221   1.597  34.351  0.00  0.00    +0.000 N 
ATOM     19  C   UNL     1      33.704   1.868  35.569  0.00  0.00    +0.000 A 
ATOM     20  N   UNL     1      33.654   0.895  36.625  0.00  0.00    +0.000 NA
ATOM     21  C   UNL     1      34.276   3.081  35.897  0.00  0.00    +0.000 A 
ENDBRANCH  13  18
ENDBRANCH   1  13
TORSDOF 3
ENDMDL
MODEL 6
REMARK VINA RESULT:      -6.3     21.888     23.893
REMARK  Name = 
REMARK  3 active torsions:
REMARK  status: ('A' for Active; 'I' for Inactive)
REMARK    1  A    between atoms: N_5  and  C_6
REMARK    2  A    between atoms: C_6  and  C_7
REMARK    3  A    between atoms: C_7  and  C_9
REMARK                            x       y       z     vdW  Elec       q    Type
REMARK                         _______ _______ _______ _____ _____    ______ ____
ROOT
ATOM      1  C   UNL     1      28.040  25.228  24.194  0.00  0.00    +0.000 C 
ATOM      2  O   UNL     1      27.421  25.971  24.908  0.00  0.00    +0.000 OA
ENDROOT
BRANCH   1   3
ATOM      3  C   UNL     1      29.176  24.468  24.738  0.00  0.00    +0.000 C 
ATOM      4  C   UNL     1      28.979  24.362  26.235  0.00  0.00    +0.000 C 
ATOM      5  C   UNL     1      30.139  23.654  26.854  0.00  0.00    +0.000 C 
ATOM      6  C   UNL     1      30.275  22.298  26.187  0.00  0.00    +0.000 C 
ATOM      7  C   UNL     1      30.513  22.426  24.708  0.00  0.00    +0.000 C 
ATOM      8  C   UNL     1      31.806  23.227  24.528  0.00  0.00    +0.000 C 
ATOM      9  C   UNL     1      31.615  24.592  25.141  0.00  0.00    +0.000 C 
ATOM     10  C   UNL     1      31.390  24.503  26.643  0.00  0.00    +0.000 C 
ATOM     11  C   UNL     1      30.448  25.249  24.444  0.00  0.00    +0.000 C 
ATOM     12  C   UNL     1      29.335  23.110  24.096  0.00  0.00    +0.000 C 
ENDBRANCH   1   3
BRANCH   1  13
ATOM     13  C   UNL     1      27.663  25.078  22.780  0.00  0.00    +0.000 C 
BRANCH  13  18
ATOM     14  C   UNL     1      29.909  28.954  19.344  0.00  0.00    +0.000 C 
ATOM     15  C   UNL     1      29.311  27.932  20.256  0.00  0.00    +0.000 A 
ATOM     16  C   UNL     1      28.358  28.292  21.173  0.00  0.00    +0.000 A 
ATOM     17  C   UNL     1      27.814  27.347  22.007  0.00  0.00    +0.000 A 
ATOM     18  N   UNL     1      28.213  26.075  21.926  0.00  0.00    +0.000 N 
ATOM     19  C   UNL     1      29.144  25.732  21.028  0.00  0.00    +0.000 A 
ATOM     20  N   UNL     1      29.600  24.375  20.908  0.00  0.00    +0.000 NA
ATOM     21  C   UNL     1      29.725  26.640  20.164  0.00  0.00    +0.000 A 
ENDBRANCH  13  18
ENDBRANCH   1  13
TORSDOF 3
ENDMDL
MODEL 7
REMARK VINA RESULT:      -6.3      2.330      4.159
REMARK  Name = 
REMARK  3 active torsions:
REMARK  status: ('A' for Active; 'I' for Inactive)
REMARK    1  A    between atoms: N_5  and  C_6
REMARK    2  A    between atoms: C_6  and  C_7
REMARK    3  A    between atoms: C_7  and  C_9
REMARK                            x       y       z     vdW  Elec       q    Type
REMARK                         _______ _______ _______ _____ _____    ______ ____
ROOT
ATOM      1  C   UNL     1      20.508  10.211  37.416  0.00  0.00    +0.000 C 
ATOM      2  O   UNL     1      19.982   9.623  36.508  0.00  0.00    +0.000 OA
ENDROOT
BRANCH   1   3
ATOM      3  C   UNL     1      21.974  10.310  37.470  0.00  0.00    +0.000 C 
ATOM      4  C   UNL     1      22.456   9.368  38.551  0.00  0.00    +0.000 C 
ATOM      5  C   UNL     1      23.939   9.474  38.698  0.00  0.00    +0.000 C 
ATOM      6  C   UNL     1      24.568   9.183  37.348  0.00  0.00    +0.000 C 
ATOM      7  C   UNL     1      24.109  10.156  36.298  0.00  0.00    +0.000 C 
ATOM      8  C   UNL     1      24.517  11.555  36.772  0.00  0.00    +0.000 C 
ATOM      9  C   UNL     1      23.822  11.840  38.080  0.00  0.00    +0.000 C 
ATOM     10  C   UNL     1      24.276  10.884  39.174  0.00  0.00    +0.000 C 
ATOM     11  C   UNL     1      22.335  11.741  37.840  0.00  0.00    +0.000 C 
ATOM     12  C   UNL     1      22.630  10.022  36.140  0.00  0.00    +0.000 C 
ENDBRANCH   1   3
BRANCH   1  13
ATOM     13  C   UNL     1      19.687  10.828  38.469  0.00  0.00    +0.000 C 
BRANCH  13  18
ATOM     14  C   UNL     1      14.477  12.243  36.818  0.00  0.00    +0.000 C 
ATOM     15  C   UNL     1      15.858  11.873  37.252  0.00  0.00    +0.000 A 
ATOM     16  C   UNL     1      16.931  12.642  36.884  0.00  0.00    +0.000 A 
ATOM     17  C   UNL     1      18.197  12.295  37.287  0.00  0.00    +0.000 A 
ATOM     18  N   UNL     1      18.384  11.207  38.039  0.00  0.00    +0.000 N 
ATOM     19  C   UNL     1      17.330  10.462  38.394  0.00  0.00    +0.000 A 
ATOM     20  N   UNL     1      17.488   9.284  39.202  0.00  0.00    +0.000 NA
ATOM     21  C   UNL     1      16.036  10.763  38.017  0.00  0.00    +0.000 A 
ENDBRANCH  13  18
ENDBRANCH   1  13
TORSDOF 3
ENDMDL
MODEL 8
REMARK VINA RESULT:      -6.3     21.498     23.680
REMARK  Name = 
REMARK  3 active torsions:
REMARK  status: ('A' for Active; 'I' for Inactive)
REMARK    1  A    between atoms: N_5  and  C_6
REMARK    2  A    between atoms: C_6  and  C_7
REMARK    3  A    between atoms: C_7  and  C_9
REMARK                            x       y       z     vdW  Elec       q    Type
REMARK                         _______ _______ _______ _____ _____    ______ ____
ROOT
ATOM      1  C   UNL     1      28.958  24.497  21.989  0.00  0.00    +0.000 C 
ATOM      2  O   UNL     1      29.701  24.257  21.075  0.00  0.00    +0.000 OA
ENDROOT
BRANCH   1   3
ATOM      3  C   UNL     1      28.668  25.893  22.350  0.00  0.00    +0.000 C 
ATOM      4  C   UNL     1      27.262  25.939  22.905  0.00  0.00    +0.000 C 
ATOM      5  C   UNL     1      26.887  27.348  23.230  0.00  0.00    +0.000 C 
ATOM      6  C   UNL     1      27.914  27.898  24.200  0.00  0.00    +0.000 C 
ATOM      7  C   UNL     1      29.299  27.883  23.614  0.00  0.00    +0.000 C 
ATOM      8  C   UNL     1      29.262  28.748  22.350  0.00  0.00    +0.000 C 
ATOM      9  C   UNL     1      28.282  28.137  21.380  0.00  0.00    +0.000 C 
ATOM     10  C   UNL     1      26.865  28.152  21.932  0.00  0.00    +0.000 C 
ATOM     11  C   UNL     1      28.747  26.731  21.083  0.00  0.00    +0.000 C 
ATOM     12  C   UNL     1      29.674  26.468  23.320  0.00  0.00    +0.000 C 
ENDBRANCH   1   3
BRANCH   1  13
ATOM     13  C   UNL     1      28.338  23.397  22.744  0.00  0.00    +0.000 C 
BRANCH  13  18
ATOM     14  C   UNL     1      30.838  22.202  27.664  0.00  0.00    +0.000 C 
ATOM     15  C   UNL     1      30.181  22.519  26.359  0.00  0.00    +0.000 A 
ATOM     16  C   UNL     1      30.936  22.714  25.231  0.00  0.00    +0.000 A 
ATOM     17  C   UNL     1      30.325  23.005  24.037  0.00  0.00    +0.000 A 
ATOM     18  N   UNL     1      28.994  23.097  23.972  0.00  0.00    +0.000 N 
ATOM     19  C   UNL     1      28.265  22.905  25.078  0.00  0.00    +0.000 A 
ATOM     20  N   UNL     1      26.832  22.995  25.051  0.00  0.00    +0.000 NA
ATOM     21  C   UNL     1      28.826  22.611  26.305  0.00  0.00    +0.000 A 
ENDBRANCH  13  18
ENDBRANCH   1  13
TORSDOF 3
ENDMDL
MODEL 9
REMARK VINA RESULT:      -6.3     20.409     23.225
REMARK  Name = 
REMARK  3 active torsions:
REMARK  status: ('A' for Active; 'I' for Inactive)
REMARK    1  A    between atoms: N_5  and  C_6
REMARK    2  A    between atoms: C_6  and  C_7
REMARK    3  A    between atoms: C_7  and  C_9
REMARK                            x       y       z     vdW  Elec       q    Type
REMARK                         _______ _______ _______ _____ _____    ______ ____
ROOT
ATOM      1  C   UNL     1      33.012  -4.522  34.284  0.00  0.00    +0.000 C 
ATOM      2  O   UNL     1      31.936  -5.012  34.503  0.00  0.00    +0.000 OA
ENDROOT
BRANCH   1   3
ATOM      3  C   UNL     1      33.245  -3.103  34.593  0.00  0.00    +0.000 C 
ATOM      4  C   UNL     1      34.274  -3.041  35.701  0.00  0.00    +0.000 C 
ATOM      5  C   UNL     1      34.505  -1.621  36.104  0.00  0.00    +0.000 C 
ATOM      6  C   UNL     1      34.928  -0.844  34.872  0.00  0.00    +0.000 C 
ATOM      7  C   UNL     1      33.875  -0.882  33.799  0.00  0.00    +0.000 C 
ATOM      8  C   UNL     1      32.605  -0.266  34.394  0.00  0.00    +0.000 C 
ATOM      9  C   UNL     1      32.173  -1.100  35.573  0.00  0.00    +0.000 C 
ATOM     10  C   UNL     1      33.207  -1.069  36.689  0.00  0.00    +0.000 C 
ATOM     11  C   UNL     1      31.933  -2.506  35.078  0.00  0.00    +0.000 C 
ATOM     12  C   UNL     1      33.673  -2.303  33.385  0.00  0.00    +0.000 C 
ENDBRANCH   1   3
BRANCH   1  13
ATOM     13  C   UNL     1      34.091  -5.339  33.708  0.00  0.00    +0.000 C 
BRANCH  13  18
ATOM     14  C   UNL     1      33.728  -6.210  28.142  0.00  0.00    +0.000 C 
ATOM     15  C   UNL     1      33.818  -5.978  29.615  0.00  0.00    +0.000 A 
ATOM     16  C   UNL     1      32.743  -5.486  30.309  0.00  0.00    +0.000 A 
ATOM     17  C   UNL     1      32.835  -5.275  31.662  0.00  0.00    +0.000 A 
ATOM     18  N   UNL     1      33.973  -5.549  32.305  0.00  0.00    +0.000 N 
ATOM     19  C   UNL     1      35.018  -6.029  31.621  0.00  0.00    +0.000 A 
ATOM     20  N   UNL     1      36.260  -6.336  32.274  0.00  0.00    +0.000 NA
ATOM     21  C   UNL     1      34.982  -6.259  30.259  0.00  0.00    +0.000 A 
ENDBRANCH  13  18
ENDBRANCH   1  13
TORSDOF 3
ENDMDL
MODEL 10
REMARK VINA RESULT:      -6.2     22.174     23.321
REMARK  Name = 
REMARK  3 active torsions:
REMARK  status: ('A' for Active; 'I' for Inactive)
REMARK    1  A    between atoms: N_5  and  C_6
REMARK    2  A    between atoms: C_6  and  C_7
REMARK    3  A    between atoms: C_7  and  C_9
REMARK                            x       y       z     vdW  Elec       q    Type
REMARK                         _______ _______ _______ _____ _____    ______ ____
ROOT
ATOM      1  C   UNL     1      25.633   2.806  16.887  0.00  0.00    +0.000 C 
ATOM      2  O   UNL     1      25.681   2.208  15.844  0.00  0.00    +0.000 OA
ENDROOT
BRANCH   1   3
ATOM      3  C   UNL     1      26.257   4.133  16.998  0.00  0.00    +0.000 C 
ATOM      4  C   UNL     1      25.601   5.034  15.976  0.00  0.00    +0.000 C 
ATOM      5  C   UNL     1      26.242   6.383  15.998  0.00  0.00    +0.000 C 
ATOM      6  C   UNL     1      26.138   6.931  17.409  0.00  0.00    +0.000 C 
ATOM      7  C   UNL     1      26.833   6.043  18.404  0.00  0.00    +0.000 C 
ATOM      8  C   UNL     1      28.304   5.961  17.983  0.00  0.00    +0.000 C 
ATOM      9  C   UNL     1      28.376   5.350  16.606  0.00  0.00    +0.000 C 
ATOM     10  C   UNL     1      27.698   6.232  15.567  0.00  0.00    +0.000 C 
ATOM     11  C   UNL     1      27.737   3.985  16.676  0.00  0.00    +0.000 C 
ATOM     12  C   UNL     1      26.167   4.707  18.393  0.00  0.00    +0.000 C 
ENDBRANCH   1   3
BRANCH   1  13
ATOM     13  C   UNL     1      24.950   2.212  18.046  0.00  0.00    +0.000 C 
BRANCH  13  18
ATOM     14  C   UNL     1      19.340   1.880  17.511  0.00  0.00    +0.000 C 
ATOM     15  C   UNL     1      20.824   1.973  17.654  0.00  0.00    +0.000 A 
ATOM     16  C   UNL     1      21.419   3.169  17.963  0.00  0.00    +0.000 A 
ATOM     17  C   UNL     1      22.783   3.247  18.092  0.00  0.00    +0.000 A 
ATOM     18  N   UNL     1      23.533   2.156  17.917  0.00  0.00    +0.000 N 
ATOM     19  C   UNL     1      22.945   0.992  17.615  0.00  0.00    +0.000 A 
ATOM     20  N   UNL     1      23.716  -0.204  17.419  0.00  0.00    +0.000 NA
ATOM     21  C   UNL     1      21.578   0.857  17.473  0.00  0.00    +0.000 A 
ENDBRANCH  13  18
ENDBRANCH   1  13
TORSDOF 3
ENDMDL
