MODEL 1
REMARK VINA RESULT:      -5.8      0.000      0.000
REMARK  Name = 
REMARK  6 active torsions:
REMARK  status: ('A' for Active; 'I' for Inactive)
REMARK    1  A    between atoms: C_2  and  C_3
REMARK    2  A    between atoms: C_3  and  C_4
REMARK    3  A    between atoms: C_3  and  C_12
REMARK    4  A    between atoms: C_7  and  O_8
REMARK    5  A    between atoms: C_12  and  C_13
REMARK    6  A    between atoms: C_12  and  C_15
REMARK                            x       y       z     vdW  Elec       q    Type
REMARK                         _______ _______ _______ _____ _____    ______ ____
ROOT
ATOM      1  C   UNL     1      27.126  24.583  24.738  0.00  0.00    +0.000 C 
ENDROOT
BRANCH   1   2
ATOM      2  C   UNL     1      27.899  24.801  23.399  0.00  0.00    +0.000 A 
ATOM      3  C   UNL     1      27.798  26.071  22.893  0.00  0.00    +0.000 A 
ATOM      4  C   UNL     1      28.449  26.410  21.689  0.00  0.00    +0.000 A 
ATOM      5  C   UNL     1      29.186  25.451  21.030  0.00  0.00    +0.000 A 
ATOM      6  C   UNL     1      29.258  24.196  21.572  0.00  0.00    +0.000 A 
ATOM      7  C   UNL     1      28.609  23.875  22.765  0.00  0.00    +0.000 A 
BRANCH   5   8
ATOM      8  O   UNL     1      29.844  25.770  19.826  0.00  0.00    +0.000 OA
ATOM      9  C   UNL     1      29.946  27.091  19.361  0.00  0.00    +0.000 C 
ENDBRANCH   5   8
ENDBRANCH   1   2
BRANCH   1  11
ATOM     10  C   UNL     1      25.236  23.190  23.785  0.00  0.00    +0.000 C 
ATOM     11  C   UNL     1      26.602  23.087  24.356  0.00  0.00    +0.000 C 
ENDBRANCH   1  11
BRANCH   1  12
ATOM     12  C   UNL     1      28.456  23.981  25.642  0.00  0.00    +0.000 C 
BRANCH  12  13
ATOM     13  C   UNL     1      27.680  23.748  27.007  0.00  0.00    +0.000 A 
ATOM     14  C   UNL     1      26.771  24.561  27.509  0.00  0.00    +0.000 A 
ATOM     15  C   UNL     1      26.162  24.257  28.704  0.00  0.00    +0.000 A 
ATOM     16  C   UNL     1      26.489  23.110  29.388  0.00  0.00    +0.000 A 
ATOM     17  O   UNL     1      25.860  22.816  30.602  0.00  0.00    +0.000 OA
ATOM     18  C   UNL     1      27.441  22.284  28.838  0.00  0.00    +0.000 A 
ATOM     19  C   UNL     1      28.048  22.592  27.642  0.00  0.00    +0.000 A 
ENDBRANCH  12  13
BRANCH  12  20
ATOM     20  C   UNL     1      29.045  25.444  26.045  0.00  0.00    +0.000 C 
ATOM     21  C   UNL     1      30.498  25.386  26.204  0.00  0.00    +0.000 C 
ENDBRANCH  12  20
ENDBRANCH   1  12
TORSDOF 6
ENDMDL
MODEL 2
REMARK VINA RESULT:      -5.8      1.731      7.025
REMARK  Name = 
REMARK  6 active torsions:
REMARK  status: ('A' for Active; 'I' for Inactive)
REMARK    1  A    between atoms: C_2  and  C_3
REMARK    2  A    between atoms: C_3  and  C_4
REMARK    3  A    between atoms: C_3  and  C_12
REMARK    4  A    between atoms: C_7  and  O_8
REMARK    5  A    between atoms: C_12  and  C_13
REMARK    6  A    between atoms: C_12  and  C_15
REMARK                            x       y       z     vdW  Elec       q    Type
REMARK                         _______ _______ _______ _____ _____    ______ ____
ROOT
ATOM      1  C   UNL     1      26.763  23.795  26.265  0.00  0.00    +0.000 C 
ENDROOT
BRANCH   1   2
ATOM      2  C   UNL     1      26.451  24.022  27.778  0.00  0.00    +0.000 A 
ATOM      3  C   UNL     1      26.133  25.317  28.098  0.00  0.00    +0.000 A 
ATOM      4  C   UNL     1      25.827  25.665  29.430  0.00  0.00    +0.000 A 
ATOM      5  C   UNL     1      25.850  24.689  30.403  0.00  0.00    +0.000 A 
ATOM      6  C   UNL     1      26.173  23.411  30.037  0.00  0.00    +0.000 A 
ATOM      7  C   UNL     1      26.475  23.081  28.715  0.00  0.00    +0.000 A 
BRANCH   5   8
ATOM      8  O   UNL     1      25.546  25.016  31.738  0.00  0.00    +0.000 OA
ATOM      9  C   UNL     1      24.819  26.171  32.075  0.00  0.00    +0.000 C 
ENDBRANCH   5   8
ENDBRANCH   1   2
BRANCH   1  11
ATOM     10  C   UNL     1      25.286  25.269  24.829  0.00  0.00    +0.000 C 
ATOM     11  C   UNL     1      26.395  25.317  25.815  0.00  0.00    +0.000 C 
ENDBRANCH   1  11
BRANCH   1  12
ATOM     12  C   UNL     1      28.444  24.135  26.354  0.00  0.00    +0.000 C 
BRANCH  12  13
ATOM     13  C   UNL     1      28.724  24.159  24.792  0.00  0.00    +0.000 A 
ATOM     14  C   UNL     1      28.345  23.227  23.940  0.00  0.00    +0.000 A 
ATOM     15  C   UNL     1      28.646  23.353  22.604  0.00  0.00    +0.000 A 
ATOM     16  C   UNL     1      29.339  24.446  22.139  0.00  0.00    +0.000 A 
ATOM     17  O   UNL     1      29.636  24.559  20.777  0.00  0.00    +0.000 OA
ATOM     18  C   UNL     1      29.720  25.400  23.053  0.00  0.00    +0.000 A 
ATOM     19  C   UNL     1      29.418  25.270  24.389  0.00  0.00    +0.000 A 
ENDBRANCH  12  13
BRANCH  12  20
ATOM     20  C   UNL     1      28.904  22.589  26.571  0.00  0.00    +0.000 C 
ATOM     21  C   UNL     1      30.300  22.526  27.006  0.00  0.00    +0.000 C 
ENDBRANCH  12  20
ENDBRANCH   1  12
TORSDOF 6
ENDMDL
MODEL 3
REMARK VINA RESULT:      -5.7      1.653      7.174
REMARK  Name = 
REMARK  6 active torsions:
REMARK  status: ('A' for Active; 'I' for Inactive)
REMARK    1  A    between atoms: C_2  and  C_3
REMARK    2  A    between atoms: C_3  and  C_4
REMARK    3  A    between atoms: C_3  and  C_12
REMARK    4  A    between atoms: C_7  and  O_8
REMARK    5  A    between atoms: C_12  and  C_13
REMARK    6  A    between atoms: C_12  and  C_15
REMARK                            x       y       z     vdW  Elec       q    Type
REMARK                         _______ _______ _______ _____ _____    ______ ____
ROOT
ATOM      1  C   UNL     1      28.453  24.305  26.423  0.00  0.00    +0.000 C 
ENDROOT
BRANCH   1   2
ATOM      2  C   UNL     1      27.651  24.316  27.763  0.00  0.00    +0.000 A 
ATOM      3  C   UNL     1      27.980  25.344  28.607  0.00  0.00    +0.000 A 
ATOM      4  C   UNL     1      27.332  25.476  29.852  0.00  0.00    +0.000 A 
ATOM      5  C   UNL     1      26.365  24.562  30.208  0.00  0.00    +0.000 A 
ATOM      6  C   UNL     1      26.069  23.552  29.333  0.00  0.00    +0.000 A 
ATOM      7  C   UNL     1      26.719  23.433  28.104  0.00  0.00    +0.000 A 
BRANCH   5   8
ATOM      8  O   UNL     1      25.705  24.677  31.447  0.00  0.00    +0.000 OA
ATOM      9  C   UNL     1      25.863  25.804  32.272  0.00  0.00    +0.000 C 
ENDBRANCH   5   8
ENDBRANCH   1   2
BRANCH   1  11
ATOM     10  C   UNL     1      30.015  22.313  26.320  0.00  0.00    +0.000 C 
ATOM     11  C   UNL     1      28.578  22.683  26.346  0.00  0.00    +0.000 C 
ENDBRANCH   1  11
BRANCH   1  12
ATOM     12  C   UNL     1      27.094  24.339  25.375  0.00  0.00    +0.000 C 
BRANCH  12  13
ATOM     13  C   UNL     1      27.893  24.550  24.020  0.00  0.00    +0.000 A 
ATOM     14  C   UNL     1      28.773  25.508  23.802  0.00  0.00    +0.000 A 
ATOM     15  C   UNL     1      29.406  25.594  22.583  0.00  0.00    +0.000 A 
ATOM     16  C   UNL     1      29.135  24.690  21.583  0.00  0.00    +0.000 A 
ATOM     17  O   UNL     1      29.788  24.793  20.352  0.00  0.00    +0.000 OA
ATOM     18  C   UNL     1      28.212  23.704  21.844  0.00  0.00    +0.000 A 
ATOM     19  C   UNL     1      27.581  23.621  23.064  0.00  0.00    +0.000 A 
ENDBRANCH  12  13
BRANCH  12  20
ATOM     20  C   UNL     1      26.758  25.914  25.605  0.00  0.00    +0.000 C 
ATOM     21  C   UNL     1      25.352  26.189  25.306  0.00  0.00    +0.000 C 
ENDBRANCH  12  20
ENDBRANCH   1  12
TORSDOF 6
ENDMDL
MODEL 4
REMARK VINA RESULT:      -5.7     20.334     23.698
REMARK  Name = 
REMARK  6 active torsions:
REMARK  status: ('A' for Active; 'I' for Inactive)
REMARK    1  A    between atoms: C_2  and  C_3
REMARK    2  A    between atoms: C_3  and  C_4
REMARK    3  A    between atoms: C_3  and  C_12
REMARK    4  A    between atoms: C_7  and  O_8
REMARK    5  A    between atoms: C_12  and  C_13
REMARK    6  A    between atoms: C_12  and  C_15
REMARK                            x       y       z     vdW  Elec       q    Type
REMARK                         _______ _______ _______ _____ _____    ______ ____
ROOT
ATOM      1  C   UNL     1      34.440   5.061  34.560  0.00  0.00    +0.000 C 
ENDROOT
BRANCH   1   2
ATOM      2  C   UNL     1      34.102   3.540  34.661  0.00  0.00    +0.000 A 
ATOM      3  C   UNL     1      33.892   2.931  33.451  0.00  0.00    +0.000 A 
ATOM      4  C   UNL     1      33.580   1.557  33.393  0.00  0.00    +0.000 A 
ATOM      5  C   UNL     1      33.490   0.837  34.564  0.00  0.00    +0.000 A 
ATOM      6  C   UNL     1      33.708   1.487  35.748  0.00  0.00    +0.000 A 
ATOM      7  C   UNL     1      34.016   2.847  35.791  0.00  0.00    +0.000 A 
BRANCH   5   8
ATOM      8  O   UNL     1      33.180  -0.537  34.527  0.00  0.00    +0.000 OA
ATOM      9  C   UNL     1      33.804  -1.416  33.626  0.00  0.00    +0.000 C 
ENDBRANCH   5   8
ENDBRANCH   1   2
BRANCH   1  11
ATOM     10  C   UNL     1      32.116   5.639  33.733  0.00  0.00    +0.000 C 
ATOM     11  C   UNL     1      32.943   5.565  34.963  0.00  0.00    +0.000 C 
ENDBRANCH   1  11
BRANCH   1  12
ATOM     12  C   UNL     1      35.027   5.243  36.164  0.00  0.00    +0.000 C 
BRANCH  12  13
ATOM     13  C   UNL     1      35.139   6.825  36.157  0.00  0.00    +0.000 A 
ATOM     14  C   UNL     1      35.968   7.523  35.406  0.00  0.00    +0.000 A 
ATOM     15  C   UNL     1      35.978   8.896  35.484  0.00  0.00    +0.000 A 
ATOM     16  C   UNL     1      35.128   9.558  36.340  0.00  0.00    +0.000 A 
ATOM     17  O   UNL     1      35.151  10.954  36.407  0.00  0.00    +0.000 OA
ATOM     18  C   UNL     1      34.276   8.801  37.109  0.00  0.00    +0.000 A 
ATOM     19  C   UNL     1      34.270   7.427  37.028  0.00  0.00    +0.000 A 
ENDBRANCH  12  13
BRANCH  12  20
ATOM     20  C   UNL     1      36.588   4.975  35.789  0.00  0.00    +0.000 C 
ATOM     21  C   UNL     1      37.364   4.690  36.996  0.00  0.00    +0.000 C 
ENDBRANCH  12  20
ENDBRANCH   1  12
TORSDOF 6
ENDMDL
MODEL 5
REMARK VINA RESULT:      -5.6     19.746     21.248
REMARK  Name = 
REMARK  6 active torsions:
REMARK  status: ('A' for Active; 'I' for Inactive)
REMARK    1  A    between atoms: C_2  and  C_3
REMARK    2  A    between atoms: C_3  and  C_4
REMARK    3  A    between atoms: C_3  and  C_12
REMARK    4  A    between atoms: C_7  and  O_8
REMARK    5  A    between atoms: C_12  and  C_13
REMARK    6  A    between atoms: C_12  and  C_15
REMARK                            x       y       z     vdW  Elec       q    Type
REMARK                         _______ _______ _______ _____ _____    ______ ____
ROOT
ATOM      1  C   UNL     1      18.809   9.865  37.347  0.00  0.00    +0.000 C 
ENDROOT
BRANCH   1   2
ATOM      2  C   UNL     1      17.515  10.705  37.102  0.00  0.00    +0.000 A 
ATOM      3  C   UNL     1      16.512  10.468  38.004  0.00  0.00    +0.000 A 
ATOM      4  C   UNL     1      15.287  11.159  37.902  0.00  0.00    +0.000 A 
ATOM      5  C   UNL     1      15.113  12.075  36.888  0.00  0.00    +0.000 A 
ATOM      6  C   UNL     1      16.144  12.279  36.010  0.00  0.00    +0.000 A 
ATOM      7  C   UNL     1      17.350  11.587  36.122  0.00  0.00    +0.000 A 
BRANCH   5   8
ATOM      8  O   UNL     1      13.898  12.777  36.770  0.00  0.00    +0.000 OA
ATOM      9  C   UNL     1      12.656  12.157  36.991  0.00  0.00    +0.000 C 
ENDBRANCH   5   8
ENDBRANCH   1   2
BRANCH   1  11
ATOM     10  C   UNL     1      17.935   8.502  35.399  0.00  0.00    +0.000 C 
ATOM     11  C   UNL     1      19.008   9.452  35.783  0.00  0.00    +0.000 C 
ENDBRANCH   1  11
BRANCH   1  12
ATOM     12  C   UNL     1      19.920  11.169  37.235  0.00  0.00    +0.000 C 
BRANCH  12  13
ATOM     13  C   UNL     1      21.223  10.355  37.631  0.00  0.00    +0.000 A 
ATOM     14  C   UNL     1      21.427   9.773  38.796  0.00  0.00    +0.000 A 
ATOM     15  C   UNL     1      22.600   9.091  39.028  0.00  0.00    +0.000 A 
ATOM     16  C   UNL     1      23.569   9.007  38.056  0.00  0.00    +0.000 A 
ATOM     17  O   UNL     1      24.754   8.311  38.309  0.00  0.00    +0.000 OA
ATOM     18  C   UNL     1      23.325   9.626  36.852  0.00  0.00    +0.000 A 
ATOM     19  C   UNL     1      22.150  10.306  36.624  0.00  0.00    +0.000 A 
ENDBRANCH  12  13
BRANCH  12  20
ATOM     20  C   UNL     1      19.635  11.745  38.730  0.00  0.00    +0.000 C 
ATOM     21  C   UNL     1      20.011  13.156  38.817  0.00  0.00    +0.000 C 
ENDBRANCH  12  20
ENDBRANCH   1  12
TORSDOF 6
ENDMDL
MODEL 6
REMARK VINA RESULT:      -5.5      1.448      2.635
REMARK  Name = 
REMARK  6 active torsions:
REMARK  status: ('A' for Active; 'I' for Inactive)
REMARK    1  A    between atoms: C_2  and  C_3
REMARK    2  A    between atoms: C_3  and  C_4
REMARK    3  A    between atoms: C_3  and  C_12
REMARK    4  A    between atoms: C_7  and  O_8
REMARK    5  A    between atoms: C_12  and  C_13
REMARK    6  A    between atoms: C_12  and  C_15
REMARK                            x       y       z     vdW  Elec       q    Type
REMARK                         _______ _______ _______ _____ _____    ______ ____
ROOT
ATOM      1  C   UNL     1      27.973  23.751  25.604  0.00  0.00    +0.000 C 
ENDROOT
BRANCH   1   2
ATOM      2  C   UNL     1      28.494  24.204  24.204  0.00  0.00    +0.000 A 
ATOM      3  C   UNL     1      27.992  23.477  23.155  0.00  0.00    +0.000 A 
ATOM      4  C   UNL     1      28.376  23.780  21.833  0.00  0.00    +0.000 A 
ATOM      5  C   UNL     1      29.260  24.813  21.608  0.00  0.00    +0.000 A 
ATOM      6  C   UNL     1      29.735  25.511  22.686  0.00  0.00    +0.000 A 
ATOM      7  C   UNL     1      29.347  25.200  23.989  0.00  0.00    +0.000 A 
BRANCH   5   8
ATOM      8  O   UNL     1      29.655  25.131  20.294  0.00  0.00    +0.000 OA
ATOM      9  C   UNL     1      29.720  26.458  19.838  0.00  0.00    +0.000 C 
ENDBRANCH   5   8
ENDBRANCH   1   2
BRANCH   1  11
ATOM     10  C   UNL     1      29.974  22.707  26.756  0.00  0.00    +0.000 C 
ATOM     11  C   UNL     1      29.386  24.014  26.373  0.00  0.00    +0.000 C 
ENDBRANCH   1  11
BRANCH   1  12
ATOM     12  C   UNL     1      27.330  25.270  26.081  0.00  0.00    +0.000 C 
BRANCH  12  13
ATOM     13  C   UNL     1      26.927  24.860  27.560  0.00  0.00    +0.000 A 
ATOM     14  C   UNL     1      26.285  23.757  27.891  0.00  0.00    +0.000 A 
ATOM     15  C   UNL     1      25.986  23.505  29.210  0.00  0.00    +0.000 A 
ATOM     16  C   UNL     1      26.351  24.392  30.196  0.00  0.00    +0.000 A 
ATOM     17  O   UNL     1      26.040  24.121  31.531  0.00  0.00    +0.000 OA
ATOM     18  C   UNL     1      27.018  25.533  29.816  0.00  0.00    +0.000 A 
ATOM     19  C   UNL     1      27.315  25.781  28.496  0.00  0.00    +0.000 A 
ENDBRANCH  12  13
BRANCH  12  20
ATOM     20  C   UNL     1      25.854  25.021  25.442  0.00  0.00    +0.000 C 
ATOM     21  C   UNL     1      25.305  26.271  24.916  0.00  0.00    +0.000 C 
ENDBRANCH  12  20
ENDBRANCH   1  12
TORSDOF 6
ENDMDL
MODEL 7
REMARK VINA RESULT:      -5.5      0.979      7.016
REMARK  Name = 
REMARK  6 active torsions:
REMARK  status: ('A' for Active; 'I' for Inactive)
REMARK    1  A    between atoms: C_2  and  C_3
REMARK    2  A    between atoms: C_3  and  C_4
REMARK    3  A    between atoms: C_3  and  C_12
REMARK    4  A    between atoms: C_7  and  O_8
REMARK    5  A    between atoms: C_12  and  C_13
REMARK    6  A    between atoms: C_12  and  C_15
REMARK                            x       y       z     vdW  Elec       q    Type
REMARK                         _______ _______ _______ _____ _____    ______ ____
ROOT
ATOM      1  C   UNL     1      27.595  23.642  24.648  0.00  0.00    +0.000 C 
ENDROOT
BRANCH   1   2
ATOM      2  C   UNL     1      27.214  23.444  26.150  0.00  0.00    +0.000 A 
ATOM      3  C   UNL     1      27.985  22.521  26.808  0.00  0.00    +0.000 A 
ATOM      4  C   UNL     1      27.752  22.243  28.170  0.00  0.00    +0.000 A 
ATOM      5  C   UNL     1      26.743  22.910  28.830  0.00  0.00    +0.000 A 
ATOM      6  C   UNL     1      25.999  23.823  28.133  0.00  0.00    +0.000 A 
ATOM      7  C   UNL     1      26.241  24.087  26.784  0.00  0.00    +0.000 A 
BRANCH   5   8
ATOM      8  O   UNL     1      26.496  22.647  30.192  0.00  0.00    +0.000 OA
ATOM      9  C   UNL     1      26.183  21.358  30.656  0.00  0.00    +0.000 C 
ENDBRANCH   5   8
ENDBRANCH   1   2
BRANCH   1  11
ATOM     10  C   UNL     1      25.527  23.144  23.273  0.00  0.00    +0.000 C 
ATOM     11  C   UNL     1      26.115  24.149  24.193  0.00  0.00    +0.000 C 
ENDBRANCH   1  11
BRANCH   1  12
ATOM     12  C   UNL     1      28.193  25.244  24.803  0.00  0.00    +0.000 C 
BRANCH  12  13
ATOM     13  C   UNL     1      28.674  25.422  23.301  0.00  0.00    +0.000 A 
ATOM     14  C   UNL     1      29.150  24.457  22.539  0.00  0.00    +0.000 A 
ATOM     15  C   UNL     1      29.539  24.729  21.248  0.00  0.00    +0.000 A 
ATOM     16  C   UNL     1      29.437  26.001  20.736  0.00  0.00    +0.000 A 
ATOM     17  O   UNL     1      29.836  26.260  19.421  0.00  0.00    +0.000 OA
ATOM     18  C   UNL     1      28.937  26.985  21.557  0.00  0.00    +0.000 A 
ATOM     19  C   UNL     1      28.549  26.708  22.848  0.00  0.00    +0.000 A 
ENDBRANCH  12  13
BRANCH  12  20
ATOM     20  C   UNL     1      29.650  24.811  25.384  0.00  0.00    +0.000 C 
ATOM     21  C   UNL     1      30.243  25.907  26.151  0.00  0.00    +0.000 C 
ENDBRANCH  12  20
ENDBRANCH   1  12
TORSDOF 6
ENDMDL
MODEL 8
REMARK VINA RESULT:      -5.4     19.944     21.230
REMARK  Name = 
REMARK  6 active torsions:
REMARK  status: ('A' for Active; 'I' for Inactive)
REMARK    1  A    between atoms: C_2  and  C_3
REMARK    2  A    between atoms: C_3  and  C_4
REMARK    3  A    between atoms: C_3  and  C_12
REMARK    4  A    between atoms: C_7  and  O_8
REMARK    5  A    between atoms: C_12  and  C_13
REMARK    6  A    between atoms: C_12  and  C_15
REMARK                            x       y       z     vdW  Elec       q    Type
REMARK                         _______ _______ _______ _____ _____    ______ ____
ROOT
ATOM      1  C   UNL     1      19.030  11.095  38.282  0.00  0.00    +0.000 C 
ENDROOT
BRANCH   1   2
ATOM      2  C   UNL     1      20.465  10.490  38.170  0.00  0.00    +0.000 A 
ATOM      3  C   UNL     1      20.796   9.638  39.191  0.00  0.00    +0.000 A 
ATOM      4  C   UNL     1      22.062   9.018  39.216  0.00  0.00    +0.000 A 
ATOM      5  C   UNL     1      22.959   9.277  38.203  0.00  0.00    +0.000 A 
ATOM      6  C   UNL     1      22.584  10.135  37.204  0.00  0.00    +0.000 A 
ATOM      7  C   UNL     1      21.328  10.742  37.193  0.00  0.00    +0.000 A 
BRANCH   5   8
ATOM      8  O   UNL     1      24.228   8.667  38.209  0.00  0.00    +0.000 OA
ATOM      9  C   UNL     1      25.391   9.363  37.837  0.00  0.00    +0.000 C 
ENDBRANCH   5   8
ENDBRANCH   1   2
BRANCH   1  11
ATOM     10  C   UNL     1      20.164  13.157  39.220  0.00  0.00    +0.000 C 
ATOM     11  C   UNL     1      19.501  12.630  38.001  0.00  0.00    +0.000 C 
ENDBRANCH   1  11
BRANCH   1  12
ATOM     12  C   UNL     1      18.577  10.843  36.645  0.00  0.00    +0.000 C 
BRANCH  12  13
ATOM     13  C   UNL     1      17.065  11.304  36.783  0.00  0.00    +0.000 A 
ATOM     14  C   UNL     1      16.229  10.889  37.714  0.00  0.00    +0.000 A 
ATOM     15  C   UNL     1      14.936  11.358  37.736  0.00  0.00    +0.000 A 
ATOM     16  C   UNL     1      14.499  12.261  36.795  0.00  0.00    +0.000 A 
ATOM     17  O   UNL     1      13.182  12.728  36.832  0.00  0.00    +0.000 OA
ATOM     18  C   UNL     1      15.396  12.674  35.838  0.00  0.00    +0.000 A 
ATOM     19  C   UNL     1      16.689  12.202  35.820  0.00  0.00    +0.000 A 
ENDBRANCH  12  13
BRANCH  12  20
ATOM     20  C   UNL     1      18.271   9.253  36.812  0.00  0.00    +0.000 C 
ATOM     21  C   UNL     1      17.992   8.644  35.510  0.00  0.00    +0.000 C 
ENDBRANCH  12  20
ENDBRANCH   1  12
TORSDOF 6
ENDMDL
MODEL 9
REMARK VINA RESULT:      -5.4      1.483      7.187
REMARK  Name = 
REMARK  6 active torsions:
REMARK  status: ('A' for Active; 'I' for Inactive)
REMARK    1  A    between atoms: C_2  and  C_3
REMARK    2  A    between atoms: C_3  and  C_4
REMARK    3  A    between atoms: C_3  and  C_12
REMARK    4  A    between atoms: C_7  and  O_8
REMARK    5  A    between atoms: C_12  and  C_13
REMARK    6  A    between atoms: C_12  and  C_15
REMARK                            x       y       z     vdW  Elec       q    Type
REMARK                         _______ _______ _______ _____ _____    ______ ____
ROOT
ATOM      1  C   UNL     1      29.578  24.523  24.986  0.00  0.00    +0.000 C 
ENDROOT
BRANCH   1   2
ATOM      2  C   UNL     1      29.036  23.776  26.245  0.00  0.00    +0.000 A 
ATOM      3  C   UNL     1      29.002  24.541  27.381  0.00  0.00    +0.000 A 
ATOM      4  C   UNL     1      28.532  23.993  28.593  0.00  0.00    +0.000 A 
ATOM      5  C   UNL     1      28.108  22.683  28.619  0.00  0.00    +0.000 A 
ATOM      6  C   UNL     1      28.160  21.957  27.460  0.00  0.00    +0.000 A 
ATOM      7  C   UNL     1      28.628  22.512  26.268  0.00  0.00    +0.000 A 
BRANCH   5   8
ATOM      8  O   UNL     1      27.635  22.117  29.819  0.00  0.00    +0.000 OA
ATOM      9  C   UNL     1      26.367  22.428  30.338  0.00  0.00    +0.000 C 
ENDBRANCH   5   8
ENDBRANCH   1   2
BRANCH   1  11
ATOM     10  C   UNL     1      31.833  23.505  24.442  0.00  0.00    +0.000 C 
ATOM     11  C   UNL     1      30.375  23.234  24.388  0.00  0.00    +0.000 C 
ENDBRANCH   1  11
BRANCH   1  12
ATOM     12  C   UNL     1      28.209  24.251  23.985  0.00  0.00    +0.000 C 
BRANCH  12  13
ATOM     13  C   UNL     1      28.694  25.116  22.746  0.00  0.00    +0.000 A 
ATOM     14  C   UNL     1      29.014  24.631  21.563  0.00  0.00    +0.000 A 
ATOM     15  C   UNL     1      29.423  25.480  20.560  0.00  0.00    +0.000 A 
ATOM     16  C   UNL     1      29.502  26.836  20.774  0.00  0.00    +0.000 A 
ATOM     17  O   UNL     1      29.918  27.683  19.743  0.00  0.00    +0.000 OA
ATOM     18  C   UNL     1      29.161  27.309  22.019  0.00  0.00    +0.000 A 
ATOM     19  C   UNL     1      28.753  26.457  23.020  0.00  0.00    +0.000 A 
ENDBRANCH  12  13
BRANCH  12  20
ATOM     20  C   UNL     1      27.297  25.425  24.648  0.00  0.00    +0.000 C 
ATOM     21  C   UNL     1      25.898  25.004  24.726  0.00  0.00    +0.000 C 
ENDBRANCH  12  20
ENDBRANCH   1  12
TORSDOF 6
ENDMDL
MODEL 10
REMARK VINA RESULT:      -5.4      3.335      4.699
REMARK  Name = 
REMARK  6 active torsions:
REMARK  status: ('A' for Active; 'I' for Inactive)
REMARK    1  A    between atoms: C_2  and  C_3
REMARK    2  A    between atoms: C_3  and  C_4
REMARK    3  A    between atoms: C_3  and  C_12
REMARK    4  A    between atoms: C_7  and  O_8
REMARK    5  A    between atoms: C_12  and  C_13
REMARK    6  A    between atoms: C_12  and  C_15
REMARK                            x       y       z     vdW  Elec       q    Type
REMARK                         _______ _______ _______ _____ _____    ______ ____
ROOT
ATOM      1  C   UNL     1      31.312  23.167  25.362  0.00  0.00    +0.000 C 
ENDROOT
BRANCH   1   2
ATOM      2  C   UNL     1      30.241  23.639  24.329  0.00  0.00    +0.000 A 
ATOM      3  C   UNL     1      30.281  24.981  24.051  0.00  0.00    +0.000 A 
ATOM      4  C   UNL     1      29.371  25.543  23.133  0.00  0.00    +0.000 A 
ATOM      5  C   UNL     1      28.443  24.730  22.520  0.00  0.00    +0.000 A 
ATOM      6  C   UNL     1      28.440  23.396  22.829  0.00  0.00    +0.000 A 
ATOM      7  C   UNL     1      29.346  22.853  23.740  0.00  0.00    +0.000 A 
BRANCH   5   8
ATOM      8  O   UNL     1      27.526  25.273  21.599  0.00  0.00    +0.000 OA
ATOM      9  C   UNL     1      27.499  26.644  21.296  0.00  0.00    +0.000 C 
ENDBRANCH   5   8
ENDBRANCH   1   2
BRANCH   1  11
ATOM     10  C   UNL     1      33.561  24.176  24.779  0.00  0.00    +0.000 C 
ATOM     11  C   UNL     1      32.206  24.527  25.271  0.00  0.00    +0.000 C 
ENDBRANCH   1  11
BRANCH   1  12
ATOM     12  C   UNL     1      30.484  23.702  26.769  0.00  0.00    +0.000 C 
BRANCH  12  13
ATOM     13  C   UNL     1      31.579  23.254  27.826  0.00  0.00    +0.000 A 
ATOM     14  C   UNL     1      32.459  24.057  28.391  0.00  0.00    +0.000 A 
ATOM     15  C   UNL     1      33.365  23.556  29.297  0.00  0.00    +0.000 A 
ATOM     16  C   UNL     1      33.366  22.220  29.625  0.00  0.00    +0.000 A 
ATOM     17  O   UNL     1      34.293  21.728  30.548  0.00  0.00    +0.000 OA
ATOM     18  C   UNL     1      32.436  21.410  29.018  0.00  0.00    +0.000 A 
ATOM     19  C   UNL     1      31.531  21.915  28.113  0.00  0.00    +0.000 A 
ENDBRANCH  12  13
BRANCH  12  20
ATOM     20  C   UNL     1      29.564  22.368  26.923  0.00  0.00    +0.000 C 
ATOM     21  C   UNL     1      28.189  22.731  27.269  0.00  0.00    +0.000 C 
ENDBRANCH  12  20
ENDBRANCH   1  12
TORSDOF 6
ENDMDL
