MODEL 1
REMARK VINA RESULT:      -6.9      0.000      0.000
REMARK  Name = 
REMARK  3 active torsions:
REMARK  status: ('A' for Active; 'I' for Inactive)
REMARK    1  A    between atoms: C_2  and  C_4
REMARK    2  A    between atoms: C_7  and  C_8
REMARK    3  A    between atoms: C_8  and  N_9
REMARK                            x       y       z     vdW  Elec       q    Type
REMARK                         _______ _______ _______ _____ _____    ______ ____
ROOT
ATOM      1  C   UNL     1      31.513  20.667  10.200  0.00  0.00    +0.000 C 
ENDROOT
BRANCH   1   2
ATOM      2  N   UNL     1      31.738  21.174   8.866  0.00  0.00    +0.000 N 
ATOM      3  C   UNL     1      32.603  22.149   8.566  0.00  0.00    +0.000 A 
ATOM      4  O   UNL     1      33.335  22.763   9.368  0.00  0.00    +0.000 OA
ATOM      5  N   UNL     1      32.587  22.400   7.239  0.00  0.00    +0.000 NA
ATOM      6  C   UNL     1      31.690  21.563   6.680  0.00  0.00    +0.000 A 
ATOM      7  C   UNL     1      31.271  21.380   5.382  0.00  0.00    +0.000 A 
ATOM      8  C   UNL     1      30.319  20.420   5.143  0.00  0.00    +0.000 A 
ATOM      9  C   UNL     1      29.806  19.671   6.169  0.00  0.00    +0.000 A 
ATOM     10  C   UNL     1      30.223  19.853   7.459  0.00  0.00    +0.000 A 
ATOM     11  C   UNL     1      31.172  20.802   7.731  0.00  0.00    +0.000 A 
ENDBRANCH   1   2
BRANCH   1  15
ATOM     12  C   UNL     1      28.768  23.099  12.391  0.00  0.00    +0.000 A 
ATOM     13  C   UNL     1      28.390  22.325  11.323  0.00  0.00    +0.000 A 
ATOM     14  C   UNL     1      29.259  21.537  10.608  0.00  0.00    +0.000 A 
ATOM     15  C   UNL     1      30.587  21.521  10.980  0.00  0.00    +0.000 A 
ATOM     16  C   UNL     1      31.005  22.285  12.047  0.00  0.00    +0.000 A 
ATOM     17  C   UNL     1      30.106  23.068  12.748  0.00  0.00    +0.000 A 
BRANCH  12  19
ATOM     18  C   UNL     1      26.572  23.058  13.403  0.00  0.00    +0.000 C 
ATOM     19  C   UNL     1      27.755  23.913  13.098  0.00  0.00    +0.000 C 
ATOM     20  C   UNL     1      28.313  24.527  14.360  0.00  0.00    +0.000 C 
ENDBRANCH  12  19
ENDBRANCH   1  15
TORSDOF 3
ENDMDL
MODEL 2
REMARK VINA RESULT:      -6.7     12.989     16.460
REMARK  Name = 
REMARK  3 active torsions:
REMARK  status: ('A' for Active; 'I' for Inactive)
REMARK    1  A    between atoms: C_2  and  C_4
REMARK    2  A    between atoms: C_7  and  C_8
REMARK    3  A    between atoms: C_8  and  N_9
REMARK                            x       y       z     vdW  Elec       q    Type
REMARK                         _______ _______ _______ _____ _____    ______ ____
ROOT
ATOM      1  C   UNL     1      25.427  24.490  24.799  0.00  0.00    +0.000 C 
ENDROOT
BRANCH   1   2
ATOM      2  N   UNL     1      26.273  24.324  23.640  0.00  0.00    +0.000 N 
ATOM      3  C   UNL     1      26.069  23.414  22.682  0.00  0.00    +0.000 A 
ATOM      4  O   UNL     1      25.140  22.584  22.635  0.00  0.00    +0.000 OA
ATOM      5  N   UNL     1      27.027  23.506  21.733  0.00  0.00    +0.000 NA
ATOM      6  C   UNL     1      27.862  24.500  22.098  0.00  0.00    +0.000 A 
ATOM      7  C   UNL     1      28.995  25.024  21.518  0.00  0.00    +0.000 A 
ATOM      8  C   UNL     1      29.627  26.059  22.161  0.00  0.00    +0.000 A 
ATOM      9  C   UNL     1      29.141  26.550  23.344  0.00  0.00    +0.000 A 
ATOM     10  C   UNL     1      28.015  26.030  23.921  0.00  0.00    +0.000 A 
ATOM     11  C   UNL     1      27.360  24.997  23.304  0.00  0.00    +0.000 A 
ENDBRANCH   1   2
BRANCH   1  15
ATOM     12  C   UNL     1      27.083  22.855  28.382  0.00  0.00    +0.000 A 
ATOM     13  C   UNL     1      26.064  23.775  28.383  0.00  0.00    +0.000 A 
ATOM     14  C   UNL     1      25.520  24.310  27.240  0.00  0.00    +0.000 A 
ATOM     15  C   UNL     1      26.024  23.905  26.022  0.00  0.00    +0.000 A 
ATOM     16  C   UNL     1      27.046  22.983  25.980  0.00  0.00    +0.000 A 
ATOM     17  C   UNL     1      27.573  22.461  27.148  0.00  0.00    +0.000 A 
BRANCH  12  19
ATOM     18  C   UNL     1      28.117  23.477  30.477  0.00  0.00    +0.000 C 
ATOM     19  C   UNL     1      27.601  22.336  29.667  0.00  0.00    +0.000 C 
ATOM     20  C   UNL     1      26.544  21.572  30.428  0.00  0.00    +0.000 C 
ENDBRANCH  12  19
ENDBRANCH   1  15
TORSDOF 3
ENDMDL
MODEL 3
REMARK VINA RESULT:      -6.6     30.582     32.010
REMARK  Name = 
REMARK  3 active torsions:
REMARK  status: ('A' for Active; 'I' for Inactive)
REMARK    1  A    between atoms: C_2  and  C_4
REMARK    2  A    between atoms: C_7  and  C_8
REMARK    3  A    between atoms: C_8  and  N_9
REMARK                            x       y       z     vdW  Elec       q    Type
REMARK                         _______ _______ _______ _____ _____    ______ ____
ROOT
ATOM      1  C   UNL     1      18.035   9.440  36.917  0.00  0.00    +0.000 C 
ENDROOT
BRANCH   1   2
ATOM      2  N   UNL     1      17.134  10.274  36.158  0.00  0.00    +0.000 N 
ATOM      3  C   UNL     1      17.281  10.557  34.859  0.00  0.00    +0.000 A 
ATOM      4  O   UNL     1      18.197  10.156  34.113  0.00  0.00    +0.000 OA
ATOM      5  N   UNL     1      16.281  11.359  34.435  0.00  0.00    +0.000 NA
ATOM      6  C   UNL     1      15.476  11.593  35.491  0.00  0.00    +0.000 A 
ATOM      7  C   UNL     1      14.323  12.332  35.637  0.00  0.00    +0.000 A 
ATOM      8  C   UNL     1      13.734  12.366  36.877  0.00  0.00    +0.000 A 
ATOM      9  C   UNL     1      14.282  11.684  37.931  0.00  0.00    +0.000 A 
ATOM     10  C   UNL     1      15.427  10.951  37.787  0.00  0.00    +0.000 A 
ATOM     11  C   UNL     1      16.040  10.896  36.563  0.00  0.00    +0.000 A 
ENDBRANCH   1   2
BRANCH   1  15
ATOM     12  C   UNL     1      21.495  11.594  38.199  0.00  0.00    +0.000 A 
ATOM     13  C   UNL     1      20.224  11.913  38.606  0.00  0.00    +0.000 A 
ATOM     14  C   UNL     1      19.101  11.231  38.205  0.00  0.00    +0.000 A 
ATOM     15  C   UNL     1      19.254  10.166  37.342  0.00  0.00    +0.000 A 
ATOM     16  C   UNL     1      20.514   9.815  36.910  0.00  0.00    +0.000 A 
ATOM     17  C   UNL     1      21.626  10.521  37.333  0.00  0.00    +0.000 A 
BRANCH  12  19
ATOM     18  C   UNL     1      23.820  12.132  37.812  0.00  0.00    +0.000 C 
ATOM     19  C   UNL     1      22.641  12.390  38.689  0.00  0.00    +0.000 C 
ATOM     20  C   UNL     1      22.320  13.864  38.735  0.00  0.00    +0.000 C 
ENDBRANCH  12  19
ENDBRANCH   1  15
TORSDOF 3
ENDMDL
MODEL 4
REMARK VINA RESULT:      -6.6     29.658     31.234
REMARK  Name = 
REMARK  3 active torsions:
REMARK  status: ('A' for Active; 'I' for Inactive)
REMARK    1  A    between atoms: C_2  and  C_4
REMARK    2  A    between atoms: C_7  and  C_8
REMARK    3  A    between atoms: C_8  and  N_9
REMARK                            x       y       z     vdW  Elec       q    Type
REMARK                         _______ _______ _______ _____ _____    ______ ____
ROOT
ATOM      1  C   UNL     1      20.024  10.307  38.521  0.00  0.00    +0.000 C 
ENDROOT
BRANCH   1   2
ATOM      2  N   UNL     1      21.247  11.012  38.218  0.00  0.00    +0.000 N 
ATOM      3  C   UNL     1      21.538  12.241  38.657  0.00  0.00    +0.000 A 
ATOM      4  O   UNL     1      20.818  12.959  39.379  0.00  0.00    +0.000 OA
ATOM      5  N   UNL     1      22.751  12.628  38.206  0.00  0.00    +0.000 NA
ATOM      6  C   UNL     1      23.246  11.618  37.462  0.00  0.00    +0.000 A 
ATOM      7  C   UNL     1      24.425  11.463  36.768  0.00  0.00    +0.000 A 
ATOM      8  C   UNL     1      24.626  10.283  36.096  0.00  0.00    +0.000 A 
ATOM      9  C   UNL     1      23.678   9.295  36.118  0.00  0.00    +0.000 A 
ATOM     10  C   UNL     1      22.506   9.448  36.806  0.00  0.00    +0.000 A 
ATOM     11  C   UNL     1      22.274  10.613  37.488  0.00  0.00    +0.000 A 
ENDBRANCH   1   2
BRANCH   1  15
ATOM     12  C   UNL     1      17.036  10.889  35.522  0.00  0.00    +0.000 A 
ATOM     13  C   UNL     1      17.239  11.770  36.554  0.00  0.00    +0.000 A 
ATOM     14  C   UNL     1      18.195  11.599  37.526  0.00  0.00    +0.000 A 
ATOM     15  C   UNL     1      18.997  10.478  37.467  0.00  0.00    +0.000 A 
ATOM     16  C   UNL     1      18.825   9.570  36.446  0.00  0.00    +0.000 A 
ATOM     17  C   UNL     1      17.853   9.771  35.481  0.00  0.00    +0.000 A 
BRANCH  12  19
ATOM     18  C   UNL     1      15.115  12.270  35.024  0.00  0.00    +0.000 C 
ATOM     19  C   UNL     1      15.980  11.163  34.524  0.00  0.00    +0.000 C 
ATOM     20  C   UNL     1      16.563  11.506  33.174  0.00  0.00    +0.000 C 
ENDBRANCH  12  19
ENDBRANCH   1  15
TORSDOF 3
ENDMDL
MODEL 5
REMARK VINA RESULT:      -6.6     29.825     31.652
REMARK  Name = 
REMARK  3 active torsions:
REMARK  status: ('A' for Active; 'I' for Inactive)
REMARK    1  A    between atoms: C_2  and  C_4
REMARK    2  A    between atoms: C_7  and  C_8
REMARK    3  A    between atoms: C_8  and  N_9
REMARK                            x       y       z     vdW  Elec       q    Type
REMARK                         _______ _______ _______ _____ _____    ______ ____
ROOT
ATOM      1  C   UNL     1      17.669   9.568  37.366  0.00  0.00    +0.000 C 
ENDROOT
BRANCH   1   2
ATOM      2  N   UNL     1      16.755  10.365  36.581  0.00  0.00    +0.000 N 
ATOM      3  C   UNL     1      15.739  11.069  37.092  0.00  0.00    +0.000 A 
ATOM      4  O   UNL     1      15.424  11.149  38.296  0.00  0.00    +0.000 OA
ATOM      5  N   UNL     1      15.068  11.708  36.108  0.00  0.00    +0.000 NA
ATOM      6  C   UNL     1      15.673  11.402  34.943  0.00  0.00    +0.000 A 
ATOM      7  C   UNL     1      15.419  11.766  33.639  0.00  0.00    +0.000 A 
ATOM      8  C   UNL     1      16.244  11.269  32.661  0.00  0.00    +0.000 A 
ATOM      9  C   UNL     1      17.285  10.437  32.978  0.00  0.00    +0.000 A 
ATOM     10  C   UNL     1      17.537  10.075  34.273  0.00  0.00    +0.000 A 
ATOM     11  C   UNL     1      16.733  10.554  35.273  0.00  0.00    +0.000 A 
ENDBRANCH   1   2
BRANCH   1  15
ATOM     12  C   UNL     1      21.417  11.537  37.937  0.00  0.00    +0.000 A 
ATOM     13  C   UNL     1      20.248  11.979  38.504  0.00  0.00    +0.000 A 
ATOM     14  C   UNL     1      19.035  11.357  38.331  0.00  0.00    +0.000 A 
ATOM     15  C   UNL     1      18.984  10.227  37.543  0.00  0.00    +0.000 A 
ATOM     16  C   UNL     1      20.136   9.752  36.956  0.00  0.00    +0.000 A 
ATOM     17  C   UNL     1      21.343  10.400  37.150  0.00  0.00    +0.000 A 
BRANCH  12  19
ATOM     18  C   UNL     1      22.856  12.445  39.655  0.00  0.00    +0.000 C 
ATOM     19  C   UNL     1      22.674  12.276  38.184  0.00  0.00    +0.000 C 
ATOM     20  C   UNL     1      23.864  11.575  37.574  0.00  0.00    +0.000 C 
ENDBRANCH  12  19
ENDBRANCH   1  15
TORSDOF 3
ENDMDL
MODEL 6
REMARK VINA RESULT:      -6.4     12.791     15.589
REMARK  Name = 
REMARK  3 active torsions:
REMARK  status: ('A' for Active; 'I' for Inactive)
REMARK    1  A    between atoms: C_2  and  C_4
REMARK    2  A    between atoms: C_7  and  C_8
REMARK    3  A    between atoms: C_8  and  N_9
REMARK                            x       y       z     vdW  Elec       q    Type
REMARK                         _______ _______ _______ _____ _____    ______ ____
ROOT
ATOM      1  C   UNL     1      28.322  23.181  22.982  0.00  0.00    +0.000 C 
ENDROOT
BRANCH   1   2
ATOM      2  N   UNL     1      28.249  24.557  22.549  0.00  0.00    +0.000 N 
ATOM      3  C   UNL     1      28.940  25.062  21.521  0.00  0.00    +0.000 A 
ATOM      4  O   UNL     1      29.738  24.443  20.790  0.00  0.00    +0.000 OA
ATOM      5  N   UNL     1      28.658  26.374  21.364  0.00  0.00    +0.000 NA
ATOM      6  C   UNL     1      27.765  26.712  22.316  0.00  0.00    +0.000 A 
ATOM      7  C   UNL     1      27.139  27.898  22.625  0.00  0.00    +0.000 A 
ATOM      8  C   UNL     1      26.263  27.907  23.682  0.00  0.00    +0.000 A 
ATOM      9  C   UNL     1      26.024  26.766  24.403  0.00  0.00    +0.000 A 
ATOM     10  C   UNL     1      26.647  25.588  24.096  0.00  0.00    +0.000 A 
ATOM     11  C   UNL     1      27.526  25.545  23.047  0.00  0.00    +0.000 A 
ENDBRANCH   1   2
BRANCH   1  15
ATOM     12  C   UNL     1      30.606  22.756  26.568  0.00  0.00    +0.000 A 
ATOM     13  C   UNL     1      31.168  23.081  25.359  0.00  0.00    +0.000 A 
ATOM     14  C   UNL     1      30.449  23.222  24.197  0.00  0.00    +0.000 A 
ATOM     15  C   UNL     1      29.084  23.026  24.242  0.00  0.00    +0.000 A 
ATOM     16  C   UNL     1      28.482  22.698  25.437  0.00  0.00    +0.000 A 
ATOM     17  C   UNL     1      29.234  22.564  26.591  0.00  0.00    +0.000 A 
BRANCH  12  19
ATOM     18  C   UNL     1      32.482  23.720  27.749  0.00  0.00    +0.000 C 
ATOM     19  C   UNL     1      31.466  22.629  27.764  0.00  0.00    +0.000 C 
ATOM     20  C   UNL     1      30.659  22.665  29.039  0.00  0.00    +0.000 C 
ENDBRANCH  12  19
ENDBRANCH   1  15
TORSDOF 3
ENDMDL
MODEL 7
REMARK VINA RESULT:      -6.3     33.511     34.691
REMARK  Name = 
REMARK  3 active torsions:
REMARK  status: ('A' for Active; 'I' for Inactive)
REMARK    1  A    between atoms: C_2  and  C_4
REMARK    2  A    between atoms: C_7  and  C_8
REMARK    3  A    between atoms: C_8  and  N_9
REMARK                            x       y       z     vdW  Elec       q    Type
REMARK                         _______ _______ _______ _____ _____    ______ ____
ROOT
ATOM      1  C   UNL     1      32.724  -3.945  34.479  0.00  0.00    +0.000 C 
ENDROOT
BRANCH   1   2
ATOM      2  N   UNL     1      33.806  -4.704  33.897  0.00  0.00    +0.000 N 
ATOM      3  C   UNL     1      34.879  -5.128  34.573  0.00  0.00    +0.000 A 
ATOM      4  O   UNL     1      35.114  -4.941  35.783  0.00  0.00    +0.000 OA
ATOM      5  N   UNL     1      35.712  -5.809  33.756  0.00  0.00    +0.000 NA
ATOM      6  C   UNL     1      35.154  -5.820  32.529  0.00  0.00    +0.000 A 
ATOM      7  C   UNL     1      35.556  -6.360  31.328  0.00  0.00    +0.000 A 
ATOM      8  C   UNL     1      34.737  -6.188  30.239  0.00  0.00    +0.000 A 
ATOM      9  C   UNL     1      33.559  -5.499  30.351  0.00  0.00    +0.000 A 
ATOM     10  C   UNL     1      33.159  -4.961  31.543  0.00  0.00    +0.000 A 
ATOM     11  C   UNL     1      33.952  -5.115  32.649  0.00  0.00    +0.000 A 
ENDBRANCH   1   2
BRANCH   1  15
ATOM     12  C   UNL     1      33.148   0.281  34.020  0.00  0.00    +0.000 A 
ATOM     13  C   UNL     1      32.236  -0.289  34.872  0.00  0.00    +0.000 A 
ATOM     14  C   UNL     1      32.086  -1.645  35.032  0.00  0.00    +0.000 A 
ATOM     15  C   UNL     1      32.896  -2.485  34.296  0.00  0.00    +0.000 A 
ATOM     16  C   UNL     1      33.825  -1.951  33.431  0.00  0.00    +0.000 A 
ATOM     17  C   UNL     1      33.952  -0.581  33.292  0.00  0.00    +0.000 A 
BRANCH  12  19
ATOM     18  C   UNL     1      33.891   2.287  35.148  0.00  0.00    +0.000 C 
ATOM     19  C   UNL     1      33.233   1.754  33.920  0.00  0.00    +0.000 C 
ATOM     20  C   UNL     1      33.979   2.188  32.681  0.00  0.00    +0.000 C 
ENDBRANCH  12  19
ENDBRANCH   1  15
TORSDOF 3
ENDMDL
MODEL 8
REMARK VINA RESULT:      -6.2     13.921     16.626
REMARK  Name = 
REMARK  3 active torsions:
REMARK  status: ('A' for Active; 'I' for Inactive)
REMARK    1  A    between atoms: C_2  and  C_4
REMARK    2  A    between atoms: C_7  and  C_8
REMARK    3  A    between atoms: C_8  and  N_9
REMARK                            x       y       z     vdW  Elec       q    Type
REMARK                         _______ _______ _______ _____ _____    ______ ____
ROOT
ATOM      1  C   UNL     1      26.364  22.761  24.646  0.00  0.00    +0.000 C 
ENDROOT
BRANCH   1   2
ATOM      2  N   UNL     1      27.697  23.060  24.177  0.00  0.00    +0.000 N 
ATOM      3  C   UNL     1      27.986  23.473  22.939  0.00  0.00    +0.000 A 
ATOM      4  O   UNL     1      27.172  23.663  22.012  0.00  0.00    +0.000 OA
ATOM      5  N   UNL     1      29.316  23.669  22.806  0.00  0.00    +0.000 NA
ATOM      6  C   UNL     1      29.888  23.372  23.990  0.00  0.00    +0.000 A 
ATOM      7  C   UNL     1      31.194  23.391  24.424  0.00  0.00    +0.000 A 
ATOM      8  C   UNL     1      31.446  23.022  25.722  0.00  0.00    +0.000 A 
ATOM      9  C   UNL     1      30.425  22.648  26.555  0.00  0.00    +0.000 A 
ATOM     10  C   UNL     1      29.127  22.629  26.125  0.00  0.00    +0.000 A 
ATOM     11  C   UNL     1      28.841  22.992  24.835  0.00  0.00    +0.000 A 
ENDBRANCH   1   2
BRANCH   1  15
ATOM     12  C   UNL     1      24.694  25.925  26.981  0.00  0.00    +0.000 A 
ATOM     13  C   UNL     1      25.229  24.790  27.537  0.00  0.00    +0.000 A 
ATOM     14  C   UNL     1      25.770  23.764  26.801  0.00  0.00    +0.000 A 
ATOM     15  C   UNL     1      25.777  23.875  25.426  0.00  0.00    +0.000 A 
ATOM     16  C   UNL     1      25.249  24.999  24.831  0.00  0.00    +0.000 A 
ATOM     17  C   UNL     1      24.712  26.017  25.599  0.00  0.00    +0.000 A 
BRANCH  12  19
ATOM     18  C   UNL     1      22.703  26.666  28.136  0.00  0.00    +0.000 C 
ATOM     19  C   UNL     1      24.135  26.976  27.860  0.00  0.00    +0.000 C 
ATOM     20  C   UNL     1      24.915  27.102  29.147  0.00  0.00    +0.000 C 
ENDBRANCH  12  19
ENDBRANCH   1  15
TORSDOF 3
ENDMDL
MODEL 9
REMARK VINA RESULT:      -6.2     21.285     22.283
REMARK  Name = 
REMARK  3 active torsions:
REMARK  status: ('A' for Active; 'I' for Inactive)
REMARK    1  A    between atoms: C_2  and  C_4
REMARK    2  A    between atoms: C_7  and  C_8
REMARK    3  A    between atoms: C_8  and  N_9
REMARK                            x       y       z     vdW  Elec       q    Type
REMARK                         _______ _______ _______ _____ _____    ______ ____
ROOT
ATOM      1  C   UNL     1      24.221   0.754  17.693  0.00  0.00    +0.000 C 
ENDROOT
BRANCH   1   2
ATOM      2  N   UNL     1      23.177   0.731  16.694  0.00  0.00    +0.000 N 
ATOM      3  C   UNL     1      23.338   0.279  15.446  0.00  0.00    +0.000 A 
ATOM      4  O   UNL     1      24.387  -0.183  14.954  0.00  0.00    +0.000 OA
ATOM      5  N   UNL     1      22.183   0.387  14.754  0.00  0.00    +0.000 NA
ATOM      6  C   UNL     1      21.263   0.920  15.583  0.00  0.00    +0.000 A 
ATOM      7  C   UNL     1      19.937   1.248  15.416  0.00  0.00    +0.000 A 
ATOM      8  C   UNL     1      19.267   1.788  16.486  0.00  0.00    +0.000 A 
ATOM      9  C   UNL     1      19.906   1.992  17.680  0.00  0.00    +0.000 A 
ATOM     10  C   UNL     1      21.223   1.667  17.847  0.00  0.00    +0.000 A 
ATOM     11  C   UNL     1      21.920   1.126  16.800  0.00  0.00    +0.000 A 
ENDBRANCH   1   2
BRANCH   1  15
ATOM     12  C   UNL     1      26.261   4.506  17.813  0.00  0.00    +0.000 A 
ATOM     13  C   UNL     1      26.596   3.502  16.939  0.00  0.00    +0.000 A 
ATOM     14  C   UNL     1      25.950   2.291  16.886  0.00  0.00    +0.000 A 
ATOM     15  C   UNL     1      24.907   2.065  17.761  0.00  0.00    +0.000 A 
ATOM     16  C   UNL     1      24.541   3.048  18.653  0.00  0.00    +0.000 A 
ATOM     17  C   UNL     1      25.211   4.258  18.681  0.00  0.00    +0.000 A 
BRANCH  12  19
ATOM     18  C   UNL     1      26.099   6.880  17.386  0.00  0.00    +0.000 C 
ATOM     19  C   UNL     1      27.017   5.777  17.791  0.00  0.00    +0.000 C 
ATOM     20  C   UNL     1      27.653   6.072  19.128  0.00  0.00    +0.000 C 
ENDBRANCH  12  19
ENDBRANCH   1  15
TORSDOF 3
ENDMDL
MODEL 10
REMARK VINA RESULT:      -6.1     15.801     18.344
REMARK  Name = 
REMARK  3 active torsions:
REMARK  status: ('A' for Active; 'I' for Inactive)
REMARK    1  A    between atoms: C_2  and  C_4
REMARK    2  A    between atoms: C_7  and  C_8
REMARK    3  A    between atoms: C_8  and  N_9
REMARK                            x       y       z     vdW  Elec       q    Type
REMARK                         _______ _______ _______ _____ _____    ______ ____
ROOT
ATOM      1  C   UNL     1      29.432  21.783  26.574  0.00  0.00    +0.000 C 
ENDROOT
BRANCH   1   2
ATOM      2  N   UNL     1      28.234  22.494  26.956  0.00  0.00    +0.000 N 
ATOM      3  C   UNL     1      27.324  22.958  26.093  0.00  0.00    +0.000 A 
ATOM      4  O   UNL     1      27.362  22.855  24.851  0.00  0.00    +0.000 OA
ATOM      5  N   UNL     1      26.321  23.577  26.753  0.00  0.00    +0.000 NA
ATOM      6  C   UNL     1      26.599  23.504  28.070  0.00  0.00    +0.000 A 
ATOM      7  C   UNL     1      25.936  23.958  29.188  0.00  0.00    +0.000 A 
ATOM      8  C   UNL     1      26.503  23.714  30.415  0.00  0.00    +0.000 A 
ATOM      9  C   UNL     1      27.691  23.040  30.516  0.00  0.00    +0.000 A 
ATOM     10  C   UNL     1      28.350  22.590  29.406  0.00  0.00    +0.000 A 
ATOM     11  C   UNL     1      27.812  22.815  28.167  0.00  0.00    +0.000 A 
ENDBRANCH   1   2
BRANCH   1  15
ATOM     12  C   UNL     1      32.614  24.390  25.421  0.00  0.00    +0.000 A 
ATOM     13  C   UNL     1      31.942  23.593  24.529  0.00  0.00    +0.000 A 
ATOM     14  C   UNL     1      30.916  22.750  24.882  0.00  0.00    +0.000 A 
ATOM     15  C   UNL     1      30.539  22.697  26.208  0.00  0.00    +0.000 A 
ATOM     16  C   UNL     1      31.189  23.482  27.134  0.00  0.00    +0.000 A 
ATOM     17  C   UNL     1      32.217  24.322  26.747  0.00  0.00    +0.000 A 
BRANCH  12  19
ATOM     18  C   UNL     1      34.172  26.121  26.072  0.00  0.00    +0.000 C 
ATOM     19  C   UNL     1      33.704  25.267  24.942  0.00  0.00    +0.000 C 
ATOM     20  C   UNL     1      34.848  24.470  24.362  0.00  0.00    +0.000 C 
ENDBRANCH  12  19
ENDBRANCH   1  15
TORSDOF 3
ENDMDL
