
     RDKit          3D

 32 34  0  0  0  0  0  0  0  0999 V2000
    8.0166    1.7859   -2.7307 C   0  0  0  0  0  0  0  0  0  0  0  0
    7.9861    0.3934   -2.0810 C   0  0  0  0  0  0  0  0  0  0  0  0
    8.3313   -0.6798   -3.0764 C   0  0  0  0  0  0  0  0  0  0  0  0
    8.9032    0.3873   -0.8802 C   0  0  0  0  0  0  0  0  0  0  0  0
    6.5877    0.2257   -1.6095 C   0  0  0  0  0  0  0  0  0  0  0  0
    6.2829    0.3661   -0.2772 C   0  0  0  0  0  0  0  0  0  0  0  0
    4.9761    0.2355    0.1280 C   0  0  0  0  0  0  0  0  0  0  0  0
    3.9275   -0.0341   -0.7707 C   0  0  0  0  0  0  0  0  0  0  0  0
    2.6109   -0.1500   -0.1596 C   0  0  0  0  0  0  0  0  0  0  0  0
    2.5413   -0.3860    1.0915 O   0  0  0  0  0  0  0  0  0  0  0  0
    1.3879   -0.0122   -0.8489 N   0  0  0  0  0  0  0  0  0  0  0  0
    0.1274   -0.1295   -0.2091 C   0  0  0  0  0  0  0  0  0  0  0  0
    0.1613   -0.3669    1.0357 O   0  0  0  0  0  0  0  0  0  0  0  0
   -1.1531    0.0161   -0.9451 C   0  0  0  0  0  0  0  0  0  0  0  0
   -2.2086   -0.1579    0.0204 O   0  0  0  0  0  0  0  0  0  0  0  0
   -2.3576    0.7062    1.0850 C   0  0  0  0  0  0  0  0  0  0  0  0
   -1.5236    1.6798    1.1470 O   0  0  0  0  0  0  0  0  0  0  0  0
   -3.3197    0.6527    2.1553 C   0  0  0  0  0  0  0  0  0  0  0  0
   -3.2080    1.5303    3.2516 C   0  0  0  0  0  0  0  0  0  0  0  0
   -4.0572    1.4599    4.3167 C   0  0  0  0  0  0  0  0  0  0  0  0
   -5.0457    0.4902    4.2959 C   0  0  0  0  0  0  0  0  0  0  0  0
   -5.1788   -0.3717    3.2511 C   0  0  0  0  0  0  0  0  0  0  0  0
   -4.3160   -0.2985    2.1677 C   0  0  0  0  0  0  0  0  0  0  0  0
   -4.5216   -1.2167    1.1538 O   0  0  0  0  0  0  0  0  0  0  0  0
   -5.1203   -0.8075   -0.0516 C   0  0  0  0  0  0  0  0  0  0  0  0
   -4.7696   -1.2103   -1.2456 C   0  0  0  0  0  0  0  0  0  0  0  0
   -5.3984   -0.7894   -2.3949 C   0  0  0  0  0  0  0  0  0  0  0  0
   -6.4503    0.0947   -2.2822 C   0  0  0  0  0  0  0  0  0  0  0  0
   -6.8280    0.5231   -1.0302 C   0  0  0  0  0  0  0  0  0  0  0  0
   -6.1836    0.0974    0.1062 C   0  0  0  0  0  0  0  0  0  0  0  0
    4.2308   -0.1703   -2.0821 C   0  0  0  0  0  0  0  0  0  0  0  0
    5.5691   -0.0412   -2.5310 C   0  0  0  0  0  0  0  0  0  0  0  0
  1  2  1  0
  2  3  1  0
  2  4  1  0
  2  5  1  0
  5  6  2  0
  6  7  1  0
  7  8  2  0
  8  9  1  0
  9 10  2  0
  9 11  1  0
 11 12  1  0
 12 13  2  0
 12 14  1  0
 14 15  1  0
 15 16  1  0
 16 17  2  0
 16 18  1  0
 18 19  2  0
 19 20  1  0
 20 21  2  0
 21 22  1  0
 22 23  2  0
 23 24  1  0
 24 25  1  0
 25 26  2  0
 26 27  1  0
 27 28  2  0
 28 29  1  0
 29 30  2  0
  8 31  1  0
 31 32  2  0
 32  5  1  0
 23 18  1  0
 30 25  1  0
M  END
>  <zinc_id>  (1) 
ZINC000003458214

>  <smiles>  (1) 
CC(C)(C)c1ccc(C(=O)NC(=O)COC(=O)c2ccccc2Oc2ccccc2)cc1

$$$$
