
     RDKit          3D

 32 36  0  0  0  0  0  0  0  0999 V2000
    4.5002    0.3412   -3.2450 C   0  0  0  0  0  0  0  0  0  0  0  0
    3.2835    0.1109   -2.6049 O   0  0  0  0  0  0  0  0  0  0  0  0
    3.0539    0.1160   -1.2432 C   0  0  0  0  0  0  0  0  0  0  0  0
    3.7940   -0.5718   -0.3863 C   0  0  0  0  0  0  0  0  0  0  0  0
    4.9124   -1.3859   -0.8483 C   0  0  0  0  0  0  0  0  0  0  0  0
    6.1577   -0.8617   -0.1846 C   0  0  0  0  0  0  0  0  0  0  0  0
    6.8660    0.1341   -0.8203 C   0  0  0  0  0  0  0  0  0  0  0  0
    7.9928    0.6151   -0.2292 C   0  0  0  0  0  0  0  0  0  0  0  0
    8.4608    0.1564    0.9727 C   0  0  0  0  0  0  0  0  0  0  0  0
    7.7550   -0.8474    1.6229 C   0  0  0  0  0  0  0  0  0  0  0  0
    6.5936   -1.3604    1.0388 C   0  0  0  0  0  0  0  0  0  0  0  0
    3.3881   -0.4417    1.0584 C   0  0  0  0  0  0  0  0  0  0  0  0
    1.9134   -0.7850    1.0959 C   0  0  0  0  0  0  0  0  0  0  0  0
    1.1477   -0.0051    0.1498 N   0  0  0  0  0  0  0  0  0  0  0  0
    0.0622    0.6124    0.8863 C   0  0  0  0  0  0  0  0  0  0  0  0
   -0.8479   -0.5585    1.2920 C   0  0  0  0  0  0  0  0  0  0  0  0
   -1.2715   -1.1741   -0.0509 C   0  0  0  0  0  0  0  0  0  0  0  0
   -2.0049   -0.1500   -0.8599 C   0  0  0  0  0  0  0  0  0  0  0  0
   -1.5593    0.5785   -1.9219 C   0  0  0  0  0  0  0  0  0  0  0  0
   -2.5926    1.3757   -2.3134 N   0  0  0  0  0  0  0  0  0  0  0  0
   -3.6622    1.1874   -1.5556 C   0  0  0  0  0  0  0  0  0  0  0  0
   -4.9389    1.7140   -1.5168 C   0  0  0  0  0  0  0  0  0  0  0  0
   -5.8223    1.2649   -0.5578 C   0  0  0  0  0  0  0  0  0  0  0  0
   -5.4992    0.3006    0.3850 C   0  0  0  0  0  0  0  0  0  0  0  0
   -6.4453   -0.1288    1.3496 N   0  0  0  0  0  0  0  0  0  0  0  0
   -6.8207    0.5378    2.4480 C   0  0  0  0  0  0  0  0  0  0  0  0
   -7.7310   -0.1811    3.1164 N   0  0  0  0  0  0  0  0  0  0  0  0
   -7.9416   -1.2997    2.4580 N   0  0  0  0  0  0  0  0  0  0  0  0
   -7.1518   -1.2662    1.3734 C   0  0  0  0  0  0  0  0  0  0  0  0
   -4.2139   -0.2142    0.3288 C   0  0  0  0  0  0  0  0  0  0  0  0
   -3.3156    0.2257   -0.6272 C   0  0  0  0  0  0  0  0  0  0  0  0
    1.9375    0.9072   -0.6108 C   0  0  0  0  0  0  0  0  0  0  0  0
  1  2  1  0
  2  3  1  0
  3  4  2  0
  4  5  1  0
  5  6  1  0
  6  7  2  0
  7  8  1  0
  8  9  2  0
  9 10  1  0
 10 11  2  0
  4 12  1  0
 12 13  1  0
 13 14  1  0
 14 15  1  0
 15 16  1  0
 16 17  1  0
 17 18  1  0
 18 19  2  0
 19 20  1  0
 20 21  1  0
 21 22  2  0
 22 23  1  0
 23 24  2  0
 24 25  1  0
 25 26  1  0
 26 27  2  0
 27 28  1  0
 28 29  2  0
 24 30  1  0
 30 31  2  0
 14 32  1  0
 32  3  1  0
 11  6  1  0
 31 18  1  0
 31 21  1  0
 29 25  1  0
M  END
>  <zinc_id>  (1) 
ZINC000001486800

>  <smiles>  (1) 
COC1=C(Cc2ccccc2)CCN(CCCc2c[nH]c3ccc(-n4cnnc4)cc23)C1

$$$$
