
     RDKit          3D

 30 32  0  0  0  0  0  0  0  0999 V2000
    6.4452    0.6500   -2.2258 C   0  0  0  0  0  0  0  0  0  0  0  0
    7.6760   -0.1249   -1.8670 C   0  0  0  0  0  0  0  0  0  0  0  0
    7.3611   -1.2353   -0.9295 C   0  0  0  0  0  0  0  0  0  0  0  0
    6.8086   -0.7618    0.3578 C   0  0  0  0  0  0  0  0  0  0  0  0
    5.5586    0.0079    0.3044 C   0  0  0  0  0  0  0  0  0  0  0  0
    4.3605   -0.7184    0.2968 C   0  0  0  0  0  0  0  0  0  0  0  0
    3.1697   -0.0294    0.2746 C   0  0  0  0  0  0  0  0  0  0  0  0
    3.0928    1.3442    0.2593 C   0  0  0  0  0  0  0  0  0  0  0  0
    1.8883    2.0904    0.2363 N   0  0  0  0  0  0  0  0  0  0  0  0
    0.6490    1.3943    0.2278 C   0  0  0  0  0  0  0  0  0  0  0  0
    0.6860    0.1398    0.2412 O   0  0  0  0  0  0  0  0  0  0  0  0
   -0.6591    2.0795    0.2041 C   0  0  0  0  0  0  0  0  0  0  0  0
   -1.6823    1.1375    0.2067 O   0  0  0  0  0  0  0  0  0  0  0  0
   -1.8592    0.2180    1.2250 C   0  0  0  0  0  0  0  0  0  0  0  0
   -1.0806    0.2200    2.1859 O   0  0  0  0  0  0  0  0  0  0  0  0
   -2.9920   -0.7630    1.1432 C   0  0  0  0  0  0  0  0  0  0  0  0
   -4.2436    0.0480    1.0886 C   0  0  0  0  0  0  0  0  0  0  0  0
   -4.2699    1.3225    0.5477 C   0  0  0  0  0  0  0  0  0  0  0  0
   -5.4058    2.0721    0.4923 C   0  0  0  0  0  0  0  0  0  0  0  0
   -6.5832    1.5546    0.9905 C   0  0  0  0  0  0  0  0  0  0  0  0
   -6.5899    0.2966    1.5321 C   0  0  0  0  0  0  0  0  0  0  0  0
   -5.4362   -0.4538    1.5836 C   0  0  0  0  0  0  0  0  0  0  0  0
   -2.8800   -1.5585   -0.0832 C   0  0  0  0  0  0  0  0  0  0  0  0
   -2.2344   -1.0578   -1.1832 C   0  0  0  0  0  0  0  0  0  0  0  0
   -2.1297   -1.8247   -2.3570 C   0  0  0  0  0  0  0  0  0  0  0  0
   -2.6768   -3.0702   -2.3888 C   0  0  0  0  0  0  0  0  0  0  0  0
   -3.3299   -3.5934   -1.2957 C   0  0  0  0  0  0  0  0  0  0  0  0
   -3.4190   -2.8151   -0.1493 C   0  0  0  0  0  0  0  0  0  0  0  0
    4.2811    2.0385    0.2671 C   0  0  0  0  0  0  0  0  0  0  0  0
    5.4947    1.3926    0.2892 C   0  0  0  0  0  0  0  0  0  0  0  0
  1  2  1  0
  2  3  1  0
  3  4  1  0
  4  5  1  0
  5  6  2  0
  6  7  1  0
  7  8  2  0
  8  9  1  0
  9 10  1  0
 10 11  2  0
 10 12  1  0
 12 13  1  0
 13 14  1  0
 14 15  2  0
 14 16  1  0
 16 17  1  0
 17 18  2  0
 18 19  1  0
 19 20  2  0
 20 21  1  0
 21 22  2  0
 16 23  1  0
 23 24  2  0
 24 25  1  0
 25 26  2  0
 26 27  1  0
 27 28  2  0
  8 29  1  0
 29 30  2  0
 30  5  1  0
 22 17  1  0
 28 23  1  0
M  END
>  <zinc_id>  (1) 
ZINC000001935138

>  <smiles>  (1) 
CCCCc1ccc(NC(=O)COC(=O)C(c2ccccc2)c2ccccc2)cc1

$$$$
