
     RDKit          3D

 31 34  0  0  0  0  0  0  0  0999 V2000
   -3.4910    2.6822   -1.1446 C   0  0  0  0  0  0  0  0  0  0  0  0
   -3.9309    1.2225   -1.8091 C   0  0  1  0  0  0  0  0  0  0  0  0
   -2.7494    0.4416   -1.0833 N   0  0  0  0  0  0  0  0  0  0  0  0
   -2.9787   -0.9530   -0.9291 C   0  0  0  0  0  0  0  0  0  0  0  0
   -4.0634   -1.4353   -1.3657 O   0  0  0  0  0  0  0  0  0  0  0  0
   -1.9993   -1.8356   -0.2839 C   0  0  0  0  0  0  0  0  0  0  0  0
   -2.2448   -3.1977   -0.1408 C   0  0  0  0  0  0  0  0  0  0  0  0
   -1.2828   -3.9721    0.4771 C   0  0  0  0  0  0  0  0  0  0  0  0
   -0.1007   -3.4457    0.9513 C   0  0  0  0  0  0  0  0  0  0  0  0
    0.1162   -2.0937    0.7961 C   0  0  0  0  0  0  0  0  0  0  0  0
   -0.8298   -1.2788    0.1781 C   0  0  0  0  0  0  0  0  0  0  0  0
   -0.6590    0.0840   -0.0007 O   0  0  0  0  0  0  0  0  0  0  0  0
    0.5396    0.6589    0.4674 C   0  0  0  0  0  0  0  0  0  0  0  0
    1.7362    0.1071   -0.1808 C   0  0  0  0  0  0  0  0  0  0  0  0
    1.5738   -0.7605   -1.0781 O   0  0  0  0  0  0  0  0  0  0  0  0
    3.0911    0.5185    0.1684 C   0  0  0  0  0  0  0  0  0  0  0  0
    3.3367    1.4600    1.1381 C   0  0  0  0  0  0  0  0  0  0  0  0
    4.6248    1.8392    1.4600 C   0  0  0  0  0  0  0  0  0  0  0  0
    5.7232    1.2907    0.8235 C   0  0  0  0  0  0  0  0  0  0  0  0
    5.4994    0.3461   -0.1509 C   0  0  0  0  0  0  0  0  0  0  0  0
    4.1831   -0.0226   -0.4601 C   0  0  0  0  0  0  0  0  0  0  0  0
    6.6056   -0.3105   -0.8985 C   0  0  0  0  0  0  0  0  0  0  0  0
    7.9524    0.2243   -0.5263 C   0  0  0  0  0  0  0  0  0  0  0  0
    8.0581    0.5624    0.9496 C   0  0  0  0  0  0  0  0  0  0  0  0
    7.1182    1.7209    1.1926 C   0  0  0  0  0  0  0  0  0  0  0  0
   -5.0240    0.9034   -0.6942 C   0  0  0  0  0  0  0  0  0  0  0  0
   -4.7248    1.0426    0.6079 C   0  0  0  0  0  0  0  0  0  0  0  0
   -5.6812    0.7599    1.5595 C   0  0  0  0  0  0  0  0  0  0  0  0
   -6.9426    0.3361    1.2033 C   0  0  0  0  0  0  0  0  0  0  0  0
   -7.2097    0.2061   -0.1413 C   0  0  0  0  0  0  0  0  0  0  0  0
   -6.2462    0.4913   -1.0855 C   0  0  0  0  0  0  0  0  0  0  0  0
  2  1  1  1
  2  3  1  0
  3  4  1  0
  4  5  2  0
  4  6  1  0
  6  7  2  0
  7  8  1  0
  8  9  2  0
  9 10  1  0
 10 11  2  0
 11 12  1  0
 12 13  1  0
 13 14  1  0
 14 15  2  0
 14 16  1  0
 16 17  2  0
 17 18  1  0
 18 19  2  0
 19 20  1  0
 20 21  2  0
 20 22  1  0
 22 23  1  0
 23 24  1  0
 24 25  1  0
  2 26  1  0
 26 27  2  0
 27 28  1  0
 28 29  2  0
 29 30  1  0
 30 31  2  0
 11  6  1  0
 21 16  1  0
 31 26  1  0
 25 19  1  0
M  END
>  <zinc_id>  (1) 
ZINC000003002663

>  <smiles>  (1) 
C[C@@H](NC(=O)c1ccccc1OCC(=O)c1ccc2c(c1)CCCC2)c1ccccc1

$$$$
