
     RDKit          3D

 32 36  0  0  0  0  0  0  0  0999 V2000
    3.2776   -1.8441    4.1692 C   0  0  0  0  0  0  0  0  0  0  0  0
    4.5907   -2.2994    3.5945 C   0  0  0  0  0  0  0  0  0  0  0  0
    4.9905   -1.5385    2.3745 C   0  0  0  0  0  0  0  0  0  0  0  0
    5.1360   -0.0422    2.6835 C   0  0  0  0  0  0  0  0  0  0  0  0
    5.5151    0.6630    1.5166 O   0  0  0  0  0  0  0  0  0  0  0  0
    4.6602    0.6071    0.4267 C   0  0  0  0  0  0  0  0  0  0  0  0
    5.0392    1.2968   -0.7027 C   0  0  0  0  0  0  0  0  0  0  0  0
    4.2554    1.2973   -1.8276 C   0  0  0  0  0  0  0  0  0  0  0  0
    3.0743    0.5891   -1.8036 C   0  0  0  0  0  0  0  0  0  0  0  0
    2.2221    0.6356   -3.1532 C   0  0  2  0  0  0  0  0  0  0  0  0
    2.3070    2.1775   -3.3690 N   0  0  0  0  0  0  0  0  0  0  0  0
    2.1110    2.8424   -2.1353 C   0  0  0  0  0  0  0  0  0  0  0  0
    0.6306    2.9381   -1.8521 C   0  0  0  0  0  0  0  0  0  0  0  0
    0.1169    1.5540   -1.9672 C   0  0  0  0  0  0  0  0  0  0  0  0
    0.7909    0.5657   -2.5228 C   0  0  0  0  0  0  0  0  0  0  0  0
    0.0231   -0.5333   -2.4520 N   0  0  0  0  0  0  0  0  0  0  0  0
   -1.1611   -0.2341   -1.8389 C   0  0  0  0  0  0  0  0  0  0  0  0
   -2.2869   -0.9681   -1.5134 C   0  0  0  0  0  0  0  0  0  0  0  0
   -3.3410   -0.3420   -0.8768 C   0  0  0  0  0  0  0  0  0  0  0  0
   -3.3398    0.9952   -0.5395 C   0  0  0  0  0  0  0  0  0  0  0  0
   -4.4231    1.5749    0.0987 O   0  0  0  0  0  0  0  0  0  0  0  0
   -5.5889    0.9333    0.4660 C   0  0  0  0  0  0  0  0  0  0  0  0
   -5.4067   -0.1813    1.4048 C   0  0  0  0  0  0  0  0  0  0  0  0
   -5.2178   -1.4767    0.9988 C   0  0  0  0  0  0  0  0  0  0  0  0
   -5.0469   -2.5214    1.8821 C   0  0  0  0  0  0  0  0  0  0  0  0
   -5.0632   -2.2758    3.2317 C   0  0  0  0  0  0  0  0  0  0  0  0
   -5.2506   -0.9870    3.6694 C   0  0  0  0  0  0  0  0  0  0  0  0
   -5.4229    0.0641    2.7563 C   0  0  0  0  0  0  0  0  0  0  0  0
   -2.1998    1.7064   -0.8772 C   0  0  0  0  0  0  0  0  0  0  0  0
   -1.1369    1.1041   -1.5118 C   0  0  0  0  0  0  0  0  0  0  0  0
    2.6754   -0.0896   -0.7291 C   0  0  0  0  0  0  0  0  0  0  0  0
    3.4699   -0.0851    0.3992 C   0  0  0  0  0  0  0  0  0  0  0  0
  1  2  1  0
  2  3  1  0
  3  4  1  0
  4  5  1  0
  5  6  1  0
  6  7  2  0
  7  8  1  0
  8  9  2  0
 10  9  1  1
 10 11  1  0
 11 12  1  0
 12 13  1  0
 13 14  1  0
 14 15  2  0
 15 16  1  0
 16 17  1  0
 17 18  2  0
 18 19  1  0
 19 20  2  0
 20 21  1  0
 21 22  1  0
 22 23  1  0
 23 24  2  0
 24 25  1  0
 25 26  2  0
 26 27  1  0
 27 28  2  0
 20 29  1  0
 29 30  2  0
  9 31  1  0
 31 32  2  0
 32  6  1  0
 15 10  1  0
 30 17  1  0
 30 14  1  0
 28 23  1  0
M  END
>  <zinc_id>  (1) 
ZINC000003738110

>  <smiles>  (1) 
CCCCOc1ccc([C@@H]2NCCc3c2[nH]c2ccc(OCc4ccccc4)cc32)cc1

$$$$
