
     RDKit          3D

 33 37  0  0  0  0  0  0  0  0999 V2000
    2.8718   -1.2644   -2.0112 C   0  0  0  0  0  0  0  0  0  0  0  0
    2.7917   -1.9254   -0.6479 C   0  0  0  0  0  0  0  0  0  0  0  0
    2.5327   -0.8907    0.3376 N   0  0  0  0  0  0  0  0  0  0  0  0
    1.3613   -0.4262    0.7839 C   0  0  0  0  0  0  0  0  0  0  0  0
   -0.2080   -1.0424    0.2049 S   0  0  0  0  0  0  0  0  0  0  0  0
   -1.4978   -0.1029    1.1015 C   0  0  0  0  0  0  0  0  0  0  0  0
   -1.3387    1.4324    0.5608 C   0  0  2  0  0  0  0  0  0  0  0  0
   -2.4697    1.9300    1.4638 O   0  0  0  0  0  0  0  0  0  0  0  0
   -2.3001    1.2105   -0.7353 C   0  0  0  0  0  0  0  0  0  0  0  0
   -3.5956    0.8493   -0.3684 N   0  0  0  0  0  0  0  0  0  0  0  0
   -4.5993    1.7127   -0.1023 C   0  0  0  0  0  0  0  0  0  0  0  0
   -4.6230    3.0792   -0.1061 C   0  0  0  0  0  0  0  0  0  0  0  0
   -5.7723    3.7519    0.2013 C   0  0  0  0  0  0  0  0  0  0  0  0
   -6.9037    3.0432    0.5143 C   0  0  0  0  0  0  0  0  0  0  0  0
   -6.8769    1.6819    0.5173 C   0  0  0  0  0  0  0  0  0  0  0  0
   -5.7262    0.9932    0.2095 C   0  0  0  0  0  0  0  0  0  0  0  0
   -5.4197   -0.3319    0.1362 C   0  0  0  0  0  0  0  0  0  0  0  0
   -6.1594   -1.4678    0.3424 C   0  0  0  0  0  0  0  0  0  0  0  0
   -5.5653   -2.6978    0.1865 C   0  0  0  0  0  0  0  0  0  0  0  0
   -4.2316   -2.8106   -0.1755 C   0  0  0  0  0  0  0  0  0  0  0  0
   -3.5357   -1.6622   -0.3697 C   0  0  0  0  0  0  0  0  0  0  0  0
   -4.0747   -0.3942   -0.2289 C   0  0  0  0  0  0  0  0  0  0  0  0
    1.6714    0.5188    1.6818 N   0  0  0  0  0  0  0  0  0  0  0  0
    2.9855    0.6479    1.7996 N   0  0  0  0  0  0  0  0  0  0  0  0
    3.5326   -0.2329    0.9595 C   0  0  0  0  0  0  0  0  0  0  0  0
    4.9713   -0.4060    0.7898 C   0  0  0  0  0  0  0  0  0  0  0  0
    5.3965   -1.3544   -0.1169 C   0  0  0  0  0  0  0  0  0  0  0  0
    6.7391   -1.5625   -0.3193 C   0  0  0  0  0  0  0  0  0  0  0  0
    7.7040   -0.8323    0.3752 C   0  0  0  0  0  0  0  0  0  0  0  0
    8.9841   -1.1594    0.0594 O   0  0  0  0  0  0  0  0  0  0  0  0
   10.1792   -0.6877    0.5065 C   0  0  0  0  0  0  0  0  0  0  0  0
    7.2671    0.0937    1.2604 C   0  0  0  0  0  0  0  0  0  0  0  0
    5.9093    0.3071    1.4679 C   0  0  0  0  0  0  0  0  0  0  0  0
  1  2  1  0
  2  3  1  0
  3  4  1  0
  4  5  1  0
  5  6  1  0
  6  7  1  0
  7  8  1  1
  7  9  1  0
  9 10  1  0
 10 11  1  0
 11 12  2  0
 12 13  1  0
 13 14  2  0
 14 15  1  0
 15 16  2  0
 16 17  1  0
 17 18  2  0
 18 19  1  0
 19 20  2  0
 20 21  1  0
 21 22  2  0
  4 23  2  0
 23 24  1  0
 24 25  2  0
 25 26  1  0
 26 27  2  0
 27 28  1  0
 28 29  2  0
 29 30  1  0
 30 31  1  0
 29 32  1  0
 32 33  2  0
 25  3  1  0
 33 26  1  0
 22 10  1  0
 16 11  1  0
 22 17  1  0
M  END
>  <zinc_id>  (1) 
ZINC000002327783

>  <smiles>  (1) 
CCn1c(SC[C@H](O)Cn2c3ccccc3c3ccccc32)nnc1-c1ccc(OC)cc1

$$$$
