
     RDKit          3D

 36 41  0  0  0  0  0  0  0  0999 V2000
   -0.6768    2.5256   -5.6947 C   0  0  0  0  0  0  0  0  0  0  0  0
    0.0577    2.2133   -4.5308 O   0  0  0  0  0  0  0  0  0  0  0  0
   -0.5321    1.3477   -3.5934 C   0  0  0  0  0  0  0  0  0  0  0  0
   -1.7868    0.8217   -3.8051 C   0  0  0  0  0  0  0  0  0  0  0  0
   -2.4175   -0.0279   -2.9303 C   0  0  0  0  0  0  0  0  0  0  0  0
   -1.7529   -0.3891   -1.7454 C   0  0  0  0  0  0  0  0  0  0  0  0
   -0.5049    0.1332   -1.5331 C   0  0  0  0  0  0  0  0  0  0  0  0
    0.1215    0.9959   -2.4338 C   0  0  0  0  0  0  0  0  0  0  0  0
   -0.0398   -0.3498   -0.3177 C   0  0  0  0  0  0  0  0  0  0  0  0
    1.2518   -0.0474    0.3011 C   0  0  0  0  0  0  0  0  0  0  0  0
    1.5255   -0.5670    1.4108 O   0  0  0  0  0  0  0  0  0  0  0  0
    2.1945    0.8017   -0.3006 N   0  0  0  0  0  0  0  0  0  0  0  0
    3.4717    1.1428    0.2407 C   0  0  0  0  0  0  0  0  0  0  0  0
    4.3519   -0.0131    0.4576 C   0  0  0  0  0  0  0  0  0  0  0  0
    3.9047   -1.2714    0.1402 C   0  0  0  0  0  0  0  0  0  0  0  0
    4.7471   -2.3766    0.3480 C   0  0  0  0  0  0  0  0  0  0  0  0
    6.0113   -2.2134    0.8642 C   0  0  0  0  0  0  0  0  0  0  0  0
    6.4527   -0.9606    1.1786 C   0  0  0  0  0  0  0  0  0  0  0  0
    7.7312   -0.7638    1.7043 C   0  0  0  0  0  0  0  0  0  0  0  0
    8.1499    0.4969    2.0107 C   0  0  0  0  0  0  0  0  0  0  0  0
    7.3317    1.5817    1.8103 C   0  0  0  0  0  0  0  0  0  0  0  0
    6.0841    1.3673    1.2948 C   0  0  0  0  0  0  0  0  0  0  0  0
    5.6134    0.1260    0.9701 C   0  0  0  0  0  0  0  0  0  0  0  0
   -1.0504   -1.1524    0.1471 C   0  0  0  0  0  0  0  0  0  0  0  0
   -0.9422   -1.8769    1.4565 C   0  0  0  0  0  0  0  0  0  0  0  0
   -2.0688   -1.1660   -0.7178 N   0  0  0  0  0  0  0  0  0  0  0  0
   -3.2921   -1.9105   -0.5358 C   0  0  0  0  0  0  0  0  0  0  0  0
   -4.3303   -1.1369    0.1726 C   0  0  0  0  0  0  0  0  0  0  0  0
   -4.3602   -1.2267    1.5508 C   0  0  0  0  0  0  0  0  0  0  0  0
   -5.2856   -0.5481    2.3143 C   0  0  0  0  0  0  0  0  0  0  0  0
   -6.2444    0.2703    1.7096 C   0  0  0  0  0  0  0  0  0  0  0  0
   -6.2057    0.3526    0.3364 C   0  0  0  0  0  0  0  0  0  0  0  0
   -5.2595   -0.3427   -0.4269 C   0  0  0  0  0  0  0  0  0  0  0  0
   -7.2434    1.2140   -0.0233 O   0  0  0  0  0  0  0  0  0  0  0  0
   -7.7357    1.8947    1.1169 C   0  0  0  0  0  0  0  0  0  0  0  0
   -7.2717    1.0549    2.1790 O   0  0  0  0  0  0  0  0  0  0  0  0
  1  2  1  0
  2  3  1  0
  3  4  2  0
  4  5  1  0
  5  6  2  0
  6  7  1  0
  7  8  2  0
  7  9  1  0
  9 10  1  0
 10 11  2  0
 10 12  1  0
 12 13  1  0
 13 14  1  0
 14 15  2  0
 15 16  1  0
 16 17  2  0
 17 18  1  0
 18 19  2  0
 19 20  1  0
 20 21  2  0
 21 22  1  0
 22 23  2  0
  9 24  2  0
 24 25  1  0
 24 26  1  0
 26 27  1  0
 27 28  1  0
 28 29  2  0
 29 30  1  0
 30 31  2  0
 31 32  1  0
 32 33  2  0
 32 34  1  0
 34 35  1  0
 35 36  1  0
  8  3  1  0
 23 14  1  0
 33 28  1  0
 26  6  1  0
 36 31  1  0
 23 18  1  0
M  END
>  <zinc_id>  (1) 
ZINC000000762288

>  <smiles>  (1) 
COc1ccc2c(c1)c(C(=O)NCc1cccc3ccccc13)c(C)n2Cc1ccc2c(c1)OCO2

$$$$
