
     RDKit          3D

 30 33  0  0  0  0  0  0  0  0999 V2000
    5.9367   -0.2136    4.6414 C   0  0  0  0  0  0  0  0  0  0  0  0
    6.6444   -0.3360    3.4428 O   0  0  0  0  0  0  0  0  0  0  0  0
    6.0759   -0.2642    2.1877 C   0  0  0  0  0  0  0  0  0  0  0  0
    6.8705   -0.3988    1.0748 C   0  0  0  0  0  0  0  0  0  0  0  0
    6.2909   -0.3255   -0.1971 C   0  0  0  0  0  0  0  0  0  0  0  0
    4.9398   -0.1211   -0.3525 C   0  0  0  0  0  0  0  0  0  0  0  0
    4.1511    0.0127    0.7618 C   0  0  0  0  0  0  0  0  0  0  0  0
    2.6729    0.2373    0.6690 C   0  0  0  0  0  0  0  0  0  0  0  0
    2.0652    0.3425    1.7443 O   0  0  0  0  0  0  0  0  0  0  0  0
    2.0233    0.3236   -0.4569 N   0  0  0  0  0  0  0  0  0  0  0  0
    0.9107    0.4846   -1.2295 C   0  0  0  0  0  0  0  0  0  0  0  0
    1.0496    0.4428   -3.0007 S   0  0  0  0  0  0  0  0  0  0  0  0
   -0.5503    0.6825   -3.4114 C   0  0  0  0  0  0  0  0  0  0  0  0
   -1.1739    0.7915   -2.2210 C   0  0  0  0  0  0  0  0  0  0  0  0
   -0.4360    0.6920   -1.0843 C   0  0  0  0  0  0  0  0  0  0  0  0
   -1.0618    0.8036    0.2669 C   0  0  0  0  0  0  0  0  0  0  0  0
   -0.4181    0.7174    1.2992 O   0  0  0  0  0  0  0  0  0  0  0  0
   -2.4849    1.0218    0.3476 N   0  0  0  0  0  0  0  0  0  0  0  0
   -3.0466    1.1236    1.7012 C   0  0  0  0  0  0  0  0  0  0  0  0
   -4.5352    1.3500    1.6165 C   0  0  0  0  0  0  0  0  0  0  0  0
   -5.1185    0.1755    0.8912 C   0  0  0  0  0  0  0  0  0  0  0  0
   -5.5341   -0.9346    1.5836 C   0  0  0  0  0  0  0  0  0  0  0  0
   -6.0596   -1.9859    0.9007 C   0  0  0  0  0  0  0  0  0  0  0  0
   -6.1870   -1.9692   -0.4656 C   0  0  0  0  0  0  0  0  0  0  0  0
   -5.7709   -0.8506   -1.1910 C   0  0  0  0  0  0  0  0  0  0  0  0
   -5.2421    0.2023   -0.4808 C   0  0  0  0  0  0  0  0  0  0  0  0
   -2.6613    1.0128   -2.5597 C   0  0  0  0  0  0  0  0  0  0  0  0
   -2.5664    1.6978   -3.8853 C   0  0  0  0  0  0  0  0  0  0  0  0
   -1.5147    0.8177   -4.5759 C   0  0  0  0  0  0  0  0  0  0  0  0
    4.7305   -0.0612    1.9828 C   0  0  0  0  0  0  0  0  0  0  0  0
  1  2  1  0
  2  3  1  0
  3  4  2  0
  4  5  1  0
  5  6  2  0
  6  7  1  0
  7  8  1  0
  8  9  2  0
  8 10  1  0
 10 11  1  0
 11 12  1  0
 12 13  1  0
 13 14  2  0
 14 15  1  0
 15 16  1  0
 16 17  2  0
 16 18  1  0
 18 19  1  0
 19 20  1  0
 20 21  1  0
 21 22  2  0
 22 23  1  0
 23 24  2  0
 24 25  1  0
 25 26  2  0
 14 27  1  0
 27 28  1  0
 28 29  1  0
  7 30  2  0
 30  3  1  0
 15 11  2  0
 26 21  1  0
 29 13  1  0
M  END
>  <zinc_id>  (1) 
ZINC000001131818

>  <smiles>  (1) 
COc1cccc(C(=O)Nc2sc3c(c2C(=O)NCCc2ccccc2)CCC3)c1

$$$$
