
     RDKit          3D

 33 37  0  0  0  0  0  0  0  0999 V2000
    6.3399   -3.4112   -0.2093 C   0  0  0  0  0  0  0  0  0  0  0  0
    5.1558   -2.6573   -0.1930 O   0  0  0  0  0  0  0  0  0  0  0  0
    5.0985   -1.2867   -0.1584 C   0  0  0  0  0  0  0  0  0  0  0  0
    6.2689   -0.5667   -0.1372 C   0  0  0  0  0  0  0  0  0  0  0  0
    6.1966    0.8310   -0.1018 C   0  0  0  0  0  0  0  0  0  0  0  0
    4.9830    1.4781   -0.0883 C   0  0  0  0  0  0  0  0  0  0  0  0
    3.8382    0.7089   -0.1107 C   0  0  0  0  0  0  0  0  0  0  0  0
    3.8945   -0.6683   -0.1456 C   0  0  0  0  0  0  0  0  0  0  0  0
    2.6505   -1.3819   -0.1676 N   0  0  0  0  0  0  0  0  0  0  0  0
    1.4054   -0.6984   -0.1456 C   0  0  0  0  0  0  0  0  0  0  0  0
    1.4476    0.5206   -0.1079 O   0  0  0  0  0  0  0  0  0  0  0  0
    0.0967   -1.4160   -0.1652 C   0  0  0  0  0  0  0  0  0  0  0  0
   -1.0882   -0.7680   -0.0393 C   0  0  0  0  0  0  0  0  0  0  0  0
   -1.5758    0.4589    0.3501 N   0  0  0  0  0  0  0  0  0  0  0  0
   -1.3437    1.6238    0.9473 C   0  0  0  0  0  0  0  0  0  0  0  0
   -0.2216    1.8457    1.4502 O   0  0  0  0  0  0  0  0  0  0  0  0
   -2.3293    2.7301    1.0790 C   0  0  0  0  0  0  0  0  0  0  0  0
   -1.9507    3.8741    1.7197 C   0  0  0  0  0  0  0  0  0  0  0  0
   -2.8478    4.9406    1.8658 C   0  0  0  0  0  0  0  0  0  0  0  0
   -4.1246    4.8190    1.3514 C   0  0  0  0  0  0  0  0  0  0  0  0
   -4.5251    3.6698    0.7006 C   0  0  0  0  0  0  0  0  0  0  0  0
   -5.8082    3.5626    0.1903 C   0  0  0  0  0  0  0  0  0  0  0  0
   -6.1339    2.3821   -0.4473 C   0  0  0  0  0  0  0  0  0  0  0  0
   -5.2390    1.3434   -0.5820 C   0  0  0  0  0  0  0  0  0  0  0  0
   -3.9710    1.4892   -0.0601 C   0  0  0  0  0  0  0  0  0  0  0  0
   -3.6058    2.6384    0.5779 C   0  0  0  0  0  0  0  0  0  0  0  0
   -2.2307   -2.0958   -0.3404 S   0  0  0  0  0  0  0  0  0  0  0  0
   -1.1493   -3.3426   -0.5897 C   0  0  0  0  0  0  0  0  0  0  0  0
    0.0586   -2.7527   -0.4479 C   0  0  0  0  0  0  0  0  0  0  0  0
    1.2206   -3.7350   -0.6363 C   0  0  0  0  0  0  0  0  0  0  0  0
    1.0020   -4.3088   -2.0283 C   0  0  0  0  0  0  0  0  0  0  0  0
   -0.3354   -5.0046   -2.1358 C   0  0  0  0  0  0  0  0  0  0  0  0
   -1.1766   -4.8220   -0.9027 C   0  0  0  0  0  0  0  0  0  0  0  0
  1  2  1  0
  2  3  1  0
  3  4  2  0
  4  5  1  0
  5  6  2  0
  6  7  1  0
  7  8  2  0
  8  9  1  0
  9 10  1  0
 10 11  2  0
 10 12  1  0
 12 13  2  0
 13 14  1  0
 14 15  1  0
 15 16  2  0
 15 17  1  0
 17 18  2  0
 18 19  1  0
 19 20  2  0
 20 21  1  0
 21 22  2  0
 22 23  1  0
 23 24  2  0
 24 25  1  0
 25 26  2  0
 13 27  1  0
 27 28  1  0
 28 29  2  0
 29 30  1  0
 30 31  1  0
 31 32  1  0
 32 33  1  0
  8  3  1  0
 29 12  1  0
 26 17  1  0
 33 28  1  0
 26 21  1  0
M  END
>  <zinc_id>  (1) 
ZINC000002841253

>  <smiles>  (1) 
COc1ccccc1NC(=O)c1c(NC(=O)c2cccc3ccccc23)sc2c1CCCC2

$$$$
