
     RDKit          3D

 32 36  0  0  0  0  0  0  0  0999 V2000
   -6.7282   -0.0281   -3.1007 C   0  0  0  0  0  0  0  0  0  0  0  0
   -7.1165    1.1384   -2.2217 C   0  0  0  0  0  0  0  0  0  0  0  0
   -6.0283    1.7365   -1.5956 O   0  0  0  0  0  0  0  0  0  0  0  0
   -5.1454    1.1157   -0.7160 C   0  0  0  0  0  0  0  0  0  0  0  0
   -5.3091   -0.2110   -0.3922 C   0  0  0  0  0  0  0  0  0  0  0  0
   -4.4467   -0.8422    0.4784 C   0  0  0  0  0  0  0  0  0  0  0  0
   -3.3596   -0.1723    1.0809 C   0  0  0  0  0  0  0  0  0  0  0  0
   -2.5363   -0.8755    2.1521 C   0  0  1  0  0  0  0  0  0  0  0  0
   -2.8268   -2.3775    1.6619 N   0  0  0  0  0  0  0  0  0  0  0  0
   -2.7437   -2.3429    0.2409 C   0  0  0  0  0  0  0  0  0  0  0  0
   -1.3084   -2.4860   -0.1447 C   0  0  0  0  0  0  0  0  0  0  0  0
   -0.5308   -1.5816    0.6985 C   0  0  0  0  0  0  0  0  0  0  0  0
   -1.0781   -0.8767    1.6897 C   0  0  0  0  0  0  0  0  0  0  0  0
   -0.1538   -0.1774    2.2996 N   0  0  0  0  0  0  0  0  0  0  0  0
    1.0402   -0.3953    1.7309 C   0  0  0  0  0  0  0  0  0  0  0  0
    2.3072    0.1366    2.0483 C   0  0  0  0  0  0  0  0  0  0  0  0
    3.3386   -0.3132    1.2377 C   0  0  0  0  0  0  0  0  0  0  0  0
    3.1763   -1.1968    0.2104 C   0  0  0  0  0  0  0  0  0  0  0  0
    4.2432   -1.6310   -0.5883 O   0  0  0  0  0  0  0  0  0  0  0  0
    5.5620   -1.2439   -0.4585 C   0  0  0  0  0  0  0  0  0  0  0  0
    5.8663    0.1710   -0.6130 C   0  0  0  0  0  0  0  0  0  0  0  0
    5.6155    1.1795    0.2933 C   0  0  0  0  0  0  0  0  0  0  0  0
    5.9515    2.4869    0.0600 C   0  0  0  0  0  0  0  0  0  0  0  0
    6.5696    2.8475   -1.1218 C   0  0  0  0  0  0  0  0  0  0  0  0
    6.8422    1.8710   -2.0617 C   0  0  0  0  0  0  0  0  0  0  0  0
    6.4929    0.5654   -1.8008 C   0  0  0  0  0  0  0  0  0  0  0  0
    1.9027   -1.6937   -0.0636 C   0  0  0  0  0  0  0  0  0  0  0  0
    0.8175   -1.2814    0.7161 C   0  0  0  0  0  0  0  0  0  0  0  0
   -3.2312    1.1142    0.7385 C   0  0  0  0  0  0  0  0  0  0  0  0
   -2.0607    1.8944    1.2092 C   0  0  0  0  0  0  0  0  0  0  0  0
   -1.0147    1.6957    0.0819 C   0  0  0  0  0  0  0  0  0  0  0  0
   -4.1075    1.7736   -0.1498 C   0  0  0  0  0  0  0  0  0  0  0  0
  1  2  1  0
  2  3  1  0
  3  4  1  0
  4  5  2  0
  5  6  1  0
  6  7  2  0
  8  7  1  6
  8  9  1  0
  9 10  1  0
 10 11  1  0
 11 12  1  0
 12 13  2  0
 13 14  1  0
 14 15  1  0
 15 16  2  0
 16 17  1  0
 17 18  2  0
 18 19  1  0
 19 20  1  0
 20 21  1  0
 21 22  2  0
 22 23  1  0
 23 24  2  0
 24 25  1  0
 25 26  2  0
 18 27  1  0
 27 28  2  0
  7 29  1  0
 29 30  1  0
 30 31  1  0
 29 32  2  0
 32  4  1  0
 13  8  1  0
 28 15  1  0
 28 12  1  0
 26 21  1  0
M  END
>  <zinc_id>  (1) 
ZINC000003737873

>  <smiles>  (1) 
CCOc1ccc([C@H]2NCCc3c2[nH]c2ccc(OCc4ccccc4)cc32)c(CC)c1

$$$$
