
     RDKit          3D

 32 34  0  0  0  0  0  0  0  0999 V2000
   -9.0128    2.0874    0.6043 C   0  0  0  0  0  0  0  0  0  0  0  0
   -8.3983    2.1884   -0.6399 O   0  0  0  0  0  0  0  0  0  0  0  0
   -7.2044    1.5274   -0.9662 C   0  0  0  0  0  0  0  0  0  0  0  0
   -6.6268    1.6516   -2.2081 C   0  0  0  0  0  0  0  0  0  0  0  0
   -5.4457    0.9991   -2.5324 C   0  0  0  0  0  0  0  0  0  0  0  0
   -4.7885    0.1934   -1.6323 C   0  0  0  0  0  0  0  0  0  0  0  0
   -3.5576   -0.5081   -1.9208 C   0  0  0  0  0  0  0  0  0  0  0  0
   -3.0529   -0.3895   -3.0729 O   0  0  0  0  0  0  0  0  0  0  0  0
   -2.8434   -1.3292   -1.0351 N   0  0  0  0  0  0  0  0  0  0  0  0
   -1.5370   -1.9889   -1.5588 C   0  0  1  0  0  0  0  0  0  0  0  0
   -0.5403   -1.3017   -0.5324 C   0  0  0  0  0  0  0  0  0  0  0  0
   -0.9804   -0.5126    0.3121 O   0  0  0  0  0  0  0  0  0  0  0  0
    0.8283   -1.6075   -0.6072 N   0  0  0  0  0  0  0  0  0  0  0  0
    1.7114   -0.9818    0.3222 C   0  0  0  0  0  0  0  0  0  0  0  0
    1.3125   -0.0843    1.2851 C   0  0  0  0  0  0  0  0  0  0  0  0
    2.1700    0.5177    2.1826 C   0  0  0  0  0  0  0  0  0  0  0  0
    3.5071    0.1929    2.1015 C   0  0  0  0  0  0  0  0  0  0  0  0
    4.3931    0.7717    2.9779 O   0  0  0  0  0  0  0  0  0  0  0  0
    5.7758    0.5538    3.0331 C   0  0  0  0  0  0  0  0  0  0  0  0
    6.5135    0.8925    1.8182 C   0  0  0  0  0  0  0  0  0  0  0  0
    6.9748    2.1687    1.6098 C   0  0  0  0  0  0  0  0  0  0  0  0
    7.6755    2.4877    0.4593 C   0  0  0  0  0  0  0  0  0  0  0  0
    7.8959    1.5061   -0.4600 C   0  0  0  0  0  0  0  0  0  0  0  0
    7.4479    0.2022   -0.2913 C   0  0  0  0  0  0  0  0  0  0  0  0
    6.7611   -0.0521    0.8666 C   0  0  0  0  0  0  0  0  0  0  0  0
    3.9665   -0.7007    1.1568 C   0  0  0  0  0  0  0  0  0  0  0  0
    3.0557   -1.2838    0.2694 C   0  0  0  0  0  0  0  0  0  0  0  0
   -1.7664   -3.4187   -0.7999 C   0  0  0  0  0  0  0  0  0  0  0  0
   -1.8231   -2.9675    0.6427 C   0  0  0  0  0  0  0  0  0  0  0  0
   -0.4790   -4.1875   -0.9339 C   0  0  0  0  0  0  0  0  0  0  0  0
   -5.3807    0.0790   -0.3906 C   0  0  0  0  0  0  0  0  0  0  0  0
   -6.5516    0.7225   -0.0600 C   0  0  0  0  0  0  0  0  0  0  0  0
  1  2  1  0
  2  3  1  0
  3  4  2  0
  4  5  1  0
  5  6  2  0
  6  7  1  0
  7  8  2  0
  7  9  1  0
 10  9  1  6
 10 11  1  0
 11 12  2  0
 11 13  1  0
 13 14  1  0
 14 15  2  0
 15 16  1  0
 16 17  2  0
 17 18  1  0
 18 19  1  0
 19 20  1  0
 20 21  2  0
 21 22  1  0
 22 23  2  0
 23 24  1  0
 24 25  2  0
 17 26  1  0
 26 27  2  0
 10 28  1  0
 28 29  1  0
 28 30  1  0
  6 31  1  0
 31 32  2  0
 32  3  1  0
 27 14  1  0
 25 20  1  0
M  END
>  <zinc_id>  (1) 
ZINC000002618809

>  <smiles>  (1) 
COc1ccc(C(=O)N[C@H](C(=O)Nc2ccc(OCc3ccccc3)cc2)C(C)C)cc1

$$$$
