
     RDKit          3D

 31 34  0  0  0  0  0  0  0  0999 V2000
   -8.3285   -0.9446    1.5406 C   0  0  0  0  0  0  0  0  0  0  0  0
   -8.1581   -1.9641    0.4183 C   0  0  0  0  0  0  0  0  0  0  0  0
   -6.8869   -2.5634    0.4473 O   0  0  0  0  0  0  0  0  0  0  0  0
   -5.7543   -1.7732    0.3179 C   0  0  0  0  0  0  0  0  0  0  0  0
   -5.8709   -0.4085    0.1617 C   0  0  0  0  0  0  0  0  0  0  0  0
   -4.7578    0.3792    0.0333 C   0  0  0  0  0  0  0  0  0  0  0  0
   -3.4807   -0.1679    0.0560 C   0  0  0  0  0  0  0  0  0  0  0  0
   -2.3990    0.7313   -0.0845 N   0  0  0  0  0  0  0  0  0  0  0  0
   -1.0379    0.3180   -0.0802 C   0  0  0  0  0  0  0  0  0  0  0  0
   -0.8415   -0.8981    0.0560 O   0  0  0  0  0  0  0  0  0  0  0  0
    0.0845    1.2949   -0.2311 C   0  0  0  0  0  0  0  0  0  0  0  0
    1.3760    0.8320   -0.2188 C   0  0  0  0  0  0  0  0  0  0  0  0
    1.8464   -0.5266   -0.0748 N   0  0  0  0  0  0  0  0  0  0  0  0
    3.2365   -0.8083   -0.0870 C   0  0  0  0  0  0  0  0  0  0  0  0
    4.0843    0.1075   -0.2218 O   0  0  0  0  0  0  0  0  0  0  0  0
    3.7377   -2.1973    0.0595 C   0  0  0  0  0  0  0  0  0  0  0  0
    5.2045   -2.2693    0.0203 C   0  0  0  0  0  0  0  0  0  0  0  0
    6.0224   -2.1757    1.1246 C   0  0  0  0  0  0  0  0  0  0  0  0
    7.3937   -2.2522    1.0106 C   0  0  0  0  0  0  0  0  0  0  0  0
    7.9913   -2.4254   -0.2167 C   0  0  0  0  0  0  0  0  0  0  0  0
    7.1841   -2.5202   -1.3273 C   0  0  0  0  0  0  0  0  0  0  0  0
    5.8194   -2.4425   -1.2007 C   0  0  0  0  0  0  0  0  0  0  0  0
    2.3009    2.2459   -0.4144 S   0  0  0  0  0  0  0  0  0  0  0  0
    1.0489    3.3856   -0.5073 C   0  0  0  0  0  0  0  0  0  0  0  0
   -0.0807    2.6204   -0.3811 C   0  0  0  0  0  0  0  0  0  0  0  0
   -1.4114    3.3753   -0.4301 C   0  0  0  0  0  0  0  0  0  0  0  0
   -1.2706    4.5241   -1.4088 C   0  0  0  0  0  0  0  0  0  0  0  0
   -0.2866    5.4766   -0.8146 C   0  0  0  0  0  0  0  0  0  0  0  0
    1.0599    4.8671   -0.6816 C   0  0  0  0  0  0  0  0  0  0  0  0
   -3.3485   -1.5192    0.2102 C   0  0  0  0  0  0  0  0  0  0  0  0
   -4.4769   -2.3014    0.3384 C   0  0  0  0  0  0  0  0  0  0  0  0
  1  2  1  0
  2  3  1  0
  3  4  1  0
  4  5  2  0
  5  6  1  0
  6  7  2  0
  7  8  1  0
  8  9  1  0
  9 10  2  0
  9 11  1  0
 11 12  2  0
 12 13  1  0
 13 14  1  0
 14 15  2  0
 14 16  1  0
 16 17  1  0
 17 18  2  0
 18 19  1  0
 19 20  2  0
 20 21  1  0
 21 22  2  0
 12 23  1  0
 23 24  1  0
 24 25  2  0
 25 26  1  0
 26 27  1  0
 27 28  1  0
 28 29  1  0
  7 30  1  0
 30 31  2  0
 31  4  1  0
 25 11  1  0
 22 17  1  0
 29 24  1  0
M  END
>  <zinc_id>  (1) 
ZINC000000722329

>  <smiles>  (1) 
CCOc1ccc(NC(=O)c2c(NC(=O)Cc3ccccc3)sc3c2CCCC3)cc1

$$$$
