
     RDKit          3D

 30 34  0  0  0  0  0  0  0  0999 V2000
   -4.9890   -4.3859   -2.7477 C   0  0  0  0  0  0  0  0  0  0  0  0
   -4.6238   -5.3344   -1.6070 C   0  0  0  0  0  0  0  0  0  0  0  0
   -3.4651   -4.9088   -0.9310 O   0  0  0  0  0  0  0  0  0  0  0  0
   -3.4195   -3.6377   -0.2910 C   0  0  0  0  0  0  0  0  0  0  0  0
   -4.5050   -2.7983   -0.3189 C   0  0  0  0  0  0  0  0  0  0  0  0
   -4.4679   -1.5573    0.3030 C   0  0  0  0  0  0  0  0  0  0  0  0
   -3.3287   -1.1480    0.9632 C   0  0  0  0  0  0  0  0  0  0  0  0
   -3.3221    0.2796    1.6640 C   0  0  2  0  0  0  0  0  0  0  0  0
   -4.0014    1.0666    0.4304 N   0  0  0  0  0  0  0  0  0  0  0  0
   -3.4423    0.5431   -0.7594 C   0  0  0  0  0  0  0  0  0  0  0  0
   -2.2737    1.5190   -1.0146 C   0  0  0  0  0  0  0  0  0  0  0  0
   -1.4309    1.2107    0.1870 C   0  0  0  0  0  0  0  0  0  0  0  0
   -1.8353    0.6907    1.3250 C   0  0  0  0  0  0  0  0  0  0  0  0
   -0.7941    0.5716    2.1338 N   0  0  0  0  0  0  0  0  0  0  0  0
    0.3415    1.0165    1.5420 C   0  0  0  0  0  0  0  0  0  0  0  0
    1.6662    1.1179    1.9227 C   0  0  0  0  0  0  0  0  0  0  0  0
    2.5853    1.6376    1.0342 C   0  0  0  0  0  0  0  0  0  0  0  0
    2.2371    2.0626   -0.2240 C   0  0  0  0  0  0  0  0  0  0  0  0
    3.1084    2.5881   -1.1503 O   0  0  0  0  0  0  0  0  0  0  0  0
    4.4710    2.7741   -0.9689 C   0  0  0  0  0  0  0  0  0  0  0  0
    5.1762    1.5097   -0.6893 C   0  0  0  0  0  0  0  0  0  0  0  0
    4.5273    0.3014   -0.6343 C   0  0  0  0  0  0  0  0  0  0  0  0
    5.2062   -0.8872   -0.3689 C   0  0  0  0  0  0  0  0  0  0  0  0
    6.5612   -0.8318   -0.1588 C   0  0  0  0  0  0  0  0  0  0  0  0
    7.2239    0.3619   -0.2096 C   0  0  0  0  0  0  0  0  0  0  0  0
    6.5356    1.5555   -0.4772 C   0  0  0  0  0  0  0  0  0  0  0  0
    0.8996    1.9455   -0.5705 C   0  0  0  0  0  0  0  0  0  0  0  0
   -0.0531    1.4365    0.2741 C   0  0  0  0  0  0  0  0  0  0  0  0
   -2.2895   -1.9826    0.9747 C   0  0  0  0  0  0  0  0  0  0  0  0
   -2.2981   -3.2176    0.3673 C   0  0  0  0  0  0  0  0  0  0  0  0
  1  2  1  0
  2  3  1  0
  3  4  1  0
  4  5  2  0
  5  6  1  0
  6  7  2  0
  8  7  1  6
  8  9  1  0
  9 10  1  0
 10 11  1  0
 11 12  1  0
 12 13  2  0
 13 14  1  0
 14 15  1  0
 15 16  2  0
 16 17  1  0
 17 18  2  0
 18 19  1  0
 19 20  1  0
 20 21  1  0
 21 22  2  0
 22 23  1  0
 23 24  2  0
 24 25  1  0
 25 26  2  0
 18 27  1  0
 27 28  2  0
  7 29  1  0
 29 30  2  0
 30  4  1  0
 13  8  1  0
 28 15  1  0
 28 12  1  0
 26 21  1  0
M  END
>  <zinc_id>  (1) 
ZINC000003735429

>  <smiles>  (1) 
CCOc1ccc([C@@H]2NCCc3c2[nH]c2ccc(OCc4ccccc4)cc32)cc1

$$$$
