
     RDKit          3D

 32 36  0  0  0  0  0  0  0  0999 V2000
   -4.6832    1.4862    3.9646 C   0  0  0  0  0  0  0  0  0  0  0  0
   -5.0259    1.9736    2.7026 O   0  0  0  0  0  0  0  0  0  0  0  0
   -4.6413    1.3885    1.5273 C   0  0  0  0  0  0  0  0  0  0  0  0
   -3.8562    0.2296    1.6203 C   0  0  0  0  0  0  0  0  0  0  0  0
   -3.4131   -0.4412    0.5517 C   0  0  0  0  0  0  0  0  0  0  0  0
   -2.5503   -1.7337    0.7155 C   0  0  2  0  0  0  0  0  0  0  0  0
   -2.0790   -1.5208    2.2184 N   0  0  0  0  0  0  0  0  0  0  0  0
   -1.2138   -2.6076    2.5252 C   0  0  0  0  0  0  0  0  0  0  0  0
   -0.3850   -3.1075    1.3739 C   0  0  0  0  0  0  0  0  0  0  0  0
   -0.1239   -1.9609    0.4837 C   0  0  0  0  0  0  0  0  0  0  0  0
   -1.1949   -1.2058    0.1030 C   0  0  0  0  0  0  0  0  0  0  0  0
   -0.7652   -0.2655   -0.6622 N   0  0  0  0  0  0  0  0  0  0  0  0
    0.6002   -0.3562   -0.8206 C   0  0  0  0  0  0  0  0  0  0  0  0
    1.5035    0.4004   -1.5301 C   0  0  0  0  0  0  0  0  0  0  0  0
    2.8432    0.0867   -1.5215 C   0  0  0  0  0  0  0  0  0  0  0  0
    3.2483   -1.0079   -0.7802 C   0  0  0  0  0  0  0  0  0  0  0  0
    4.6129   -1.2942   -0.7967 O   0  0  0  0  0  0  0  0  0  0  0  0
    5.5471   -0.5573   -1.4947 C   0  0  0  0  0  0  0  0  0  0  0  0
    5.6034    0.8661   -1.0405 C   0  0  0  0  0  0  0  0  0  0  0  0
    6.4388    1.7396   -1.7276 C   0  0  0  0  0  0  0  0  0  0  0  0
    6.5257    3.0580   -1.3402 C   0  0  0  0  0  0  0  0  0  0  0  0
    5.7828    3.5318   -0.2616 C   0  0  0  0  0  0  0  0  0  0  0  0
    4.9522    2.6700    0.4242 C   0  0  0  0  0  0  0  0  0  0  0  0
    4.8982    1.3687    0.0032 C   0  0  0  0  0  0  0  0  0  0  0  0
    2.3604   -1.7784   -0.0629 C   0  0  0  0  0  0  0  0  0  0  0  0
    1.0394   -1.4344   -0.0970 C   0  0  0  0  0  0  0  0  0  0  0  0
   -3.7339    0.0145   -0.6936 C   0  0  0  0  0  0  0  0  0  0  0  0
   -3.3335   -0.5942   -1.8612 O   0  0  0  0  0  0  0  0  0  0  0  0
   -3.6886   -0.0876   -3.1228 C   0  0  0  0  0  0  0  0  0  0  0  0
   -4.5193    1.1731   -0.8260 C   0  0  0  0  0  0  0  0  0  0  0  0
   -4.9588    1.8391    0.2879 C   0  0  0  0  0  0  0  0  0  0  0  0
   -5.7900    3.0634    0.1382 C   0  0  0  0  0  0  0  0  0  0  0  0
  1  2  1  0
  2  3  1  0
  3  4  2  0
  4  5  1  0
  6  5  1  6
  6  7  1  0
  7  8  1  0
  8  9  1  0
  9 10  1  0
 10 11  2  0
 11 12  1  0
 12 13  1  0
 13 14  2  0
 14 15  1  0
 15 16  2  0
 16 17  1  0
 17 18  1  0
 18 19  1  0
 19 20  2  0
 20 21  1  0
 21 22  2  0
 22 23  1  0
 23 24  2  0
 16 25  1  0
 25 26  2  0
  5 27  2  0
 27 28  1  0
 28 29  1  0
 27 30  1  0
 30 31  2  0
 31 32  1  0
 31  3  1  0
 11  6  1  0
 26 13  1  0
 26 10  1  0
 24 19  1  0
M  END
>  <zinc_id>  (1) 
ZINC000003737272

>  <smiles>  (1) 
COc1cc([C@@H]2NCCc3c2[nH]c2ccc(OCc4ccccc4)cc32)c(OC)cc1C

$$$$
