
     RDKit          3D

 32 35  0  0  0  0  0  0  0  0999 V2000
    5.2821    1.8099    1.9196 C   0  0  0  0  0  0  0  0  0  0  0  0
    6.2808    1.2825    0.9548 C   0  0  0  0  0  0  0  0  0  0  0  0
    7.4683    0.6168    1.5637 C   0  0  0  0  0  0  0  0  0  0  0  0
    5.7400    0.6362   -0.2658 C   0  0  0  0  0  0  0  0  0  0  0  0
    4.8665   -0.5504   -0.0456 C   0  0  0  0  0  0  0  0  0  0  0  0
    4.4333   -1.0426   -1.4345 C   0  0  0  0  0  0  0  0  0  0  0  0
    3.6555    0.3256   -1.9620 C   0  0  1  0  0  0  0  0  0  0  0  0
    3.2692   -0.3835   -3.4338 C   0  0  0  0  0  0  0  0  0  0  0  0
    2.2582   -0.1473   -1.3208 N   0  0  0  0  0  0  0  0  0  0  0  0
    1.5766    0.9066   -0.6565 C   0  0  0  0  0  0  0  0  0  0  0  0
    2.0561    2.0588   -0.6065 O   0  0  0  0  0  0  0  0  0  0  0  0
    0.3036    0.6490   -0.0237 C   0  0  0  0  0  0  0  0  0  0  0  0
   -0.4888    1.5473    0.6577 C   0  0  0  0  0  0  0  0  0  0  0  0
   -0.1580    2.9297    0.8486 N   0  0  0  0  0  0  0  0  0  0  0  0
   -1.5629    0.8758    1.0699 N   0  0  0  0  0  0  0  0  0  0  0  0
   -2.6474    1.4765    1.8318 C   0  0  0  0  0  0  0  0  0  0  0  0
   -3.6430    1.9856    0.8501 C   0  0  0  0  0  0  0  0  0  0  0  0
   -3.5321    3.2718    0.3747 C   0  0  0  0  0  0  0  0  0  0  0  0
   -4.4468    3.7766   -0.5432 C   0  0  0  0  0  0  0  0  0  0  0  0
   -5.4711    2.9520   -0.9656 C   0  0  0  0  0  0  0  0  0  0  0  0
   -5.5758    1.6774   -0.4905 C   0  0  0  0  0  0  0  0  0  0  0  0
   -4.6682    1.1729    0.4218 C   0  0  0  0  0  0  0  0  0  0  0  0
   -1.5391   -0.4112    0.7083 C   0  0  0  0  0  0  0  0  0  0  0  0
   -2.3726   -1.4700    0.8830 N   0  0  0  0  0  0  0  0  0  0  0  0
   -2.0905   -2.6900    0.3969 C   0  0  0  0  0  0  0  0  0  0  0  0
   -2.9500   -3.7700    0.5807 C   0  0  0  0  0  0  0  0  0  0  0  0
   -2.6299   -4.9999    0.0717 C   0  0  0  0  0  0  0  0  0  0  0  0
   -1.4527   -5.1626   -0.6234 C   0  0  0  0  0  0  0  0  0  0  0  0
   -0.6138   -4.1043   -0.8021 C   0  0  0  0  0  0  0  0  0  0  0  0
   -0.9065   -2.8497   -0.3014 C   0  0  0  0  0  0  0  0  0  0  0  0
   -0.0781   -1.7924   -0.4737 N   0  0  0  0  0  0  0  0  0  0  0  0
   -0.3631   -0.5772    0.0128 C   0  0  0  0  0  0  0  0  0  0  0  0
  1  2  1  0
  2  3  1  0
  2  4  1  0
  4  5  1  0
  5  6  1  0
  6  7  1  0
  7  8  1  6
  7  9  1  0
  9 10  1  0
 10 11  2  0
 10 12  1  0
 12 13  2  0
 13 14  1  0
 13 15  1  0
 15 16  1  0
 16 17  1  0
 17 18  2  0
 18 19  1  0
 19 20  2  0
 20 21  1  0
 21 22  2  0
 15 23  1  0
 23 24  2  0
 24 25  1  0
 25 26  2  0
 26 27  1  0
 27 28  2  0
 28 29  1  0
 29 30  2  0
 30 31  1  0
 31 32  2  0
 32 12  1  0
 22 17  1  0
 32 23  1  0
 30 25  1  0
M  END
>  <zinc_id>  (1) 
ZINC000002443141

>  <smiles>  (1) 
CC(C)CCC[C@@H](C)NC(=O)c1c(N)n(Cc2ccccc2)c2nc3ccccc3nc12

$$$$
