
     RDKit          3D

 30 33  0  0  0  0  0  0  0  0999 V2000
    0.9570    5.5356    1.7899 C   0  0  0  0  0  0  0  0  0  0  0  0
    0.1821    4.0728    1.8238 C   0  0  2  0  0  0  0  0  0  0  0  0
    1.5737    3.2276    1.7546 C   0  0  0  0  0  0  0  0  0  0  0  0
    1.5475    2.1858    0.7614 C   0  0  0  0  0  0  0  0  0  0  0  0
    0.1958    1.6933    0.3261 C   0  0  0  0  0  0  0  0  0  0  0  0
   -0.6567    2.6955    0.0253 C   0  0  0  0  0  0  0  0  0  0  0  0
   -2.0696    1.8863   -0.4265 S   0  0  0  0  0  0  0  0  0  0  0  0
   -1.5413    0.2728   -0.2210 C   0  0  0  0  0  0  0  0  0  0  0  0
   -2.2885   -0.9460   -0.4447 N   0  0  0  0  0  0  0  0  0  0  0  0
   -3.6370   -0.8043   -0.8932 C   0  0  0  0  0  0  0  0  0  0  0  0
   -4.1077    0.3478   -1.0708 O   0  0  0  0  0  0  0  0  0  0  0  0
   -4.4597   -1.9816   -1.1426 C   0  0  0  0  0  0  0  0  0  0  0  0
   -3.9890   -3.2648   -0.9623 C   0  0  0  0  0  0  0  0  0  0  0  0
   -4.8247   -4.3407   -1.2179 C   0  0  0  0  0  0  0  0  0  0  0  0
   -6.1156   -4.1834   -1.6478 C   0  0  0  0  0  0  0  0  0  0  0  0
   -6.5804   -2.8980   -1.8261 C   0  0  0  0  0  0  0  0  0  0  0  0
   -5.7566   -1.8231   -1.5744 C   0  0  0  0  0  0  0  0  0  0  0  0
   -0.2446    0.4151    0.2050 C   0  0  0  0  0  0  0  0  0  0  0  0
    0.5641   -0.8102    0.4956 C   0  0  0  0  0  0  0  0  0  0  0  0
    0.0972   -1.9624    0.3633 O   0  0  0  0  0  0  0  0  0  0  0  0
    1.8924   -0.6911    0.9325 N   0  0  0  0  0  0  0  0  0  0  0  0
    2.7234   -1.8688    1.2296 C   0  0  0  0  0  0  0  0  0  0  0  0
    4.1037   -1.4420    1.6778 C   0  0  0  0  0  0  0  0  0  0  0  0
    4.7752   -0.6504    0.6179 C   0  0  0  0  0  0  0  0  0  0  0  0
    5.5541   -1.2466   -0.3506 C   0  0  0  0  0  0  0  0  0  0  0  0
    6.1780   -0.5290   -1.3321 C   0  0  0  0  0  0  0  0  0  0  0  0
    6.0536    0.8481   -1.3982 C   0  0  0  0  0  0  0  0  0  0  0  0
    5.2848    1.4611   -0.4464 C   0  0  0  0  0  0  0  0  0  0  0  0
    4.6531    0.7272    0.5487 C   0  0  0  0  0  0  0  0  0  0  0  0
   -0.0643    4.0733    0.1974 C   0  0  0  0  0  0  0  0  0  0  0  0
  2  1  1  6
  2  3  1  0
  3  4  1  0
  4  5  1  0
  5  6  2  0
  6  7  1  0
  7  8  1  0
  8  9  1  0
  9 10  1  0
 10 11  2  0
 10 12  1  0
 12 13  2  0
 13 14  1  0
 14 15  2  0
 15 16  1  0
 16 17  2  0
  8 18  2  0
 18 19  1  0
 19 20  2  0
 19 21  1  0
 21 22  1  0
 22 23  1  0
 23 24  1  0
 24 25  2  0
 25 26  1  0
 26 27  2  0
 27 28  1  0
 28 29  2  0
  6 30  1  0
 30  2  1  0
 18  5  1  0
 29 24  1  0
 17 12  1  0
M  END
>  <zinc_id>  (1) 
ZINC000001933713

>  <smiles>  (1) 
C[C@@H]1CCc2c(sc(NC(=O)c3ccccc3)c2C(=O)NCCc2ccccc2)C1

$$$$
