
     RDKit          3D

 33 36  0  0  0  0  0  0  0  0999 V2000
    1.8991    1.3385   -1.7730 C   0  0  0  0  0  0  0  0  0  0  0  0
    2.3284    1.6851   -0.5553 C   0  0  0  0  0  0  0  0  0  0  0  0
    1.4282    2.4684    0.2077 N   0  0  0  0  0  0  0  0  0  0  0  0
    0.0552    2.0550    0.0910 O   0  0  0  0  0  0  0  0  0  0  0  0
   -0.2281    0.7339    0.1852 C   0  0  0  0  0  0  0  0  0  0  0  0
    0.8346   -0.0090    0.4239 O   0  0  0  0  0  0  0  0  0  0  0  0
   -1.4336    0.0080    0.0722 C   0  0  0  0  0  0  0  0  0  0  0  0
   -2.6941    0.5555   -0.1174 C   0  0  0  0  0  0  0  0  0  0  0  0
   -3.7986   -0.1346   -0.3064 C   0  0  0  0  0  0  0  0  0  0  0  0
   -5.1614    0.3699   -0.5803 C   0  0  0  0  0  0  0  0  0  0  0  0
   -5.7167    0.1323   -1.8523 C   0  0  0  0  0  0  0  0  0  0  0  0
   -7.0100    0.4715   -2.1159 C   0  0  0  0  0  0  0  0  0  0  0  0
   -7.7812    1.0573   -1.1166 C   0  0  0  0  0  0  0  0  0  0  0  0
   -7.2745    1.3090    0.1463 C   0  0  0  0  0  0  0  0  0  0  0  0
   -8.0966    1.9143    1.1841 C   0  0  0  0  0  0  0  0  0  0  0  0
   -5.9577    0.9561    0.3767 C   0  0  0  0  0  0  0  0  0  0  0  0
   -3.8012   -1.5495   -0.3434 N   0  0  0  0  0  0  0  0  0  0  0  0
   -2.6238   -2.1540   -0.1560 C   0  0  0  0  0  0  0  0  0  0  0  0
   -2.3883   -3.4877   -0.1002 C   0  0  0  0  0  0  0  0  0  0  0  0
   -1.3089   -4.2162    0.0899 C   0  0  0  0  0  0  0  0  0  0  0  0
   -0.0692   -3.3766    0.3105 C   0  0  0  0  0  0  0  0  0  0  0  0
   -0.3002   -2.0745    0.2583 C   0  0  0  0  0  0  0  0  0  0  0  0
   -1.4417   -1.3879    0.0471 C   0  0  0  0  0  0  0  0  0  0  0  0
    3.6177    1.1968   -0.1228 C   0  0  0  0  0  0  0  0  0  0  0  0
    4.1770    0.0931   -0.7844 C   0  0  0  0  0  0  0  0  0  0  0  0
    5.3843   -0.4593   -0.4587 C   0  0  0  0  0  0  0  0  0  0  0  0
    6.1449    0.0877    0.5924 C   0  0  0  0  0  0  0  0  0  0  0  0
    7.4803   -0.4816    0.9877 C   0  0  0  0  0  0  0  0  0  0  0  0
    7.3074   -1.7413    1.7691 C   0  0  0  0  0  0  0  0  0  0  0  0
    8.2581   -0.7924   -0.2818 C   0  0  0  0  0  0  0  0  0  0  0  0
    8.1981    0.5614    1.7873 C   0  0  0  0  0  0  0  0  0  0  0  0
    5.5994    1.1750    1.2426 C   0  0  0  0  0  0  0  0  0  0  0  0
    4.3728    1.7011    0.8923 C   0  0  0  0  0  0  0  0  0  0  0  0
  1  2  2  0
  2  3  1  0
  3  4  1  0
  4  5  1  0
  5  6  2  0
  5  7  1  0
  7  8  2  0
  8  9  1  0
  9 10  1  0
 10 11  2  0
 11 12  1  0
 12 13  2  0
 13 14  1  0
 14 15  1  0
 14 16  2  0
  9 17  2  0
 17 18  1  0
 18 19  2  0
 19 20  1  0
 20 21  2  0
 21 22  1  0
 22 23  2  0
  2 24  1  0
 24 25  2  0
 25 26  1  0
 26 27  2  0
 27 28  1  0
 28 29  1  0
 28 30  1  0
 28 31  1  0
 27 32  1  0
 32 33  2  0
 23  7  1  0
 33 24  1  0
 16 10  1  0
 23 18  1  0
M  END
>  <zinc_id>  (1) 
ZINC000002785256

>  <smiles>  (1) 
C=C(NOC(=O)c1cc(-c2cccc(C)c2)nc2ccccc12)c1ccc(C(C)(C)C)cc1

$$$$
