
     RDKit          3D

 32 35  0  0  0  0  0  0  0  0999 V2000
    1.2321    7.3124   -1.0400 C   0  0  0  0  0  0  0  0  0  0  0  0
    0.8053    5.9676   -0.5934 C   0  0  0  0  0  0  0  0  0  0  0  0
    1.4991    4.8286   -0.9457 C   0  0  0  0  0  0  0  0  0  0  0  0
    1.0857    3.5937   -0.5208 C   0  0  0  0  0  0  0  0  0  0  0  0
   -0.0165    3.4390    0.2595 C   0  0  0  0  0  0  0  0  0  0  0  0
   -0.6806    1.9377    0.8879 S   0  0  0  0  0  0  0  0  0  0  0  0
    0.2080    0.4671    0.4380 C   0  0  0  0  0  0  0  0  0  0  0  0
   -0.2281   -0.7335    0.8750 C   0  0  0  0  0  0  0  0  0  0  0  0
   -1.3746   -0.9975    1.6985 N   0  0  0  0  0  0  0  0  0  0  0  0
   -2.5742   -1.4251    1.0555 C   0  0  0  0  0  0  0  0  0  0  0  0
   -2.6357   -1.5817   -0.3140 C   0  0  0  0  0  0  0  0  0  0  0  0
   -3.8045   -1.9986   -0.9432 C   0  0  0  0  0  0  0  0  0  0  0  0
   -4.9446   -2.2707   -0.2211 C   0  0  0  0  0  0  0  0  0  0  0  0
   -6.2197   -2.7203   -0.8549 C   0  0  0  0  0  0  0  0  0  0  0  0
   -6.1094   -2.7523   -2.3469 C   0  0  0  0  0  0  0  0  0  0  0  0
   -7.3606   -1.7991   -0.4725 C   0  0  0  0  0  0  0  0  0  0  0  0
   -4.8995   -2.1192    1.1472 C   0  0  0  0  0  0  0  0  0  0  0  0
   -3.7244   -1.7018    1.7627 C   0  0  0  0  0  0  0  0  0  0  0  0
    0.6846   -1.7409    0.3563 C   0  0  0  0  0  0  0  0  0  0  0  0
    0.6326   -2.9925    0.5331 O   0  0  0  0  0  0  0  0  0  0  0  0
    1.7067   -1.1375   -0.4193 N   0  0  0  0  0  0  0  0  0  0  0  0
    2.8171   -1.7074   -1.1240 C   0  0  0  0  0  0  0  0  0  0  0  0
    4.0372   -1.8123   -0.2947 C   0  0  0  0  0  0  0  0  0  0  0  0
    4.1269   -1.4160    1.0093 C   0  0  0  0  0  0  0  0  0  0  0  0
    5.3197   -1.5610    1.6894 C   0  0  0  0  0  0  0  0  0  0  0  0
    6.4478   -2.0990    1.0995 C   0  0  0  0  0  0  0  0  0  0  0  0
    6.3484   -2.4938   -0.2094 C   0  0  0  0  0  0  0  0  0  0  0  0
    5.1603   -2.3495   -0.8871 C   0  0  0  0  0  0  0  0  0  0  0  0
    1.4048    0.2743   -0.3690 C   0  0  0  0  0  0  0  0  0  0  0  0
    2.0837    1.1721   -0.9400 O   0  0  0  0  0  0  0  0  0  0  0  0
   -0.7189    4.6008    0.6153 C   0  0  0  0  0  0  0  0  0  0  0  0
   -0.3092    5.8164    0.1951 C   0  0  0  0  0  0  0  0  0  0  0  0
  1  2  1  0
  2  3  2  0
  3  4  1  0
  4  5  2  0
  5  6  1  0
  6  7  1  0
  7  8  2  0
  8  9  1  0
  9 10  1  0
 10 11  2  0
 11 12  1  0
 12 13  2  0
 13 14  1  0
 14 15  1  0
 14 16  1  0
 13 17  1  0
 17 18  2  0
  8 19  1  0
 19 20  2  0
 19 21  1  0
 21 22  1  0
 22 23  1  0
 23 24  2  0
 24 25  1  0
 25 26  2  0
 26 27  1  0
 27 28  2  0
 21 29  1  0
 29 30  2  0
  5 31  1  0
 31 32  2  0
 32  2  1  0
 29  7  1  0
 18 10  1  0
 28 23  1  0
M  END
>  <zinc_id>  (1) 
ZINC000001954578

>  <smiles>  (1) 
Cc1ccc(SC2=C(Nc3ccc(C(C)C)cc3)C(=O)N(Cc3ccccc3)C2=O)cc1

$$$$
