
     RDKit          3D

 32 35  0  0  0  0  0  0  0  0999 V2000
    8.4088   -0.3760   -0.9305 C   0  0  0  0  0  0  0  0  0  0  0  0
    7.7924   -1.0663    0.3140 C   0  0  0  0  0  0  0  0  0  0  0  0
    8.2509   -0.3430    1.5337 C   0  0  0  0  0  0  0  0  0  0  0  0
    8.2387   -2.4933    0.2355 C   0  0  0  0  0  0  0  0  0  0  0  0
    6.2969   -0.9961    0.1217 C   0  0  0  0  0  0  0  0  0  0  0  0
    5.5303   -0.0374    0.8185 C   0  0  0  0  0  0  0  0  0  0  0  0
    4.2020    0.0568    0.5272 C   0  0  0  0  0  0  0  0  0  0  0  0
    3.5302   -0.7076   -0.3844 C   0  0  0  0  0  0  0  0  0  0  0  0
    2.1700   -0.4325   -0.7214 C   0  0  0  0  0  0  0  0  0  0  0  0
    1.6304    0.6359   -0.2391 O   0  0  0  0  0  0  0  0  0  0  0  0
    1.2903   -1.1767   -1.5509 O   0  0  0  0  0  0  0  0  0  0  0  0
    0.1146   -0.8375   -1.8411 C   0  0  0  0  0  0  0  0  0  0  0  0
   -1.1743   -0.5045   -2.1767 C   0  0  0  0  0  0  0  0  0  0  0  0
   -1.3800    0.9069   -1.6629 N   0  0  0  0  0  0  0  0  0  0  0  0
   -2.3470    1.0216   -0.6276 C   0  0  0  0  0  0  0  0  0  0  0  0
   -3.1435    0.0014   -0.3118 N   0  0  0  0  0  0  0  0  0  0  0  0
   -4.0903    0.1092    0.6301 C   0  0  0  0  0  0  0  0  0  0  0  0
   -4.9974   -0.9709    0.9169 C   0  0  0  0  0  0  0  0  0  0  0  0
   -4.9389   -2.0865    0.0953 C   0  0  0  0  0  0  0  0  0  0  0  0
   -5.8113   -3.1207    0.3583 C   0  0  0  0  0  0  0  0  0  0  0  0
   -6.7223   -3.0698    1.4020 C   0  0  0  0  0  0  0  0  0  0  0  0
   -6.7471   -1.9519    2.1826 C   0  0  0  0  0  0  0  0  0  0  0  0
   -5.8909   -0.9149    1.9382 C   0  0  0  0  0  0  0  0  0  0  0  0
   -4.2214    1.2945    1.2722 N   0  0  0  0  0  0  0  0  0  0  0  0
   -3.4678    2.3380    1.0036 C   0  0  0  0  0  0  0  0  0  0  0  0
   -3.6461    3.5409    1.7298 C   0  0  0  0  0  0  0  0  0  0  0  0
   -2.8297    4.6000    1.4543 C   0  0  0  0  0  0  0  0  0  0  0  0
   -1.8402    4.4917    0.4711 C   0  0  0  0  0  0  0  0  0  0  0  0
   -1.6715    3.2939   -0.2515 C   0  0  0  0  0  0  0  0  0  0  0  0
   -2.4830    2.2401    0.0275 C   0  0  0  0  0  0  0  0  0  0  0  0
    4.2946   -1.6761   -1.0746 C   0  0  0  0  0  0  0  0  0  0  0  0
    5.6525   -1.7693   -0.7875 C   0  0  0  0  0  0  0  0  0  0  0  0
  1  2  1  0
  2  3  1  0
  2  4  1  0
  2  5  1  0
  5  6  2  0
  6  7  1  0
  7  8  2  0
  8  9  1  0
  9 10  2  0
  9 11  1  0
 11 12  1  0
 12 13  1  0
 13 14  1  0
 14 15  1  0
 15 16  2  0
 16 17  1  0
 17 18  1  0
 18 19  2  0
 19 20  1  0
 20 21  2  0
 21 22  1  0
 22 23  2  0
 17 24  2  0
 24 25  1  0
 25 26  2  0
 26 27  1  0
 27 28  2  0
 28 29  1  0
 29 30  2  0
  8 31  1  0
 31 32  2  0
 32  5  1  0
 30 15  1  0
 23 18  1  0
 30 25  1  0
M  END
>  <zinc_id>  (1) 
ZINC000001912349

>  <smiles>  (1) 
CC(C)(C)c1ccc(C(=O)OCCNc2nc(-c3ccccc3)nc3ccccc23)cc1

$$$$
