
     RDKit          3D

 31 35  0  0  0  0  0  0  0  0999 V2000
   -3.8388   -5.1946   -0.9467 O   0  0  0  0  0  0  0  0  0  0  0  0
   -3.3538   -3.9865   -0.4406 C   0  0  0  0  0  0  0  0  0  0  0  0
   -3.0881   -3.8484    0.9153 C   0  0  0  0  0  0  0  0  0  0  0  0
   -2.6042   -2.6590    1.4514 C   0  0  0  0  0  0  0  0  0  0  0  0
   -2.4038   -1.6277    0.5624 C   0  0  0  0  0  0  0  0  0  0  0  0
   -2.6406   -1.6896   -0.7712 C   0  0  0  0  0  0  0  0  0  0  0  0
   -3.1265   -2.9072   -1.2613 C   0  0  0  0  0  0  0  0  0  0  0  0
   -2.4442   -0.6198   -1.7606 C   0  0  0  0  0  0  0  0  0  0  0  0
   -2.1631    0.7160   -1.1657 C   0  0  0  0  0  0  0  0  0  0  0  0
   -2.8829    0.6828    0.2617 C   0  0  2  0  0  0  0  0  0  0  0  0
   -2.4481    2.0978    0.7339 C   0  0  0  0  0  0  0  0  0  0  0  0
   -1.7693    2.4053    1.8246 C   0  0  0  0  0  0  0  0  0  0  0  0
   -1.4434    3.6979    2.1444 C   0  0  0  0  0  0  0  0  0  0  0  0
   -1.8390    4.6945    1.2995 C   0  0  0  0  0  0  0  0  0  0  0  0
   -2.5468    4.4406    0.1509 C   0  0  0  0  0  0  0  0  0  0  0  0
   -2.8503    3.0907   -0.1215 C   0  0  0  0  0  0  0  0  0  0  0  0
   -1.8516   -0.2791    1.1798 C   0  0  2  0  0  0  0  0  0  0  0  0
   -0.5019   -0.2153    0.4400 C   0  0  0  0  0  0  0  0  0  0  0  0
    0.3613   -1.2471    0.3306 C   0  0  0  0  0  0  0  0  0  0  0  0
    1.5584   -1.1032   -0.3200 C   0  0  0  0  0  0  0  0  0  0  0  0
    1.8826    0.1078   -0.8676 C   0  0  0  0  0  0  0  0  0  0  0  0
    3.1175    0.2409   -1.5341 O   0  0  0  0  0  0  0  0  0  0  0  0
    3.9972   -0.8449   -1.6361 C   0  0  0  0  0  0  0  0  0  0  0  0
    4.4678   -1.4085   -0.3545 C   0  0  0  0  0  0  0  0  0  0  0  0
    5.1814   -0.5208    0.5017 N   0  0  0  0  0  0  0  0  0  0  0  0
    4.3509    0.5070    1.0284 C   0  0  0  0  0  0  0  0  0  0  0  0
    5.1422    1.7889    0.9897 C   0  0  0  0  0  0  0  0  0  0  0  0
    6.5189    1.4430    0.4768 C   0  0  0  0  0  0  0  0  0  0  0  0
    6.3557    0.0626   -0.0693 C   0  0  0  0  0  0  0  0  0  0  0  0
    1.0376    1.1898   -0.7834 C   0  0  0  0  0  0  0  0  0  0  0  0
   -0.1751    0.9861   -0.1059 C   0  0  0  0  0  0  0  0  0  0  0  0
  1  2  1  0
  2  3  2  0
  3  4  1  0
  4  5  2  0
  5  6  1  0
  6  7  2  0
  6  8  1  0
  8  9  1  0
  9 10  1  0
 10 11  1  1
 11 12  2  0
 12 13  1  0
 13 14  2  0
 14 15  1  0
 15 16  2  0
 10 17  1  0
 17 18  1  6
 18 19  2  0
 19 20  1  0
 20 21  2  0
 21 22  1  0
 22 23  1  0
 23 24  1  0
 24 25  1  0
 25 26  1  0
 26 27  1  0
 27 28  1  0
 28 29  1  0
 21 30  1  0
 30 31  2  0
  7  2  1  0
 16 11  1  0
 31 18  1  0
 17  5  1  0
 29 25  1  0
M  END
>  <zinc_id>  (1) 
ZINC000003918428

>  <smiles>  (1) 
Oc1ccc2c(c1)CC[C@H](c1ccccc1)[C@@H]2c1ccc(OCCN2CCCC2)cc1

$$$$
