
     RDKit          3D

 30 33  0  0  0  0  0  0  0  0999 V2000
    6.8414    1.2010   -2.2453 C   0  0  0  0  0  0  0  0  0  0  0  0
    6.4988    0.7440   -0.8460 C   0  0  0  0  0  0  0  0  0  0  0  0
    6.6237   -0.7581   -0.7326 C   0  0  0  0  0  0  0  0  0  0  0  0
    5.6815   -1.4541   -1.7050 C   0  0  0  0  0  0  0  0  0  0  0  0
    4.2470   -1.0420   -1.3753 C   0  0  0  0  0  0  0  0  0  0  0  0
    3.9855   -1.4854    0.0626 C   0  0  0  0  0  0  0  0  0  0  0  0
    2.6324   -1.0958    0.3713 N   0  0  0  0  0  0  0  0  0  0  0  0
    1.5810   -1.6216   -0.4069 C   0  0  0  0  0  0  0  0  0  0  0  0
    1.8483   -2.4080   -1.3397 O   0  0  0  0  0  0  0  0  0  0  0  0
    0.2113   -1.2606   -0.1352 C   0  0  0  0  0  0  0  0  0  0  0  0
   -0.9424   -1.6671   -0.7796 C   0  0  0  0  0  0  0  0  0  0  0  0
   -0.9583   -2.5648   -1.8848 N   0  0  0  0  0  0  0  0  0  0  0  0
   -1.9768   -1.0784   -0.1862 N   0  0  0  0  0  0  0  0  0  0  0  0
   -3.3690   -1.2597   -0.5837 C   0  0  0  0  0  0  0  0  0  0  0  0
   -3.7385   -0.2457   -1.5968 C   0  0  0  0  0  0  0  0  0  0  0  0
   -4.2493    0.9508   -1.1688 C   0  0  0  0  0  0  0  0  0  0  0  0
   -4.6117    1.9322   -2.0451 C   0  0  0  0  0  0  0  0  0  0  0  0
   -4.4634    1.7213   -3.3838 C   0  0  0  0  0  0  0  0  0  0  0  0
   -3.9489    0.5184   -3.8359 C   0  0  0  0  0  0  0  0  0  0  0  0
   -3.5882   -0.4609   -2.9411 C   0  0  0  0  0  0  0  0  0  0  0  0
   -1.5506   -0.3135    0.8072 C   0  0  0  0  0  0  0  0  0  0  0  0
   -2.2136    0.4751    1.6931 N   0  0  0  0  0  0  0  0  0  0  0  0
   -1.5306    1.1735    2.6370 C   0  0  0  0  0  0  0  0  0  0  0  0
   -2.1917    1.9760    3.5402 C   0  0  0  0  0  0  0  0  0  0  0  0
   -1.4630    2.6754    4.4912 C   0  0  0  0  0  0  0  0  0  0  0  0
   -0.0844    2.5980    4.5692 C   0  0  0  0  0  0  0  0  0  0  0  0
    0.5546    1.7875    3.6534 C   0  0  0  0  0  0  0  0  0  0  0  0
   -0.1540    1.0744    2.6882 C   0  0  0  0  0  0  0  0  0  0  0  0
    0.5088    0.2924    1.8104 N   0  0  0  0  0  0  0  0  0  0  0  0
   -0.1798   -0.4043    0.8679 C   0  0  0  0  0  0  0  0  0  0  0  0
  1  2  1  0
  2  3  1  0
  3  4  1  0
  4  5  1  0
  5  6  1  0
  6  7  1  0
  7  8  1  0
  8  9  2  0
  8 10  1  0
 10 11  2  0
 11 12  1  0
 11 13  1  0
 13 14  1  0
 14 15  1  0
 15 16  2  0
 16 17  1  0
 17 18  2  0
 18 19  1  0
 19 20  2  0
 13 21  1  0
 21 22  2  0
 22 23  1  0
 23 24  2  0
 24 25  1  0
 25 26  2  0
 26 27  1  0
 27 28  2  0
 28 29  1  0
 29 30  2  0
 30 10  1  0
 20 15  1  0
 30 21  1  0
 28 23  1  0
M  END
>  <zinc_id>  (1) 
ZINC000002306573

>  <smiles>  (1) 
CCCCCCNC(=O)c1c(N)n(Cc2ccccc2)c2nc3ccccc3nc12

$$$$
