
     RDKit          3D

 29 31  0  0  0  0  0  0  0  0999 V2000
   -2.6381   -5.5180   -0.4936 C   0  0  0  0  0  0  0  0  0  0  0  0
   -1.8247   -4.2385   -0.4628 C   0  0  0  0  0  0  0  0  0  0  0  0
   -2.6858   -3.1568   -0.7331 O   0  0  0  0  0  0  0  0  0  0  0  0
   -2.2363   -1.8430   -0.7752 C   0  0  0  0  0  0  0  0  0  0  0  0
   -0.9210   -1.4958   -0.5574 C   0  0  0  0  0  0  0  0  0  0  0  0
   -0.4933   -0.1985   -0.6021 C   0  0  0  0  0  0  0  0  0  0  0  0
    0.8652    0.2406   -0.3850 C   0  0  0  0  0  0  0  0  0  0  0  0
    1.8601   -0.5042   -0.1220 N   0  0  0  0  0  0  0  0  0  0  0  0
    3.1845   -0.0359    0.0858 C   0  0  0  0  0  0  0  0  0  0  0  0
    3.4658    0.5789    1.2828 C   0  0  0  0  0  0  0  0  0  0  0  0
    4.7411    1.0646    1.5605 C   0  0  0  0  0  0  0  0  0  0  0  0
    5.7473    0.9259    0.6119 C   0  0  0  0  0  0  0  0  0  0  0  0
    7.0241    1.4465    0.9668 N   0  0  0  0  0  0  0  0  0  0  0  0
    8.1442    1.3807    0.1089 C   0  0  0  0  0  0  0  0  0  0  0  0
    9.4871    1.9190    0.4615 C   0  0  0  0  0  0  0  0  0  0  0  0
    7.9587    0.8214   -1.0246 O   0  0  0  0  0  0  0  0  0  0  0  0
    5.4663    0.3166   -0.5729 C   0  0  0  0  0  0  0  0  0  0  0  0
    4.1818   -0.1704   -0.8479 C   0  0  0  0  0  0  0  0  0  0  0  0
   -1.4358    0.7964   -0.8795 C   0  0  0  0  0  0  0  0  0  0  0  0
   -2.7479    0.4386   -1.0957 C   0  0  0  0  0  0  0  0  0  0  0  0
   -3.1848   -0.8670   -1.0519 C   0  0  0  0  0  0  0  0  0  0  0  0
   -4.5176   -1.2366   -1.2709 O   0  0  0  0  0  0  0  0  0  0  0  0
   -5.4711   -0.2464   -1.5456 C   0  0  0  0  0  0  0  0  0  0  0  0
   -5.5624    0.7125   -0.3997 C   0  0  0  0  0  0  0  0  0  0  0  0
   -4.9110    0.4381    0.7847 C   0  0  0  0  0  0  0  0  0  0  0  0
   -5.0123    1.3382    1.8223 C   0  0  0  0  0  0  0  0  0  0  0  0
   -5.7594    2.4832    1.6471 C   0  0  0  0  0  0  0  0  0  0  0  0
   -6.4084    2.7472    0.4538 C   0  0  0  0  0  0  0  0  0  0  0  0
   -6.3162    1.8625   -0.5841 C   0  0  0  0  0  0  0  0  0  0  0  0
  1  2  1  0
  2  3  1  0
  3  4  1  0
  4  5  2  0
  5  6  1  0
  6  7  1  0
  7  8  2  0
  8  9  1  0
  9 10  2  0
 10 11  1  0
 11 12  2  0
 12 13  1  0
 13 14  1  0
 14 15  1  0
 14 16  2  0
 12 17  1  0
 17 18  2  0
  6 19  2  0
 19 20  1  0
 20 21  2  0
 21 22  1  0
 22 23  1  0
 23 24  1  0
 24 25  2  0
 25 26  1  0
 26 27  2  0
 27 28  1  0
 28 29  2  0
 21  4  1  0
 29 24  1  0
 18  9  1  0
M  END
>  <zinc_id>  (1) 
ZINC000000681062

>  <smiles>  (1) 
CCOc1cc(/C=N/c2ccc(NC(C)=O)cc2)ccc1OCc1ccccc1

$$$$
