
     RDKit          3D

 32 35  0  0  0  0  0  0  0  0999 V2000
   -2.1707    5.1221   -3.3881 C   0  0  0  0  0  0  0  0  0  0  0  0
   -2.8114    4.5766   -4.4202 C   0  0  0  0  0  0  0  0  0  0  0  0
   -2.9149    3.1080   -4.4678 C   0  0  0  0  0  0  0  0  0  0  0  0
   -2.2930    2.4843   -3.3662 O   0  0  0  0  0  0  0  0  0  0  0  0
   -2.3038    1.1045   -3.2655 C   0  0  0  0  0  0  0  0  0  0  0  0
   -2.8754    0.4532   -4.1721 O   0  0  0  0  0  0  0  0  0  0  0  0
   -1.6655    0.4175   -2.1317 C   0  0  0  0  0  0  0  0  0  0  0  0
   -1.0068    1.0017   -1.0725 C   0  0  0  0  0  0  0  0  0  0  0  0
   -0.7992    2.3886   -0.8411 N   0  0  0  0  0  0  0  0  0  0  0  0
   -0.5608    0.0206   -0.2381 N   0  0  0  0  0  0  0  0  0  0  0  0
    0.1799    0.1997    0.9916 C   0  0  0  0  0  0  0  0  0  0  0  0
    1.6773    0.2085    0.7695 C   0  0  0  0  0  0  0  0  0  0  0  0
    2.3211    0.3985    2.0931 C   0  0  0  0  0  0  0  0  0  0  0  0
    2.6576   -0.6791    2.8816 C   0  0  0  0  0  0  0  0  0  0  0  0
    3.2486   -0.5062    4.0965 C   0  0  0  0  0  0  0  0  0  0  0  0
    3.5625    0.7586    4.6452 C   0  0  0  0  0  0  0  0  0  0  0  0
    4.1143    0.9509    5.7772 O   0  0  0  0  0  0  0  0  0  0  0  0
    4.6616    1.1239    6.9015 C   0  0  0  0  0  0  0  0  0  0  0  0
    3.2004    1.8387    3.8033 C   0  0  0  0  0  0  0  0  0  0  0  0
    3.4885    3.1263    4.2966 O   0  0  0  0  0  0  0  0  0  0  0  0
    3.1419    4.2362    3.4857 C   0  0  0  0  0  0  0  0  0  0  0  0
    2.6094    1.6500    2.5897 C   0  0  0  0  0  0  0  0  0  0  0  0
   -0.9160   -1.1873   -0.7329 C   0  0  0  0  0  0  0  0  0  0  0  0
   -0.7330   -2.4547   -0.3160 N   0  0  0  0  0  0  0  0  0  0  0  0
   -1.2012   -3.5066   -1.0134 C   0  0  0  0  0  0  0  0  0  0  0  0
   -0.9996   -4.8149   -0.5605 C   0  0  0  0  0  0  0  0  0  0  0  0
   -1.4975   -5.8519   -1.3082 C   0  0  0  0  0  0  0  0  0  0  0  0
   -2.1861   -5.6451   -2.4850 C   0  0  0  0  0  0  0  0  0  0  0  0
   -2.3727   -4.3286   -2.9130 C   0  0  0  0  0  0  0  0  0  0  0  0
   -1.8823   -3.2581   -2.1809 C   0  0  0  0  0  0  0  0  0  0  0  0
   -2.0742   -1.9986   -2.6123 N   0  0  0  0  0  0  0  0  0  0  0  0
   -1.5990   -0.9370   -1.9040 C   0  0  0  0  0  0  0  0  0  0  0  0
  1  2  2  0
  2  3  1  0
  3  4  1  0
  4  5  1  0
  5  6  2  0
  5  7  1  0
  7  8  2  0
  8  9  1  0
  8 10  1  0
 10 11  1  0
 11 12  1  0
 12 13  1  0
 13 14  2  0
 14 15  1  0
 15 16  2  0
 16 17  1  0
 17 18  1  0
 16 19  1  0
 19 20  1  0
 20 21  1  0
 19 22  2  0
 10 23  1  0
 23 24  2  0
 24 25  1  0
 25 26  2  0
 26 27  1  0
 27 28  2  0
 28 29  1  0
 29 30  2  0
 30 31  1  0
 31 32  2  0
 32  7  1  0
 22 13  1  0
 32 23  1  0
 30 25  1  0
M  END
>  <zinc_id>  (1) 
ZINC000002356453

>  <smiles>  (1) 
C=CCOC(=O)c1c(N)n(CCc2ccc(OC)c(OC)c2)c2nc3ccccc3nc12

$$$$
