
     RDKit          3D

 31 34  0  0  0  0  0  0  0  0999 V2000
   -3.0098    5.1868    1.3435 C   0  0  0  0  0  0  0  0  0  0  0  0
   -3.7181    4.0627    0.8572 O   0  0  0  0  0  0  0  0  0  0  0  0
   -3.0326    2.8550    0.6632 C   0  0  0  0  0  0  0  0  0  0  0  0
   -1.6754    2.7761    0.9486 C   0  0  0  0  0  0  0  0  0  0  0  0
   -0.9646    1.6185    0.7748 C   0  0  0  0  0  0  0  0  0  0  0  0
    0.3833    1.5122    1.0501 C   0  0  0  0  0  0  0  0  0  0  0  0
    1.0436    0.3176    0.8540 C   0  0  0  0  0  0  0  0  0  0  0  0
    2.4680    0.2372    1.1542 C   0  0  0  0  0  0  0  0  0  0  0  0
    3.0686    1.2368    1.5867 O   0  0  0  0  0  0  0  0  0  0  0  0
    3.1277   -1.0218    0.9315 N   0  0  0  0  0  0  0  0  0  0  0  0
    4.5443   -1.0724    1.2384 C   0  0  0  0  0  0  0  0  0  0  0  0
    5.3601   -0.4122    0.2153 C   0  0  0  0  0  0  0  0  0  0  0  0
    6.7243   -0.3942    0.3416 C   0  0  0  0  0  0  0  0  0  0  0  0
    7.4856    0.2267   -0.6214 C   0  0  0  0  0  0  0  0  0  0  0  0
    6.8658    0.8266   -1.7074 C   0  0  0  0  0  0  0  0  0  0  0  0
    5.5075    0.8044   -1.8261 C   0  0  0  0  0  0  0  0  0  0  0  0
    4.7586    0.1828   -0.8605 C   0  0  0  0  0  0  0  0  0  0  0  0
    0.3436   -0.7903    0.3740 C   0  0  0  0  0  0  0  0  0  0  0  0
   -1.0040   -0.6960    0.0953 C   0  0  0  0  0  0  0  0  0  0  0  0
   -1.7698   -1.8376   -0.4102 C   0  0  0  0  0  0  0  0  0  0  0  0
   -2.6637   -1.7230   -1.4636 C   0  0  0  0  0  0  0  0  0  0  0  0
   -3.3826   -2.7982   -1.9374 C   0  0  0  0  0  0  0  0  0  0  0  0
   -3.2343   -4.0459   -1.3697 C   0  0  0  0  0  0  0  0  0  0  0  0
   -4.0159   -5.2115   -1.8863 C   0  0  0  0  0  0  0  0  0  0  0  0
   -2.3510   -4.1782   -0.3227 C   0  0  0  0  0  0  0  0  0  0  0  0
   -1.6339   -3.0929    0.1458 C   0  0  0  0  0  0  0  0  0  0  0  0
   -1.6540    0.5090    0.2968 C   0  0  0  0  0  0  0  0  0  0  0  0
   -3.0053    0.5661    0.0064 C   0  0  0  0  0  0  0  0  0  0  0  0
   -3.7002    1.7438    0.1896 C   0  0  0  0  0  0  0  0  0  0  0  0
   -5.0579    1.8539   -0.0868 O   0  0  0  0  0  0  0  0  0  0  0  0
   -5.8077    0.7582   -0.5746 C   0  0  0  0  0  0  0  0  0  0  0  0
  1  2  1  0
  2  3  1  0
  3  4  2  0
  4  5  1  0
  5  6  2  0
  6  7  1  0
  7  8  1  0
  8  9  2  0
  8 10  1  0
 10 11  1  0
 11 12  1  0
 12 13  2  0
 13 14  1  0
 14 15  2  0
 15 16  1  0
 16 17  2  0
  7 18  2  0
 18 19  1  0
 19 20  1  0
 20 21  2  0
 21 22  1  0
 22 23  2  0
 23 24  1  0
 23 25  1  0
 25 26  2  0
 19 27  2  0
 27 28  1  0
 28 29  2  0
 29 30  1  0
 30 31  1  0
 29  3  1  0
 27  5  1  0
 17 12  1  0
 26 20  1  0
M  END
>  <zinc_id>  (1) 
ZINC000001162745

>  <smiles>  (1) 
COc1cc2cc(C(=O)NCc3ccccc3)cc(-c3ccc(C)cc3)c2cc1OC

$$$$
