
     RDKit          3D

 33 36  0  0  0  0  0  0  0  0999 V2000
   -0.5874    6.7110   -0.9651 C   0  0  0  0  0  0  0  0  0  0  0  0
   -0.1669    5.3761   -1.5420 C   0  0  0  0  0  0  0  0  0  0  0  0
   -1.3225    4.4059   -1.3294 C   0  0  0  0  0  0  0  0  0  0  0  0
   -1.5394    4.3392    0.1811 C   0  0  0  0  0  0  0  0  0  0  0  0
   -0.2459    3.8393    0.7735 C   0  0  0  0  0  0  0  0  0  0  0  0
    0.0247    2.4836    0.1849 C   0  0  0  0  0  0  0  0  0  0  0  0
   -1.0642    1.5215    0.4951 C   0  0  0  0  0  0  0  0  0  0  0  0
   -0.9170    0.4471    1.1332 C   0  0  0  0  0  0  0  0  0  0  0  0
    0.2138   -0.2197    1.7496 C   0  0  0  0  0  0  0  0  0  0  0  0
    0.0785   -1.2958    2.3285 O   0  0  0  0  0  0  0  0  0  0  0  0
    1.5177    0.3535    1.7024 N   0  0  0  0  0  0  0  0  0  0  0  0
    2.6095   -0.3557    2.3345 C   0  0  0  0  0  0  0  0  0  0  0  0
    2.7621   -1.6974    1.7031 C   0  0  0  0  0  0  0  0  0  0  0  0
    3.0328   -1.5488    0.3445 O   0  0  0  0  0  0  0  0  0  0  0  0
    4.1173   -0.8884   -0.1836 C   0  0  0  0  0  0  0  0  0  0  0  0
    5.0401   -0.3095    0.6512 C   0  0  0  0  0  0  0  0  0  0  0  0
    6.1270    0.3523    0.1160 C   0  0  0  0  0  0  0  0  0  0  0  0
    6.2358    0.4011   -1.2555 C   0  0  0  0  0  0  0  0  0  0  0  0
    5.3108   -0.1790   -2.0838 C   0  0  0  0  0  0  0  0  0  0  0  0
    4.2149   -0.8466   -1.5693 C   0  0  0  0  0  0  0  0  0  0  0  0
   -2.3419   -0.2954    1.2829 C   0  0  2  0  0  0  0  0  0  0  0  0
   -2.3611   -0.9240   -0.2251 C   0  0  0  0  0  0  0  0  0  0  0  0
   -2.0113   -0.1519   -1.2552 C   0  0  0  0  0  0  0  0  0  0  0  0
   -2.0380   -0.7230   -2.5130 C   0  0  0  0  0  0  0  0  0  0  0  0
   -2.4217   -2.0613   -2.6644 C   0  0  0  0  0  0  0  0  0  0  0  0
   -2.7694   -2.7974   -1.5588 C   0  0  0  0  0  0  0  0  0  0  0  0
   -3.1457   -4.1071   -1.6999 C   0  0  0  0  0  0  0  0  0  0  0  0
   -3.4982   -4.8674   -0.6155 C   0  0  0  0  0  0  0  0  0  0  0  0
   -3.4705   -4.3002    0.6220 C   0  0  0  0  0  0  0  0  0  0  0  0
   -3.0985   -2.9887    0.8063 C   0  0  0  0  0  0  0  0  0  0  0  0
   -2.7484   -2.2367   -0.2788 C   0  0  0  0  0  0  0  0  0  0  0  0
   -3.1558    0.9618    0.9130 O   0  0  0  0  0  0  0  0  0  0  0  0
   -2.3812    1.6017    0.1465 N   0  0  0  0  0  0  0  0  0  0  0  0
  1  2  1  0
  2  3  1  0
  3  4  1  0
  4  5  1  0
  5  6  1  0
  6  7  1  0
  7  8  2  0
  8  9  1  0
  9 10  2  0
  9 11  1  0
 11 12  1  0
 12 13  1  0
 13 14  1  0
 14 15  1  0
 15 16  2  0
 16 17  1  0
 17 18  2  0
 18 19  1  0
 19 20  2  0
  8 21  1  0
 21 22  1  6
 22 23  2  0
 23 24  1  0
 24 25  2  0
 25 26  1  0
 26 27  2  0
 27 28  1  0
 28 29  2  0
 29 30  1  0
 30 31  2  0
 21 32  1  0
 32 33  1  0
 33  7  1  0
 20 15  1  0
 31 22  1  0
 31 26  1  0
M  END
>  <zinc_id>  (1) 
ZINC000002474897

>  <smiles>  (1) 
CCCCCCC1=C(C(=O)NCCOc2ccccc2)[C@H](c2cccc3ccccc23)ON1

$$$$
