
     RDKit          3D

 29 31  0  0  0  0  0  0  0  0999 V2000
   -5.9594   -0.6953    0.9811 C   0  0  0  0  0  0  0  0  0  0  0  0
   -6.0692   -0.8055   -0.5414 C   0  0  0  0  0  0  0  0  0  0  0  0
   -4.8160   -1.4304   -1.0486 C   0  0  0  0  0  0  0  0  0  0  0  0
   -4.8692   -2.7719   -1.4478 C   0  0  0  0  0  0  0  0  0  0  0  0
   -3.7263   -3.3588   -1.9182 C   0  0  0  0  0  0  0  0  0  0  0  0
   -2.5647   -2.6340   -1.9890 C   0  0  0  0  0  0  0  0  0  0  0  0
   -2.5213   -1.2954   -1.5880 C   0  0  0  0  0  0  0  0  0  0  0  0
   -3.6582   -0.6850   -1.1122 C   0  0  0  0  0  0  0  0  0  0  0  0
   -3.7261    0.6643   -0.6751 N   0  0  0  0  0  0  0  0  0  0  0  0
   -2.5469    1.4942   -0.7060 C   0  0  0  0  0  0  0  0  0  0  0  0
   -1.5034    0.9255   -1.1439 O   0  0  0  0  0  0  0  0  0  0  0  0
   -2.5937    2.9027   -0.2492 C   0  0  0  0  0  0  0  0  0  0  0  0
   -1.3000    3.4750   -0.3312 O   0  0  0  0  0  0  0  0  0  0  0  0
   -0.2753    2.8680    0.4148 C   0  0  0  0  0  0  0  0  0  0  0  0
   -0.5704    1.8795    1.1032 O   0  0  0  0  0  0  0  0  0  0  0  0
    1.1167    3.4452    0.3442 C   0  0  0  0  0  0  0  0  0  0  0  0
    1.6737    3.7716    1.6712 C   0  0  0  0  0  0  0  0  0  0  0  0
    1.8800    2.6728    2.6062 C   0  0  0  0  0  0  0  0  0  0  0  0
    2.7559    1.6853    2.3894 O   0  0  0  0  0  0  0  0  0  0  0  0
    3.0009    0.7284    1.4805 C   0  0  0  0  0  0  0  0  0  0  0  0
    2.2164    0.5809    0.3646 C   0  0  0  0  0  0  0  0  0  0  0  0
    2.4773   -0.4009   -0.5533 C   0  0  0  0  0  0  0  0  0  0  0  0
    3.5351   -1.2981   -0.4198 C   0  0  0  0  0  0  0  0  0  0  0  0
    3.7695   -2.2720   -1.3673 C   0  0  0  0  0  0  0  0  0  0  0  0
    4.8424   -3.1231   -1.1669 C   0  0  0  0  0  0  0  0  0  0  0  0
    5.6599   -3.0021   -0.0464 C   0  0  0  0  0  0  0  0  0  0  0  0
    5.3873   -2.0192    0.8671 C   0  0  0  0  0  0  0  0  0  0  0  0
    4.3135   -1.1369    0.7054 C   0  0  0  0  0  0  0  0  0  0  0  0
    4.0716   -0.1646    1.6349 C   0  0  0  0  0  0  0  0  0  0  0  0
  1  2  1  0
  2  3  1  0
  3  4  2  0
  4  5  1  0
  5  6  2  0
  6  7  1  0
  7  8  2  0
  8  9  1  0
  9 10  1  0
 10 11  2  0
 10 12  1  0
 12 13  1  0
 13 14  1  0
 14 15  2  0
 14 16  1  0
 16 17  1  0
 17 18  1  0
 18 19  1  0
 19 20  1  0
 20 21  2  0
 21 22  1  0
 22 23  2  0
 23 24  1  0
 24 25  2  0
 25 26  1  0
 26 27  2  0
 27 28  1  0
 28 29  2  0
  8  3  1  0
 29 20  1  0
 28 23  1  0
M  END
>  <zinc_id>  (1) 
ZINC000002611768

>  <smiles>  (1) 
CCc1ccccc1NC(=O)COC(=O)CCCOc1ccc2ccccc2c1

$$$$
