
     RDKit          3D

 31 34  0  0  0  0  0  0  0  0999 V2000
   -0.1878    5.0736    1.9456 C   0  0  0  0  0  0  0  0  0  0  0  0
   -1.6631    4.7053    1.9069 C   0  0  0  0  0  0  0  0  0  0  0  0
   -2.1169    4.3501    0.5515 C   0  0  0  0  0  0  0  0  0  0  0  0
   -2.8797    5.2221   -0.2316 C   0  0  0  0  0  0  0  0  0  0  0  0
   -3.3005    4.8795   -1.5007 C   0  0  0  0  0  0  0  0  0  0  0  0
   -2.9553    3.6374   -2.0077 C   0  0  0  0  0  0  0  0  0  0  0  0
   -2.2126    2.8038   -1.2298 C   0  0  0  0  0  0  0  0  0  0  0  0
   -1.7759    3.1136    0.0410 C   0  0  0  0  0  0  0  0  0  0  0  0
   -1.0010    2.2075    0.8161 N   0  0  0  0  0  0  0  0  0  0  0  0
   -0.6588    0.9370    0.2696 C   0  0  0  0  0  0  0  0  0  0  0  0
    0.5417    0.3812    0.1786 C   0  0  0  0  0  0  0  0  0  0  0  0
    2.0251    1.1865    0.7647 S   0  0  0  0  0  0  0  0  0  0  0  0
    3.4649    0.1763    0.5003 C   0  0  0  0  0  0  0  0  0  0  0  0
    4.2218    0.2267   -0.6476 C   0  0  0  0  0  0  0  0  0  0  0  0
    5.3293   -0.5820   -0.7953 C   0  0  0  0  0  0  0  0  0  0  0  0
    5.7114   -1.4615    0.1956 C   0  0  0  0  0  0  0  0  0  0  0  0
    6.8878   -2.3610    0.1084 C   0  0  0  0  0  0  0  0  0  0  0  0
    4.9489   -1.5073    1.3432 C   0  0  0  0  0  0  0  0  0  0  0  0
    3.8489   -0.7023    1.4869 C   0  0  0  0  0  0  0  0  0  0  0  0
    0.4671   -0.9300   -0.4454 C   0  0  0  0  0  0  0  0  0  0  0  0
    1.4330   -1.6763   -0.6585 O   0  0  0  0  0  0  0  0  0  0  0  0
   -0.8980   -1.1793   -0.7543 N   0  0  0  0  0  0  0  0  0  0  0  0
   -1.4544   -2.3533   -1.3818 C   0  0  0  0  0  0  0  0  0  0  0  0
   -1.8471   -3.3905   -0.4263 C   0  0  0  0  0  0  0  0  0  0  0  0
   -2.3812   -4.5827   -0.8619 C   0  0  0  0  0  0  0  0  0  0  0  0
   -2.7564   -5.5717    0.0461 C   0  0  0  0  0  0  0  0  0  0  0  0
   -2.5936   -5.3623    1.4103 C   0  0  0  0  0  0  0  0  0  0  0  0
   -2.0609   -4.1758    1.8629 C   0  0  0  0  0  0  0  0  0  0  0  0
   -1.7028   -3.2239    0.9334 C   0  0  0  0  0  0  0  0  0  0  0  0
   -1.6057   -0.0337   -0.3180 C   0  0  0  0  0  0  0  0  0  0  0  0
   -2.8280    0.1930   -0.3843 O   0  0  0  0  0  0  0  0  0  0  0  0
  1  2  1  0
  2  3  1  0
  3  4  2  0
  4  5  1  0
  5  6  2  0
  6  7  1  0
  7  8  2  0
  8  9  1  0
  9 10  1  0
 10 11  2  0
 11 12  1  0
 12 13  1  0
 13 14  2  0
 14 15  1  0
 15 16  2  0
 16 17  1  0
 16 18  1  0
 18 19  2  0
 11 20  1  0
 20 21  2  0
 20 22  1  0
 22 23  1  0
 23 24  1  0
 24 25  2  0
 25 26  1  0
 26 27  2  0
 27 28  1  0
 28 29  2  0
 22 30  1  0
 30 31  2  0
  8  3  1  0
 30 10  1  0
 19 13  1  0
 29 24  1  0
M  END
>  <zinc_id>  (1) 
ZINC000001932154

>  <smiles>  (1) 
CCc1ccccc1NC1=C(Sc2ccc(C)cc2)C(=O)N(Cc2ccccc2)C1=O

$$$$
