
     RDKit          3D

 32 35  0  0  0  0  0  0  0  0999 V2000
   -4.1608    3.1596    2.4443 C   0  0  0  0  0  0  0  0  0  0  0  0
   -4.5272    3.0108    0.9675 C   0  0  0  0  0  0  0  0  0  0  0  0
   -3.7665    4.0588    0.2029 C   0  0  0  0  0  0  0  0  0  0  0  0
   -6.0165    3.2654    0.8557 C   0  0  0  0  0  0  0  0  0  0  0  0
   -4.2415    1.6420    0.4451 C   0  0  0  0  0  0  0  0  0  0  0  0
   -2.7406    1.3813    0.6127 C   0  0  0  0  0  0  0  0  0  0  0  0
   -2.0485    2.4639   -0.2026 C   0  0  0  0  0  0  0  0  0  0  0  0
   -2.4614    1.5302    2.0955 C   0  0  0  0  0  0  0  0  0  0  0  0
   -2.4086    0.0597    0.1864 N   0  0  0  0  0  0  0  0  0  0  0  0
   -1.1281   -0.5216    0.1994 C   0  0  0  0  0  0  0  0  0  0  0  0
   -0.8421   -1.7969   -0.2185 C   0  0  0  0  0  0  0  0  0  0  0  0
   -1.7560   -2.8149   -0.7542 C   0  0  0  0  0  0  0  0  0  0  0  0
   -1.7037   -4.1309   -0.3268 C   0  0  0  0  0  0  0  0  0  0  0  0
   -2.5486   -5.1050   -0.8125 C   0  0  0  0  0  0  0  0  0  0  0  0
   -3.4864   -4.7646   -1.7620 C   0  0  0  0  0  0  0  0  0  0  0  0
   -3.5270   -3.4846   -2.1684 N   0  0  0  0  0  0  0  0  0  0  0  0
   -2.7108   -2.5211   -1.7056 C   0  0  0  0  0  0  0  0  0  0  0  0
    0.4894   -1.9494   -0.0389 N   0  0  0  0  0  0  0  0  0  0  0  0
    1.0100   -0.8212    0.4676 C   0  0  0  0  0  0  0  0  0  0  0  0
    2.3067   -0.4655    0.8278 C   0  0  0  0  0  0  0  0  0  0  0  0
    3.3566   -1.3544    0.6876 O   0  0  0  0  0  0  0  0  0  0  0  0
    4.6973   -1.0974    1.0176 C   0  0  0  0  0  0  0  0  0  0  0  0
    5.1758    0.0401    0.2022 C   0  0  0  0  0  0  0  0  0  0  0  0
    5.5814   -0.1989   -1.1041 C   0  0  0  0  0  0  0  0  0  0  0  0
    6.0428    0.7892   -1.9279 C   0  0  0  0  0  0  0  0  0  0  0  0
    6.1178    2.0820   -1.4663 C   0  0  0  0  0  0  0  0  0  0  0  0
    5.7222    2.3499   -0.1739 C   0  0  0  0  0  0  0  0  0  0  0  0
    5.2631    1.3386    0.6307 C   0  0  0  0  0  0  0  0  0  0  0  0
    2.5414    0.7889    1.3302 C   0  0  0  0  0  0  0  0  0  0  0  0
    1.5059    1.6787    1.4738 C   0  0  0  0  0  0  0  0  0  0  0  0
    0.2456    1.3089    1.1149 C   0  0  0  0  0  0  0  0  0  0  0  0
    0.0184    0.0784    0.6226 N   0  0  0  0  0  0  0  0  0  0  0  0
  1  2  1  0
  2  3  1  0
  2  4  1  0
  2  5  1  0
  5  6  1  0
  6  7  1  0
  6  8  1  0
  6  9  1  0
  9 10  1  0
 10 11  2  0
 11 12  1  0
 12 13  2  0
 13 14  1  0
 14 15  2  0
 15 16  1  0
 16 17  2  0
 11 18  1  0
 18 19  2  0
 19 20  1  0
 20 21  1  0
 21 22  1  0
 22 23  1  0
 23 24  2  0
 24 25  1  0
 25 26  2  0
 26 27  1  0
 27 28  2  0
 20 29  2  0
 29 30  1  0
 30 31  2  0
 31 32  1  0
 32 10  1  0
 17 12  1  0
 32 19  1  0
 28 23  1  0
M  END
>  <zinc_id>  (1) 
ZINC000004378916

>  <smiles>  (1) 
CC(C)(C)CC(C)(C)Nc1c(-c2cccnc2)nc2c(OCc3ccccc3)cccn12

$$$$
