
     RDKit          3D

 30 33  0  0  0  0  0  0  0  0999 V2000
    8.3520   -1.9651    0.0174 C   0  0  0  0  0  0  0  0  0  0  0  0
    7.2727   -1.8755    1.0718 C   0  0  0  0  0  0  0  0  0  0  0  0
    6.1167   -1.0446    0.6155 C   0  0  0  0  0  0  0  0  0  0  0  0
    5.0521   -1.6382   -0.0575 C   0  0  0  0  0  0  0  0  0  0  0  0
    3.9896   -0.8131   -0.4621 C   0  0  0  0  0  0  0  0  0  0  0  0
    3.9447    0.5309   -0.2321 C   0  0  0  0  0  0  0  0  0  0  0  0
    2.8306    1.3407   -0.6648 N   0  0  0  0  0  0  0  0  0  0  0  0
    2.7693    2.7166   -0.4409 C   0  0  0  0  0  0  0  0  0  0  0  0
    3.7934    3.2032    0.1832 O   0  0  0  0  0  0  0  0  0  0  0  0
    1.7266    3.6672   -0.8093 C   0  0  0  0  0  0  0  0  0  0  0  0
    0.3054    2.9766   -1.6174 S   0  0  0  0  0  0  0  0  0  0  0  0
   -0.6669    1.9474   -0.5463 C   0  0  0  0  0  0  0  0  0  0  0  0
   -1.6277    2.4865    0.2698 N   0  0  0  0  0  0  0  0  0  0  0  0
   -2.1928    1.5061    0.9075 N   0  0  0  0  0  0  0  0  0  0  0  0
   -1.6376    0.3423    0.5389 C   0  0  0  0  0  0  0  0  0  0  0  0
   -1.9392   -1.0368    0.9918 C   0  0  0  0  0  0  0  0  0  0  0  0
   -3.0825   -1.5883    0.1742 C   0  0  0  0  0  0  0  0  0  0  0  0
   -2.8621   -2.4863   -0.8222 C   0  0  0  0  0  0  0  0  0  0  0  0
   -3.9080   -2.9893   -1.5678 C   0  0  0  0  0  0  0  0  0  0  0  0
   -5.1795   -2.5536   -1.2717 C   0  0  0  0  0  0  0  0  0  0  0  0
   -5.4073   -1.6492   -0.2688 C   0  0  0  0  0  0  0  0  0  0  0  0
   -6.6669   -1.2052    0.0429 C   0  0  0  0  0  0  0  0  0  0  0  0
   -6.8574   -0.2955    1.0606 C   0  0  0  0  0  0  0  0  0  0  0  0
   -5.7914    0.1791    1.7771 C   0  0  0  0  0  0  0  0  0  0  0  0
   -4.5410   -0.2568    1.4747 C   0  0  0  0  0  0  0  0  0  0  0  0
   -4.3577   -1.1666    0.4551 C   0  0  0  0  0  0  0  0  0  0  0  0
   -0.6703    0.6090   -0.3819 N   0  0  0  0  0  0  0  0  0  0  0  0
    0.1636   -0.3614   -1.0645 C   0  0  0  0  0  0  0  0  0  0  0  0
    5.0015    1.1160    0.4348 C   0  0  0  0  0  0  0  0  0  0  0  0
    6.0701    0.3039    0.8448 C   0  0  0  0  0  0  0  0  0  0  0  0
  1  2  1  0
  2  3  1  0
  3  4  2  0
  4  5  1  0
  5  6  2  0
  6  7  1  0
  7  8  1  0
  8  9  2  0
  8 10  1  0
 10 11  1  0
 11 12  1  0
 12 13  2  0
 13 14  1  0
 14 15  2  0
 15 16  1  0
 16 17  1  0
 17 18  2  0
 18 19  1  0
 19 20  2  0
 20 21  1  0
 21 22  2  0
 22 23  1  0
 23 24  2  0
 24 25  1  0
 25 26  2  0
 15 27  1  0
 27 28  1  0
  6 29  1  0
 29 30  2  0
 30  3  1  0
 27 12  1  0
 26 17  1  0
 26 21  1  0
M  END
>  <zinc_id>  (1) 
ZINC000001159623

>  <smiles>  (1) 
CCc1ccc(NC(=O)CSc2nnc(Cc3cccc4ccccc34)n2C)cc1

$$$$
