
     RDKit          3D

 33 36  0  0  0  0  0  0  0  0999 V2000
   -5.1094    2.8500    3.1716 C   0  0  0  0  0  0  0  0  0  0  0  0
   -5.7789    2.3111    2.0493 O   0  0  0  0  0  0  0  0  0  0  0  0
   -5.1392    1.4111    1.1827 C   0  0  0  0  0  0  0  0  0  0  0  0
   -3.8524    1.0029    1.3611 C   0  0  0  0  0  0  0  0  0  0  0  0
   -3.2887    0.1213    0.4762 C   0  0  0  0  0  0  0  0  0  0  0  0
   -1.9273   -0.3352    0.6311 N   0  0  0  0  0  0  0  0  0  0  0  0
   -1.3434   -1.2434   -0.2785 C   0  0  0  0  0  0  0  0  0  0  0  0
   -2.0430   -1.6517   -1.2390 O   0  0  0  0  0  0  0  0  0  0  0  0
    0.0367   -1.7251   -0.1473 C   0  0  0  0  0  0  0  0  0  0  0  0
    0.5767   -2.6109   -1.0510 C   0  0  0  0  0  0  0  0  0  0  0  0
    1.8805   -3.0853   -0.9536 C   0  0  0  0  0  0  0  0  0  0  0  0
    2.6721   -2.6485    0.0983 C   0  0  0  0  0  0  0  0  0  0  0  0
    4.0597   -3.1606    0.1959 C   0  0  0  0  0  0  0  0  0  0  0  0
    4.9710   -2.4052   -0.5333 O   0  0  0  0  0  0  0  0  0  0  0  0
    5.2428   -1.0528   -0.3420 C   0  0  0  0  0  0  0  0  0  0  0  0
    6.1673   -0.3984   -1.1233 C   0  0  0  0  0  0  0  0  0  0  0  0
    6.4525    0.9382   -0.9523 C   0  0  0  0  0  0  0  0  0  0  0  0
    5.8066    1.6916    0.0333 C   0  0  0  0  0  0  0  0  0  0  0  0
    6.0713    3.0162    0.2225 C   0  0  0  0  0  0  0  0  0  0  0  0
    5.4258    3.7398    1.1968 C   0  0  0  0  0  0  0  0  0  0  0  0
    4.4993    3.0973    1.9847 C   0  0  0  0  0  0  0  0  0  0  0  0
    4.2298    1.7616    1.7967 C   0  0  0  0  0  0  0  0  0  0  0  0
    4.8816    1.0397    0.8161 C   0  0  0  0  0  0  0  0  0  0  0  0
    4.6055   -0.3134    0.6291 C   0  0  0  0  0  0  0  0  0  0  0  0
    2.1451   -1.7638    1.0078 C   0  0  0  0  0  0  0  0  0  0  0  0
    0.8406   -1.3042    0.8897 C   0  0  0  0  0  0  0  0  0  0  0  0
   -4.0078   -0.3618   -0.5980 C   0  0  0  0  0  0  0  0  0  0  0  0
   -5.3126    0.0369   -0.7998 C   0  0  0  0  0  0  0  0  0  0  0  0
   -6.0842   -0.4188   -1.8666 O   0  0  0  0  0  0  0  0  0  0  0  0
   -5.4624   -1.3350   -2.7656 C   0  0  0  0  0  0  0  0  0  0  0  0
   -5.8526    0.9287    0.1127 C   0  0  0  0  0  0  0  0  0  0  0  0
   -7.1761    1.3235   -0.1050 O   0  0  0  0  0  0  0  0  0  0  0  0
   -8.1869    0.5442    0.4960 C   0  0  0  0  0  0  0  0  0  0  0  0
  1  2  1  0
  2  3  1  0
  3  4  2  0
  4  5  1  0
  5  6  1  0
  6  7  1  0
  7  8  2  0
  7  9  1  0
  9 10  2  0
 10 11  1  0
 11 12  2  0
 12 13  1  0
 13 14  1  0
 14 15  1  0
 15 16  2  0
 16 17  1  0
 17 18  2  0
 18 19  1  0
 19 20  2  0
 20 21  1  0
 21 22  2  0
 22 23  1  0
 23 24  2  0
 12 25  1  0
 25 26  2  0
  5 27  2  0
 27 28  1  0
 28 29  1  0
 29 30  1  0
 28 31  2  0
 31 32  1  0
 32 33  1  0
 31  3  1  0
 26  9  1  0
 24 15  1  0
 23 18  1  0
M  END
>  <zinc_id>  (1) 
ZINC000002750855

>  <smiles>  (1) 
COc1cc(NC(=O)c2ccc(COc3ccc4ccccc4c3)cc2)cc(OC)c1OC

$$$$
