
     RDKit          3D

 30 33  0  0  0  0  0  0  0  0999 V2000
    2.0032   -3.3116   -0.1578 O   0  0  0  0  0  0  0  0  0  0  0  0
    2.2486   -2.0922   -0.1531 C   0  0  0  0  0  0  0  0  0  0  0  0
    3.6478   -1.6006   -0.0723 C   0  0  0  0  0  0  0  0  0  0  0  0
    3.6272   -0.1958   -0.0854 O   0  0  0  0  0  0  0  0  0  0  0  0
    4.8144    0.4968   -0.0192 C   0  0  0  0  0  0  0  0  0  0  0  0
    5.9967   -0.1882    0.0584 C   0  0  0  0  0  0  0  0  0  0  0  0
    7.2157    0.4570    0.1270 C   0  0  0  0  0  0  0  0  0  0  0  0
    7.2809    1.8312    0.1193 C   0  0  0  0  0  0  0  0  0  0  0  0
    6.0946    2.5262    0.0413 C   0  0  0  0  0  0  0  0  0  0  0  0
    4.8646    1.8787   -0.0279 C   0  0  0  0  0  0  0  0  0  0  0  0
    1.1340   -1.1923   -0.2284 N   0  0  0  0  0  0  0  0  0  0  0  0
   -0.2011   -1.7576   -0.3047 C   0  0  0  0  0  0  0  0  0  0  0  0
   -0.6804   -3.3939   -0.3202 S   0  0  0  0  0  0  0  0  0  0  0  0
   -2.3626   -3.1829   -0.4241 C   0  0  0  0  0  0  0  0  0  0  0  0
   -2.5128   -1.8259   -0.4445 C   0  0  0  0  0  0  0  0  0  0  0  0
   -1.3851   -1.0834   -0.3822 C   0  0  0  0  0  0  0  0  0  0  0  0
   -1.4111    0.4011   -0.3961 C   0  0  0  0  0  0  0  0  0  0  0  0
   -0.3623    1.0767   -0.3381 O   0  0  0  0  0  0  0  0  0  0  0  0
   -2.6250    1.1422   -0.4760 N   0  0  0  0  0  0  0  0  0  0  0  0
   -2.6677    2.5505   -0.4903 C   0  0  0  0  0  0  0  0  0  0  0  0
   -1.5665    3.3692   -0.4305 C   0  0  0  0  0  0  0  0  0  0  0  0
   -1.7260    4.7566   -0.4516 C   0  0  0  0  0  0  0  0  0  0  0  0
   -2.9649    5.3443   -0.5315 C   0  0  0  0  0  0  0  0  0  0  0  0
   -4.0728    4.5227   -0.5917 C   0  0  0  0  0  0  0  0  0  0  0  0
   -3.9050    3.1594   -0.5703 C   0  0  0  0  0  0  0  0  0  0  0  0
   -3.9017   -1.1982   -0.5341 C   0  0  0  0  0  0  0  0  0  0  0  0
   -4.6828   -1.4871    0.7121 C   0  0  0  0  0  0  0  0  0  0  0  0
   -4.1047   -2.7342    1.3440 C   0  0  0  0  0  0  0  0  0  0  0  0
   -4.4215   -3.9686    0.5564 C   0  0  0  0  0  0  0  0  0  0  0  0
   -3.3737   -4.3001   -0.4761 C   0  0  0  0  0  0  0  0  0  0  0  0
  1  2  2  0
  2  3  1  0
  3  4  1  0
  4  5  1  0
  5  6  2  0
  6  7  1  0
  7  8  2  0
  8  9  1  0
  9 10  2  0
  2 11  1  0
 11 12  1  0
 12 13  1  0
 13 14  1  0
 14 15  2  0
 15 16  1  0
 16 17  1  0
 17 18  2  0
 17 19  1  0
 19 20  1  0
 20 21  2  0
 21 22  1  0
 22 23  2  0
 23 24  1  0
 24 25  2  0
 15 26  1  0
 26 27  1  0
 27 28  1  0
 28 29  1  0
 29 30  1  0
 10  5  1  0
 16 12  2  0
 25 20  1  0
 30 14  1  0
M  END
>  <zinc_id>  (1) 
ZINC000003002535

>  <smiles>  (1) 
O=C(COc1ccccc1)Nc1sc2c(c1C(=O)Nc1ccccc1)CCCCC2

$$$$
