
     RDKit          3D

 29 31  0  0  0  0  0  0  0  0999 V2000
    8.9965    0.5639   -1.9801 C   0  0  0  0  0  0  0  0  0  0  0  0
    8.0591    1.2324   -1.1876 O   0  0  0  0  0  0  0  0  0  0  0  0
    6.8430    0.6221   -0.8209 C   0  0  0  0  0  0  0  0  0  0  0  0
    6.5102   -0.6359   -1.2088 C   0  0  0  0  0  0  0  0  0  0  0  0
    5.2806   -1.1533   -0.7937 C   0  0  0  0  0  0  0  0  0  0  0  0
    4.4450   -0.3987   -0.0167 C   0  0  0  0  0  0  0  0  0  0  0  0
    3.1703   -0.9449    0.4105 C   0  0  0  0  0  0  0  0  0  0  0  0
    2.8073   -2.2185    0.0398 C   0  0  0  0  0  0  0  0  0  0  0  0
    1.6076   -2.7603    0.4301 C   0  0  0  0  0  0  0  0  0  0  0  0
    0.7837   -1.9486    1.2195 C   0  0  0  0  0  0  0  0  0  0  0  0
   -0.7756   -2.5845    1.7616 S   0  0  0  0  0  0  0  0  0  0  0  0
   -1.6207   -1.3147    2.7330 C   0  0  0  0  0  0  0  0  0  0  0  0
   -1.9652   -0.1925    1.7962 C   0  0  0  0  0  0  0  0  0  0  0  0
   -1.0901    0.8521    1.6138 C   0  0  0  0  0  0  0  0  0  0  0  0
   -1.4158    1.8571    0.7624 C   0  0  0  0  0  0  0  0  0  0  0  0
   -2.6196    1.8523    0.0686 C   0  0  0  0  0  0  0  0  0  0  0  0
   -3.5125    0.8143    0.2364 C   0  0  0  0  0  0  0  0  0  0  0  0
   -4.7836    0.8059   -0.4961 C   0  0  0  0  0  0  0  0  0  0  0  0
   -5.0313    1.7479   -1.2784 O   0  0  0  0  0  0  0  0  0  0  0  0
   -5.7254   -0.2247   -0.3446 N   0  0  0  0  0  0  0  0  0  0  0  0
   -6.9920   -0.3808   -0.9683 C   0  0  0  0  0  0  0  0  0  0  0  0
   -8.0264    0.6396   -0.7332 C   0  0  0  0  0  0  0  0  0  0  0  0
   -7.6884    2.0239   -1.1608 C   0  0  0  0  0  0  0  0  0  0  0  0
   -8.4419    0.5990    0.7249 C   0  0  0  0  0  0  0  0  0  0  0  0
   -3.1649   -0.1951    1.1035 C   0  0  0  0  0  0  0  0  0  0  0  0
    1.1959   -0.7268    1.5416 N   0  0  0  0  0  0  0  0  0  0  0  0
    2.3395   -0.1964    1.1758 N   0  0  0  0  0  0  0  0  0  0  0  0
    4.8007    0.8647    0.3614 C   0  0  0  0  0  0  0  0  0  0  0  0
    6.0140    1.4007   -0.0366 C   0  0  0  0  0  0  0  0  0  0  0  0
  1  2  1  0
  2  3  1  0
  3  4  2  0
  4  5  1  0
  5  6  2  0
  6  7  1  0
  7  8  2  0
  8  9  1  0
  9 10  2  0
 10 11  1  0
 11 12  1  0
 12 13  1  0
 13 14  2  0
 14 15  1  0
 15 16  2  0
 16 17  1  0
 17 18  1  0
 18 19  2  0
 18 20  1  0
 20 21  1  0
 21 22  1  0
 22 23  1  0
 22 24  1  0
 17 25  2  0
 10 26  1  0
 26 27  2  0
  6 28  1  0
 28 29  2  0
 29  3  1  0
 27  7  1  0
 25 13  1  0
M  END
>  <zinc_id>  (1) 
ZINC000000737813

>  <smiles>  (1) 
COc1ccc(-c2ccc(SCc3cccc(C(=O)NCC(C)C)c3)nn2)cc1

$$$$
