
     RDKit          3D

 32 34  0  0  0  0  0  0  0  0999 V2000
   -5.8816   -1.4961   -3.7991 C   0  0  0  0  0  0  0  0  0  0  0  0
   -4.8803   -1.1082   -2.8991 O   0  0  0  0  0  0  0  0  0  0  0  0
   -4.9858   -1.2329   -1.5003 C   0  0  0  0  0  0  0  0  0  0  0  0
   -6.1356   -1.8221   -0.9502 C   0  0  0  0  0  0  0  0  0  0  0  0
   -6.2364   -1.9549    0.3946 C   0  0  0  0  0  0  0  0  0  0  0  0
   -5.1789   -1.4967    1.2148 C   0  0  0  0  0  0  0  0  0  0  0  0
   -5.3063   -1.6721    2.7222 C   0  0  0  0  0  0  0  0  0  0  0  0
   -4.0801   -0.9258    0.6608 C   0  0  0  0  0  0  0  0  0  0  0  0
   -3.9754   -0.7875   -0.7419 C   0  0  0  0  0  0  0  0  0  0  0  0
   -2.9013    0.0040   -1.1822 N   0  0  0  0  0  0  0  0  0  0  0  0
   -1.6895    0.0990   -0.6005 C   0  0  0  0  0  0  0  0  0  0  0  0
   -1.3482   -0.6358    0.3825 O   0  0  0  0  0  0  0  0  0  0  0  0
   -0.5744    1.0680   -0.9620 C   0  0  2  0  0  0  0  0  0  0  0  0
    0.6890    0.3624   -0.6793 O   0  0  0  0  0  0  0  0  0  0  0  0
    1.7103    0.7998    0.0861 C   0  0  0  0  0  0  0  0  0  0  0  0
    1.5729    1.8676    0.7839 O   0  0  0  0  0  0  0  0  0  0  0  0
    3.0170    0.1127    0.1281 C   0  0  0  0  0  0  0  0  0  0  0  0
    3.3278   -0.5521   -1.0278 C   0  0  0  0  0  0  0  0  0  0  0  0
    4.5493   -1.2316   -1.0968 C   0  0  0  0  0  0  0  0  0  0  0  0
    5.3723   -1.2013   -0.0104 C   0  0  0  0  0  0  0  0  0  0  0  0
    6.7226   -1.8270   -0.0869 C   0  0  0  0  0  0  0  0  0  0  0  0
    7.4171   -1.6032    1.2419 C   0  0  0  0  0  0  0  0  0  0  0  0
    7.5734   -1.2596   -1.1906 C   0  0  0  0  0  0  0  0  0  0  0  0
    6.5151   -3.3459   -0.2521 C   0  0  0  0  0  0  0  0  0  0  0  0
    5.0252   -0.5253    1.1427 C   0  0  0  0  0  0  0  0  0  0  0  0
    3.8017    0.1431    1.1874 C   0  0  0  0  0  0  0  0  0  0  0  0
   -0.6436    2.2587    0.0395 C   0  0  0  0  0  0  0  0  0  0  0  0
   -1.1365    2.1789    1.2444 C   0  0  0  0  0  0  0  0  0  0  0  0
   -1.2116    3.2854    2.0814 C   0  0  0  0  0  0  0  0  0  0  0  0
   -0.7354    4.5168    1.6025 C   0  0  0  0  0  0  0  0  0  0  0  0
   -0.2244    4.5390    0.3177 C   0  0  0  0  0  0  0  0  0  0  0  0
   -0.1688    3.4426   -0.4667 C   0  0  0  0  0  0  0  0  0  0  0  0
  1  2  1  0
  2  3  1  0
  3  4  2  0
  4  5  1  0
  5  6  2  0
  6  7  1  0
  6  8  1  0
  8  9  2  0
  9 10  1  0
 10 11  1  0
 11 12  2  0
 11 13  1  0
 13 14  1  1
 14 15  1  0
 15 16  2  0
 15 17  1  0
 17 18  2  0
 18 19  1  0
 19 20  2  0
 20 21  1  0
 21 22  1  0
 21 23  1  0
 21 24  1  0
 20 25  1  0
 25 26  2  0
 13 27  1  0
 27 28  2  0
 28 29  1  0
 29 30  2  0
 30 31  1  0
 31 32  2  0
  9  3  1  0
 26 17  1  0
 32 27  1  0
M  END
>  <zinc_id>  (1) 
ZINC000003319194

>  <smiles>  (1) 
COc1ccc(C)cc1NC(=O)[C@H](OC(=O)c1ccc(C(C)(C)C)cc1)c1ccccc1

$$$$
