
     RDKit          3D

 32 36  0  0  0  0  0  0  0  0999 V2000
    6.5296    0.2101    1.5688 C   0  0  0  0  0  0  0  0  0  0  0  0
    6.5207   -1.1741    1.3034 O   0  0  0  0  0  0  0  0  0  0  0  0
    5.3593   -1.8056    0.8666 C   0  0  0  0  0  0  0  0  0  0  0  0
    5.3291   -3.1594    0.6016 C   0  0  0  0  0  0  0  0  0  0  0  0
    4.1582   -3.7876    0.1636 C   0  0  0  0  0  0  0  0  0  0  0  0
    3.0090   -3.0525   -0.0101 C   0  0  0  0  0  0  0  0  0  0  0  0
    2.9956   -1.6914    0.2442 C   0  0  0  0  0  0  0  0  0  0  0  0
    1.7871   -0.8695    0.0613 C   0  0  0  0  0  0  0  0  0  0  0  0
    1.7364    0.4660    0.3956 C   0  0  0  0  0  0  0  0  0  0  0  0
    0.4527    0.9286    0.1145 C   0  0  0  0  0  0  0  0  0  0  0  0
   -0.1215    2.1447    0.2576 N   0  0  0  0  0  0  0  0  0  0  0  0
   -1.4060    2.3324   -0.0922 C   0  0  0  0  0  0  0  0  0  0  0  0
   -2.0015    3.6539    0.0887 C   0  0  0  0  0  0  0  0  0  0  0  0
   -1.2748    4.6863    0.6064 C   0  0  0  0  0  0  0  0  0  0  0  0
   -1.7956    5.9474    0.8050 C   0  0  0  0  0  0  0  0  0  0  0  0
   -3.1083    6.2180    0.4788 C   0  0  0  0  0  0  0  0  0  0  0  0
   -3.8616    5.1838   -0.0475 C   0  0  0  0  0  0  0  0  0  0  0  0
   -3.3135    3.9090   -0.2424 C   0  0  0  0  0  0  0  0  0  0  0  0
   -2.0638    1.2415   -0.5861 C   0  0  0  0  0  0  0  0  0  0  0  0
   -1.4946   -0.0213   -0.7424 C   0  0  0  0  0  0  0  0  0  0  0  0
   -2.2540   -1.0212   -1.2602 N   0  0  0  0  0  0  0  0  0  0  0  0
   -2.0391   -1.5795   -2.5853 C   0  0  0  0  0  0  0  0  0  0  0  0
   -1.8815   -3.0760   -2.5720 C   0  0  0  0  0  0  0  0  0  0  0  0
   -2.7242   -3.7580   -1.5226 C   0  0  0  0  0  0  0  0  0  0  0  0
   -2.5963   -3.0447   -0.1647 C   0  0  0  0  0  0  0  0  0  0  0  0
   -3.4611   -1.6976   -0.5454 C   0  0  1  0  0  0  0  0  0  0  0  0
   -3.3182   -0.9562    0.8989 C   0  0  0  0  0  0  0  0  0  0  0  0
   -2.0365   -1.2387    1.5185 C   0  0  0  0  0  0  0  0  0  0  0  0
   -1.7003   -2.5258    1.8122 O   0  0  0  0  0  0  0  0  0  0  0  0
   -0.1984   -0.1426   -0.3708 N   0  0  0  0  0  0  0  0  0  0  0  0
    0.5908   -1.2031   -0.4015 N   0  0  0  0  0  0  0  0  0  0  0  0
    4.1823   -1.1171    0.6763 C   0  0  0  0  0  0  0  0  0  0  0  0
  1  2  1  0
  2  3  1  0
  3  4  2  0
  4  5  1  0
  5  6  2  0
  6  7  1  0
  7  8  1  0
  8  9  1  0
  9 10  2  0
 10 11  1  0
 11 12  2  0
 12 13  1  0
 13 14  2  0
 14 15  1  0
 15 16  2  0
 16 17  1  0
 17 18  2  0
 12 19  1  0
 19 20  2  0
 20 21  1  0
 21 22  1  0
 22 23  1  0
 23 24  1  0
 24 25  1  0
 25 26  1  0
 26 27  1  1
 27 28  1  0
 28 29  1  0
 20 30  1  0
 30 31  1  0
  7 32  2  0
 32  3  1  0
 31  8  2  0
 30 10  1  0
 18 13  1  0
 26 21  1  0
M  END
>  <zinc_id>  (1) 
ZINC000001341425

>  <smiles>  (1) 
COc1cccc(-c2cc3nc(-c4ccccc4)cc(N4CCCC[C@H]4CCO)n3n2)c1

$$$$
