
     RDKit          3D

 33 36  0  0  0  0  0  0  0  0999 V2000
    5.6052    0.8534    2.6340 C   0  0  0  0  0  0  0  0  0  0  0  0
    4.7500    0.0772    1.6404 C   0  0  0  0  0  0  0  0  0  0  0  0
    5.5560   -1.0849    1.2240 N   0  0  0  0  0  0  0  0  0  0  0  0
    6.6643   -0.5025    0.4405 C   0  0  0  0  0  0  0  0  0  0  0  0
    7.5843   -1.5966   -0.0439 C   0  0  0  0  0  0  0  0  0  0  0  0
    4.7648   -1.9539    0.3539 C   0  0  0  0  0  0  0  0  0  0  0  0
    4.5022   -1.2599   -0.9754 C   0  0  0  0  0  0  0  0  0  0  0  0
    3.7896   -0.0657   -0.7658 O   0  0  0  0  0  0  0  0  0  0  0  0
    2.5263    0.0080   -0.1930 C   0  0  0  0  0  0  0  0  0  0  0  0
    1.7985   -1.0609    0.2370 C   0  0  0  0  0  0  0  0  0  0  0  0
    0.5371   -0.8921    0.8015 C   0  0  0  0  0  0  0  0  0  0  0  0
   -0.0098    0.3621    0.9394 C   0  0  0  0  0  0  0  0  0  0  0  0
   -1.3682    0.6068    1.5437 C   0  0  0  0  0  0  0  0  0  0  0  0
   -2.3276    0.7765    0.4240 C   0  0  0  0  0  0  0  0  0  0  0  0
   -2.8056   -0.3253   -0.2373 C   0  0  0  0  0  0  0  0  0  0  0  0
   -2.4581   -1.7005    0.1094 C   0  0  0  0  0  0  0  0  0  0  0  0
   -2.0882   -2.5829   -0.8824 C   0  0  0  0  0  0  0  0  0  0  0  0
   -1.7609   -3.8903   -0.6047 C   0  0  0  0  0  0  0  0  0  0  0  0
   -1.7873   -4.3880    0.6832 C   0  0  0  0  0  0  0  0  0  0  0  0
   -1.4580   -5.7150    0.9631 O   0  0  0  0  0  0  0  0  0  0  0  0
   -2.1560   -3.5106    1.6778 C   0  0  0  0  0  0  0  0  0  0  0  0
   -2.4837   -2.1990    1.4021 C   0  0  0  0  0  0  0  0  0  0  0  0
   -3.6890   -0.0787   -1.2960 C   0  0  0  0  0  0  0  0  0  0  0  0
   -4.0631    1.1936   -1.6603 C   0  0  0  0  0  0  0  0  0  0  0  0
   -3.5759    2.3006   -0.9860 C   0  0  0  0  0  0  0  0  0  0  0  0
   -3.9542    3.5782   -1.3547 C   0  0  0  0  0  0  0  0  0  0  0  0
   -3.4643    4.6926   -0.6758 C   0  0  0  0  0  0  0  0  0  0  0  0
   -3.8444    5.9639   -1.0464 O   0  0  0  0  0  0  0  0  0  0  0  0
   -2.5978    4.4458    0.3630 C   0  0  0  0  0  0  0  0  0  0  0  0
   -2.2180    3.1718    0.7332 C   0  0  0  0  0  0  0  0  0  0  0  0
   -2.7085    2.0734    0.0547 C   0  0  0  0  0  0  0  0  0  0  0  0
    0.7507    1.4393    0.4942 C   0  0  0  0  0  0  0  0  0  0  0  0
    1.9896    1.2639   -0.0582 C   0  0  0  0  0  0  0  0  0  0  0  0
  1  2  1  0
  2  3  1  0
  3  4  1  0
  4  5  1  0
  3  6  1  0
  6  7  1  0
  7  8  1  0
  8  9  1  0
  9 10  2  0
 10 11  1  0
 11 12  2  0
 12 13  1  0
 13 14  1  0
 14 15  1  0
 15 16  1  0
 16 17  2  0
 17 18  1  0
 18 19  2  0
 19 20  1  0
 19 21  1  0
 21 22  2  0
 15 23  2  0
 23 24  1  0
 24 25  2  0
 25 26  1  0
 26 27  2  0
 27 28  1  0
 27 29  1  0
 29 30  2  0
 30 31  1  0
 12 32  1  0
 32 33  2  0
 33  9  1  0
 31 14  2  0
 22 16  1  0
 31 25  1  0
M  END
>  <zinc_id>  (1) 
ZINC000001543843

>  <smiles>  (1) 
CCN(CC)CCOc1ccc(Cc2c(-c3ccc(O)cc3)ccc3cc(O)ccc23)cc1

$$$$
