
     RDKit          3D

 30 32  0  0  0  0  0  0  0  0999 V2000
   -3.2705   -1.5855    0.1117 C   0  0  0  0  0  0  0  0  0  0  0  0
   -3.7178   -0.4418   -0.8127 C   0  0  0  0  0  0  0  0  0  0  0  0
   -3.7113    0.7820    0.0236 C   0  0  0  0  0  0  0  0  0  0  0  0
   -4.9260    1.2683    0.5271 C   0  0  0  0  0  0  0  0  0  0  0  0
   -4.9436    2.3864    1.3240 C   0  0  0  0  0  0  0  0  0  0  0  0
   -3.7625    3.0255    1.6252 C   0  0  0  0  0  0  0  0  0  0  0  0
   -2.5514    2.5387    1.1217 C   0  0  0  0  0  0  0  0  0  0  0  0
   -1.2723    3.2155    1.4553 C   0  0  0  0  0  0  0  0  0  0  0  0
   -0.6341    2.3459    2.5483 C   0  0  0  0  0  0  0  0  0  0  0  0
   -2.5386    1.4186    0.3228 C   0  0  0  0  0  0  0  0  0  0  0  0
   -1.3216    0.9164   -0.2443 N   0  0  0  0  0  0  0  0  0  0  0  0
   -0.9428    1.5284   -1.4751 C   0  0  0  0  0  0  0  0  0  0  0  0
   -1.6957    2.4601   -1.9692 O   0  0  0  0  0  0  0  0  0  0  0  0
    0.2365    1.2213   -2.2790 C   0  0  0  0  0  0  0  0  0  0  0  0
    0.9934    0.1868   -1.7295 O   0  0  0  0  0  0  0  0  0  0  0  0
    0.4641   -1.0441   -1.5203 C   0  0  0  0  0  0  0  0  0  0  0  0
   -0.7561   -1.2039   -1.8340 O   0  0  0  0  0  0  0  0  0  0  0  0
    1.1893   -2.1892   -0.9710 C   0  0  0  0  0  0  0  0  0  0  0  0
    0.4910   -3.3808   -0.7987 C   0  0  0  0  0  0  0  0  0  0  0  0
    1.1223   -4.5041   -0.3549 C   0  0  0  0  0  0  0  0  0  0  0  0
    2.4599   -4.4871   -0.0679 C   0  0  0  0  0  0  0  0  0  0  0  0
    3.1717   -3.3346   -0.2251 C   0  0  0  0  0  0  0  0  0  0  0  0
    2.5095   -2.1748   -0.6842 C   0  0  0  0  0  0  0  0  0  0  0  0
    3.3253   -0.9392   -0.7560 C   0  0  0  0  0  0  0  0  0  0  0  0
    3.2916   -0.2565    0.5593 C   0  0  0  0  0  0  0  0  0  0  0  0
    2.5051    0.7969    0.8946 C   0  0  0  0  0  0  0  0  0  0  0  0
    2.5464    1.3765    2.1425 C   0  0  0  0  0  0  0  0  0  0  0  0
    3.3872    0.9278    3.1358 C   0  0  0  0  0  0  0  0  0  0  0  0
    4.2002   -0.1431    2.8258 C   0  0  0  0  0  0  0  0  0  0  0  0
    4.1509   -0.7105    1.5838 C   0  0  0  0  0  0  0  0  0  0  0  0
  1  2  1  0
  2  3  1  0
  3  4  2  0
  4  5  1  0
  5  6  2  0
  6  7  1  0
  7  8  1  0
  8  9  1  0
  7 10  2  0
 10 11  1  0
 11 12  1  0
 12 13  2  0
 12 14  1  0
 14 15  1  0
 15 16  1  0
 16 17  2  0
 16 18  1  0
 18 19  2  0
 19 20  1  0
 20 21  2  0
 21 22  1  0
 22 23  2  0
 23 24  1  0
 24 25  1  0
 25 26  2  0
 26 27  1  0
 27 28  2  0
 28 29  1  0
 29 30  2  0
 10  3  1  0
 23 18  1  0
 30 25  1  0
M  END
>  <zinc_id>  (1) 
ZINC000003216375

>  <smiles>  (1) 
CCc1cccc(CC)c1NC(=O)COC(=O)c1ccccc1Cc1ccccc1

$$$$
