
     RDKit          3D

 32 36  0  0  0  0  0  0  0  0999 V2000
   -6.9635   -1.0445   -1.2729 C   0  0  0  0  0  0  0  0  0  0  0  0
   -5.8451   -0.3880   -2.0658 C   0  0  0  0  0  0  0  0  0  0  0  0
   -5.0362    0.2966   -1.1434 O   0  0  0  0  0  0  0  0  0  0  0  0
   -4.3740   -0.3237   -0.0932 C   0  0  0  0  0  0  0  0  0  0  0  0
   -5.0531   -0.4266    1.1159 C   0  0  0  0  0  0  0  0  0  0  0  0
   -6.3374    0.0929    1.1927 O   0  0  0  0  0  0  0  0  0  0  0  0
   -7.0960    0.0283    2.3872 C   0  0  0  0  0  0  0  0  0  0  0  0
   -4.4100   -1.0398    2.1702 C   0  0  0  0  0  0  0  0  0  0  0  0
   -3.1171   -1.5376    2.0151 C   0  0  0  0  0  0  0  0  0  0  0  0
   -2.4513   -1.4310    0.8118 C   0  0  0  0  0  0  0  0  0  0  0  0
   -3.1042   -0.8308   -0.1900 C   0  0  0  0  0  0  0  0  0  0  0  0
   -2.3790   -0.6894   -1.6233 C   0  0  1  0  0  0  0  0  0  0  0  0
   -2.8839    0.7953   -1.8538 N   0  0  0  0  0  0  0  0  0  0  0  0
   -1.9688    1.4351   -2.7294 C   0  0  0  0  0  0  0  0  0  0  0  0
   -0.9601    2.0348   -1.7605 C   0  0  0  0  0  0  0  0  0  0  0  0
   -0.3511    0.8564   -1.1360 C   0  0  0  0  0  0  0  0  0  0  0  0
   -0.9202   -0.3095   -1.0584 C   0  0  0  0  0  0  0  0  0  0  0  0
   -0.1333   -1.1848   -0.4403 N   0  0  0  0  0  0  0  0  0  0  0  0
    1.0141   -0.5828   -0.0869 C   0  0  0  0  0  0  0  0  0  0  0  0
    2.1556   -1.0111    0.5643 C   0  0  0  0  0  0  0  0  0  0  0  0
    3.2049   -0.1294    0.7908 C   0  0  0  0  0  0  0  0  0  0  0  0
    3.1088    1.1725    0.3668 C   0  0  0  0  0  0  0  0  0  0  0  0
    4.1518    2.0605    0.5887 O   0  0  0  0  0  0  0  0  0  0  0  0
    5.3490    1.7599    1.2276 C   0  0  0  0  0  0  0  0  0  0  0  0
    6.1599    0.7070    0.6000 C   0  0  0  0  0  0  0  0  0  0  0  0
    7.0746    0.9880   -0.3949 C   0  0  0  0  0  0  0  0  0  0  0  0
    7.8236   -0.0233   -0.9642 C   0  0  0  0  0  0  0  0  0  0  0  0
    7.6840   -1.3428   -0.5599 C   0  0  0  0  0  0  0  0  0  0  0  0
    6.7806   -1.6278    0.4241 C   0  0  0  0  0  0  0  0  0  0  0  0
    6.0390   -0.6115    0.9848 C   0  0  0  0  0  0  0  0  0  0  0  0
    1.9545    1.5640   -0.2795 C   0  0  0  0  0  0  0  0  0  0  0  0
    0.8841    0.7430   -0.5335 C   0  0  0  0  0  0  0  0  0  0  0  0
  1  2  1  0
  2  3  1  0
  3  4  1  0
  4  5  2  0
  5  6  1  0
  6  7  1  0
  5  8  1  0
  8  9  2  0
  9 10  1  0
 10 11  2  0
 12 11  1  1
 12 13  1  0
 13 14  1  0
 14 15  1  0
 15 16  1  0
 16 17  2  0
 17 18  1  0
 18 19  1  0
 19 20  2  0
 20 21  1  0
 21 22  2  0
 22 23  1  0
 23 24  1  0
 24 25  1  0
 25 26  2  0
 26 27  1  0
 27 28  2  0
 28 29  1  0
 29 30  2  0
 22 31  1  0
 31 32  2  0
 11  4  1  0
 17 12  1  0
 32 19  1  0
 32 16  1  0
 30 25  1  0
M  END
>  <zinc_id>  (1) 
ZINC000003738978

>  <smiles>  (1) 
CCOc1c(OC)cccc1[C@H]1NCCc2c1[nH]c1ccc(OCc3ccccc3)cc21

$$$$
