
     RDKit          3D

 33 36  0  0  0  0  0  0  0  0999 V2000
   -6.8160    4.9397   -0.4119 C   0  0  0  0  0  0  0  0  0  0  0  0
   -7.2875    3.6223   -0.2084 O   0  0  0  0  0  0  0  0  0  0  0  0
   -6.3209    2.6147   -0.1202 C   0  0  0  0  0  0  0  0  0  0  0  0
   -6.7280    1.3138    0.0777 C   0  0  0  0  0  0  0  0  0  0  0  0
   -5.8453    0.2598    0.1765 C   0  0  0  0  0  0  0  0  0  0  0  0
   -4.4925    0.5045    0.0744 C   0  0  0  0  0  0  0  0  0  0  0  0
   -3.5028   -0.5778    0.1717 C   0  0  0  0  0  0  0  0  0  0  0  0
   -2.1665   -0.2570    0.0601 C   0  0  0  0  0  0  0  0  0  0  0  0
   -1.2371   -1.2733    0.1515 C   0  0  0  0  0  0  0  0  0  0  0  0
    0.1884   -1.0224    0.0449 C   0  0  0  0  0  0  0  0  0  0  0  0
    1.0046   -1.6644    0.7424 O   0  0  0  0  0  0  0  0  0  0  0  0
    0.6984   -0.0433   -0.8521 N   0  0  0  0  0  0  0  0  0  0  0  0
    2.0862    0.2626   -1.0154 C   0  0  0  0  0  0  0  0  0  0  0  0
    2.6373    0.7324    0.3105 C   0  0  0  0  0  0  0  0  0  0  0  0
    4.0772    1.0432    0.1146 C   0  0  0  0  0  0  0  0  0  0  0  0
    4.4506    2.2979   -0.2532 C   0  0  0  0  0  0  0  0  0  0  0  0
    5.7904    2.6435   -0.4508 C   0  0  0  0  0  0  0  0  0  0  0  0
    6.7551    1.6757   -0.2646 C   0  0  0  0  0  0  0  0  0  0  0  0
    8.0911    1.9968   -0.4552 O   0  0  0  0  0  0  0  0  0  0  0  0
    8.4671    3.2859   -0.8325 C   0  0  0  0  0  0  0  0  0  0  0  0
    6.3977    0.3865    0.1113 C   0  0  0  0  0  0  0  0  0  0  0  0
    7.3822   -0.5636    0.2911 O   0  0  0  0  0  0  0  0  0  0  0  0
    6.9970   -1.8770    0.6757 C   0  0  0  0  0  0  0  0  0  0  0  0
    5.0470    0.0840    0.2980 C   0  0  0  0  0  0  0  0  0  0  0  0
   -1.7088   -2.5554    0.3501 C   0  0  0  0  0  0  0  0  0  0  0  0
   -0.7985   -3.5806    0.4437 C   0  0  0  0  0  0  0  0  0  0  0  0
   -1.1555   -4.8981    0.6414 C   0  0  0  0  0  0  0  0  0  0  0  0
   -2.5100   -5.1753    0.7479 C   0  0  0  0  0  0  0  0  0  0  0  0
   -3.4552   -4.1568    0.6571 C   0  0  0  0  0  0  0  0  0  0  0  0
   -3.0437   -2.8569    0.4590 C   0  0  0  0  0  0  0  0  0  0  0  0
   -3.9270   -1.8394    0.3652 N   0  0  0  0  0  0  0  0  0  0  0  0
   -4.1011    1.8100   -0.1233 C   0  0  0  0  0  0  0  0  0  0  0  0
   -4.9737    2.8680   -0.2232 C   0  0  0  0  0  0  0  0  0  0  0  0
  1  2  1  0
  2  3  1  0
  3  4  2  0
  4  5  1  0
  5  6  2  0
  6  7  1  0
  7  8  2  0
  8  9  1  0
  9 10  1  0
 10 11  2  0
 10 12  1  0
 12 13  1  0
 13 14  1  0
 14 15  1  0
 15 16  2  0
 16 17  1  0
 17 18  2  0
 18 19  1  0
 19 20  1  0
 18 21  1  0
 21 22  1  0
 22 23  1  0
 21 24  2  0
  9 25  2  0
 25 26  1  0
 26 27  2  0
 27 28  1  0
 28 29  2  0
 29 30  1  0
 30 31  2  0
  6 32  1  0
 32 33  2  0
 33  3  1  0
 31  7  1  0
 24 15  1  0
 30 25  1  0
M  END
>  <zinc_id>  (1) 
ZINC000000677351

>  <smiles>  (1) 
COc1ccc(-c2cc(C(=O)NCCc3ccc(OC)c(OC)c3)c3ccccc3n2)cc1

$$$$
