
     RDKit          3D

 31 34  0  0  0  0  0  0  0  0999 V2000
    6.5149   -0.9216   -2.8288 C   0  0  0  0  0  0  0  0  0  0  0  0
    6.1488   -0.9891   -1.3638 C   0  0  0  0  0  0  0  0  0  0  0  0
    7.3951   -0.6459   -0.5693 C   0  0  0  0  0  0  0  0  0  0  0  0
    5.6373   -2.3872   -1.0001 C   0  0  0  0  0  0  0  0  0  0  0  0
    5.2769   -2.4349    0.4662 C   0  0  0  0  0  0  0  0  0  0  0  0
    4.2417   -1.4790    0.8089 N   0  0  0  0  0  0  0  0  0  0  0  0
    2.9552   -1.4845    0.2385 C   0  0  0  0  0  0  0  0  0  0  0  0
    2.6515   -2.3499   -0.6175 O   0  0  0  0  0  0  0  0  0  0  0  0
    1.9277   -0.5100    0.6000 C   0  0  0  0  0  0  0  0  0  0  0  0
    2.1687    0.4836    1.5355 C   0  0  0  0  0  0  0  0  0  0  0  0
    1.2404    1.4271    1.9149 C   0  0  0  0  0  0  0  0  0  0  0  0
   -0.0151    1.3754    1.3195 C   0  0  0  0  0  0  0  0  0  0  0  0
   -0.3184    0.4114    0.3812 C   0  0  0  0  0  0  0  0  0  0  0  0
    0.6708   -0.5227    0.0365 C   0  0  0  0  0  0  0  0  0  0  0  0
   -1.5250    0.1903   -0.3378 N   0  0  0  0  0  0  0  0  0  0  0  0
   -1.7406   -1.1723   -0.7644 C   0  0  0  0  0  0  0  0  0  0  0  0
   -2.4668   -1.9920    0.2040 C   0  0  0  0  0  0  0  0  0  0  0  0
   -3.8400   -2.1222    0.2396 C   0  0  0  0  0  0  0  0  0  0  0  0
   -4.5056   -2.8959    1.1556 C   0  0  0  0  0  0  0  0  0  0  0  0
   -3.7914   -3.5860    2.0955 C   0  0  0  0  0  0  0  0  0  0  0  0
   -2.4303   -3.4861    2.0969 C   0  0  0  0  0  0  0  0  0  0  0  0
   -1.7567   -2.6964    1.1615 C   0  0  0  0  0  0  0  0  0  0  0  0
   -2.5542    1.0905   -0.7084 C   0  0  0  0  0  0  0  0  0  0  0  0
   -3.5394    0.6390   -1.3560 O   0  0  0  0  0  0  0  0  0  0  0  0
   -2.6774    2.5386   -0.4541 C   0  0  0  0  0  0  0  0  0  0  0  0
   -3.4405    3.2043   -1.3793 C   0  0  0  0  0  0  0  0  0  0  0  0
   -3.6316    4.5609   -1.2565 C   0  0  0  0  0  0  0  0  0  0  0  0
   -3.0857    5.2795   -0.2386 C   0  0  0  0  0  0  0  0  0  0  0  0
   -2.3098    4.5851    0.6970 C   0  0  0  0  0  0  0  0  0  0  0  0
   -2.1125    3.2245    0.5821 C   0  0  0  0  0  0  0  0  0  0  0  0
   -1.0878    2.6653    1.9297 S   0  0  0  0  0  0  0  0  0  0  0  0
  1  2  1  0
  2  3  1  0
  2  4  1  0
  4  5  1  0
  5  6  1  0
  6  7  1  0
  7  8  2  0
  7  9  1  0
  9 10  2  0
 10 11  1  0
 11 12  2  0
 12 13  1  0
 13 14  2  0
 13 15  1  0
 15 16  1  0
 16 17  1  0
 17 18  2  0
 18 19  1  0
 19 20  2  0
 20 21  1  0
 21 22  2  0
 15 23  1  0
 23 24  2  0
 23 25  1  0
 25 26  2  0
 26 27  1  0
 27 28  2  0
 28 29  1  0
 29 30  2  0
 30 31  1  0
 14  9  1  0
 22 17  1  0
 30 25  1  0
 31 12  1  0
M  END
>  <zinc_id>  (1) 
ZINC000003040819

>  <smiles>  (1) 
CC(C)CCNC(=O)c1ccc2c(c1)N(Cc1ccccc1)C(=O)c1ccccc1S2

$$$$
