
     RDKit          3D

 30 33  0  0  0  0  0  0  0  0999 V2000
    7.7691    1.0381    1.3489 C   0  0  0  0  0  0  0  0  0  0  0  0
    7.8604   -0.0588    0.2419 C   0  0  0  0  0  0  0  0  0  0  0  0
    8.7177   -1.1389    0.8338 C   0  0  0  0  0  0  0  0  0  0  0  0
    8.4398    0.5837   -0.9772 C   0  0  0  0  0  0  0  0  0  0  0  0
    6.4597   -0.5759    0.0394 C   0  0  0  0  0  0  0  0  0  0  0  0
    5.5868   -0.3247   -1.0245 C   0  0  0  0  0  0  0  0  0  0  0  0
    4.4474   -0.9846   -0.8116 C   0  0  0  0  0  0  0  0  0  0  0  0
    3.1297   -1.1178   -1.5332 C   0  0  0  0  0  0  0  0  0  0  0  0
    2.9280   -1.9362   -2.3950 O   0  0  0  0  0  0  0  0  0  0  0  0
    2.1498   -0.2184   -1.1299 N   0  0  0  0  0  0  0  0  0  0  0  0
    0.8608   -0.0736   -1.5120 N   0  0  0  0  0  0  0  0  0  0  0  0
    0.0219    0.2866   -0.6471 C   0  0  0  0  0  0  0  0  0  0  0  0
   -1.3518    0.5702   -0.5336 C   0  0  0  0  0  0  0  0  0  0  0  0
   -2.3402    0.6065   -1.4538 C   0  0  0  0  0  0  0  0  0  0  0  0
   -3.5009    0.9959   -0.8340 N   0  0  0  0  0  0  0  0  0  0  0  0
   -4.7641    1.2630   -1.5323 C   0  0  0  0  0  0  0  0  0  0  0  0
   -5.7590    0.2447   -1.0915 C   0  0  0  0  0  0  0  0  0  0  0  0
   -5.4530   -1.0466   -0.7768 C   0  0  0  0  0  0  0  0  0  0  0  0
   -6.4256   -1.9224   -0.3416 C   0  0  0  0  0  0  0  0  0  0  0  0
   -7.7218   -1.4396   -0.2308 C   0  0  0  0  0  0  0  0  0  0  0  0
   -8.0366   -0.1455   -0.5463 C   0  0  0  0  0  0  0  0  0  0  0  0
   -7.0799    0.6989   -0.9718 C   0  0  0  0  0  0  0  0  0  0  0  0
   -3.2196    1.1852    0.4354 C   0  0  0  0  0  0  0  0  0  0  0  0
   -4.0596    1.5393    1.5049 C   0  0  0  0  0  0  0  0  0  0  0  0
   -3.5346    1.6326    2.7817 C   0  0  0  0  0  0  0  0  0  0  0  0
   -2.1967    1.3884    3.0406 C   0  0  0  0  0  0  0  0  0  0  0  0
   -1.3797    1.0372    1.9726 C   0  0  0  0  0  0  0  0  0  0  0  0
   -1.9283    0.9555    0.7330 C   0  0  0  0  0  0  0  0  0  0  0  0
    4.5855   -1.6498    0.3705 N   0  0  0  0  0  0  0  0  0  0  0  0
    5.7949   -1.3928    0.8638 N   0  0  0  0  0  0  0  0  0  0  0  0
  1  2  1  0
  2  3  1  0
  2  4  1  0
  2  5  1  0
  5  6  1  0
  6  7  2  0
  7  8  1  0
  8  9  2  0
  8 10  1  0
 10 11  1  0
 11 12  2  0
 12 13  1  0
 13 14  2  0
 14 15  1  0
 15 16  1  0
 16 17  1  0
 17 18  2  0
 18 19  1  0
 19 20  2  0
 20 21  1  0
 21 22  2  0
 15 23  1  0
 23 24  2  0
 24 25  1  0
 25 26  2  0
 26 27  1  0
 27 28  2  0
  7 29  1  0
 29 30  1  0
 30  5  2  0
 28 13  1  0
 22 17  1  0
 28 23  1  0
M  END
>  <zinc_id>  (1) 
ZINC000001084693

>  <smiles>  (1) 
CC(C)(C)c1cc(C(=O)N/N=C/c2cn(Cc3ccccc3)c3ccccc23)[nH]n1

$$$$
