
     RDKit          3D

 30 33  0  0  0  0  0  0  0  0999 V2000
    5.1441    0.5628   -1.8965 C   0  0  0  0  0  0  0  0  0  0  0  0
    5.0721    1.6457   -0.7114 C   0  0  2  0  0  0  0  0  0  0  0  0
    6.6554    1.9656   -0.7006 C   0  0  0  0  0  0  0  0  0  0  0  0
    7.4501    0.8765   -0.2037 C   0  0  0  0  0  0  0  0  0  0  0  0
    6.9952   -0.5072   -0.3280 C   0  0  0  0  0  0  0  0  0  0  0  0
    5.5770   -0.7587    0.0492 C   0  0  0  0  0  0  0  0  0  0  0  0
    5.0808    0.6596    0.6831 C   0  0  2  0  0  0  0  0  0  0  0  0
    3.5247    0.4315    0.6195 N   0  0  0  0  0  0  0  0  0  0  0  0
    2.9940   -0.8215    0.5772 C   0  0  0  0  0  0  0  0  0  0  0  0
    3.7996   -1.7928    0.5926 O   0  0  0  0  0  0  0  0  0  0  0  0
    1.5546   -1.0272    0.5155 C   0  0  0  0  0  0  0  0  0  0  0  0
    1.1108   -2.4090    0.5106 C   0  0  0  0  0  0  0  0  0  0  0  0
    0.7729   -3.5250    0.5297 N   0  0  0  0  0  0  0  0  0  0  0  0
    0.6574   -0.0796    0.4966 C   0  0  0  0  0  0  0  0  0  0  0  0
   -0.7807   -0.2817    0.4303 C   0  0  0  0  0  0  0  0  0  0  0  0
   -1.7317    0.3214    1.2614 C   0  0  0  0  0  0  0  0  0  0  0  0
   -2.9452   -0.0955    0.8722 N   0  0  0  0  0  0  0  0  0  0  0  0
   -4.2173    0.2493    1.4385 C   0  0  0  0  0  0  0  0  0  0  0  0
   -4.8127    1.4362    0.7780 C   0  0  0  0  0  0  0  0  0  0  0  0
   -4.5615    2.7035    1.2498 C   0  0  0  0  0  0  0  0  0  0  0  0
   -5.1502    3.7746    0.5935 C   0  0  0  0  0  0  0  0  0  0  0  0
   -5.9606    3.5836   -0.4956 C   0  0  0  0  0  0  0  0  0  0  0  0
   -6.2186    2.3072   -0.9776 C   0  0  0  0  0  0  0  0  0  0  0  0
   -5.6255    1.2773   -0.3104 C   0  0  0  0  0  0  0  0  0  0  0  0
   -2.8369   -0.9442   -0.1774 C   0  0  0  0  0  0  0  0  0  0  0  0
   -3.7526   -1.6319   -0.9424 C   0  0  0  0  0  0  0  0  0  0  0  0
   -3.2947   -2.4243   -1.9723 C   0  0  0  0  0  0  0  0  0  0  0  0
   -1.9551   -2.5581   -2.2709 C   0  0  0  0  0  0  0  0  0  0  0  0
   -1.0699   -1.8696   -1.5018 C   0  0  0  0  0  0  0  0  0  0  0  0
   -1.4756   -1.0683   -0.4648 C   0  0  0  0  0  0  0  0  0  0  0  0
  2  1  1  6
  2  3  1  0
  3  4  1  0
  4  5  1  0
  5  6  1  0
  6  7  1  0
  7  8  1  6
  8  9  1  0
  9 10  2  0
  9 11  1  0
 11 12  1  0
 12 13  3  0
 11 14  2  0
 14 15  1  0
 15 16  2  0
 16 17  1  0
 17 18  1  0
 18 19  1  0
 19 20  2  0
 20 21  1  0
 21 22  2  0
 22 23  1  0
 23 24  2  0
 17 25  1  0
 25 26  2  0
 26 27  1  0
 27 28  2  0
 28 29  1  0
 29 30  2  0
  7  2  1  0
 30 15  1  0
 24 19  1  0
 30 25  1  0
M  END
>  <zinc_id>  (1) 
ZINC000004106552

>  <smiles>  (1) 
C[C@@H]1CCCC[C@@H]1NC(=O)/C(C#N)=C/c1cn(Cc2ccccc2)c2ccccc12

$$$$
