
     RDKit          3D

 30 33  0  0  0  0  0  0  0  0999 V2000
    3.3286   -0.7113    4.2910 C   0  0  0  0  0  0  0  0  0  0  0  0
    3.4457   -0.5032    2.8152 C   0  0  0  0  0  0  0  0  0  0  0  0
    2.4108   -0.5045    1.8911 C   0  0  0  0  0  0  0  0  0  0  0  0
    2.9506   -0.2615    0.6338 C   0  0  0  0  0  0  0  0  0  0  0  0
    2.2060   -0.1330   -0.5984 N   0  0  0  0  0  0  0  0  0  0  0  0
    0.7973   -0.1953   -0.5931 C   0  0  0  0  0  0  0  0  0  0  0  0
    0.2013   -0.3888    0.4824 O   0  0  0  0  0  0  0  0  0  0  0  0
   -0.0426   -0.0263   -1.8425 C   0  0  0  0  0  0  0  0  0  0  0  0
   -1.4468    1.0183   -1.3602 S   0  0  0  0  0  0  0  0  0  0  0  0
   -2.6603    0.2247   -0.3530 C   0  0  0  0  0  0  0  0  0  0  0  0
   -2.7257   -0.0491    0.9532 N   0  0  0  0  0  0  0  0  0  0  0  0
   -3.9280   -0.5626    1.2949 C   0  0  0  0  0  0  0  0  0  0  0  0
   -4.5270   -0.9825    2.4712 C   0  0  0  0  0  0  0  0  0  0  0  0
   -5.8384   -1.4383    2.4292 C   0  0  0  0  0  0  0  0  0  0  0  0
   -6.5783   -1.4932    1.2798 C   0  0  0  0  0  0  0  0  0  0  0  0
   -5.9802   -1.0745    0.0948 C   0  0  0  0  0  0  0  0  0  0  0  0
   -4.6516   -0.6138    0.1407 C   0  0  0  0  0  0  0  0  0  0  0  0
   -3.8763   -0.1361   -0.8439 N   0  0  0  0  0  0  0  0  0  0  0  0
   -4.3414    0.0164   -2.2308 C   0  0  0  0  0  0  0  0  0  0  0  0
   -4.8876    1.3893   -2.3186 C   0  0  0  0  0  0  0  0  0  0  0  0
   -5.4376    1.8815   -3.5765 C   0  0  0  0  0  0  0  0  0  0  0  0
   -4.7070    2.2841   -1.1778 C   0  0  0  0  0  0  0  0  0  0  0  0
    4.2521   -0.1230    0.7911 N   0  0  0  0  0  0  0  0  0  0  0  0
    5.2518    0.1382   -0.1971 C   0  0  0  0  0  0  0  0  0  0  0  0
    5.5475    1.4380   -0.5837 C   0  0  0  0  0  0  0  0  0  0  0  0
    6.5489    1.6369   -1.5217 C   0  0  0  0  0  0  0  0  0  0  0  0
    7.2363    0.5548   -2.0557 C   0  0  0  0  0  0  0  0  0  0  0  0
    6.9460   -0.7187   -1.6755 C   0  0  0  0  0  0  0  0  0  0  0  0
    5.9487   -0.9059   -0.7452 C   0  0  0  0  0  0  0  0  0  0  0  0
    4.5574   -0.2684    2.1051 N   0  0  0  0  0  0  0  0  0  0  0  0
  1  2  1  0
  2  3  1  0
  3  4  2  0
  4  5  1  0
  5  6  1  0
  6  7  2  0
  6  8  1  0
  8  9  1  0
  9 10  1  0
 10 11  2  0
 11 12  1  0
 12 13  2  0
 13 14  1  0
 14 15  2  0
 15 16  1  0
 16 17  2  0
 17 18  1  0
 18 19  1  0
 19 20  1  0
 20 21  1  0
 20 22  1  0
  4 23  1  0
 23 24  1  0
 24 25  2  0
 25 26  1  0
 26 27  2  0
 27 28  1  0
 28 29  2  0
 23 30  1  0
 30  2  2  0
 18 10  1  0
 29 24  1  0
 17 12  1  0
M  END
>  <zinc_id>  (1) 
ZINC000004400918

>  <smiles>  (1) 
Cc1cc(NC(=O)CSc2nc3ccccc3n2CC(C)C)n(-c2ccccc2)n1

$$$$
