
     RDKit          3D

 31 34  0  0  0  0  0  0  0  0999 V2000
   -8.3398    2.7346   -0.6607 C   0  0  0  0  0  0  0  0  0  0  0  0
   -6.9159    2.4033   -0.3369 C   0  0  0  0  0  0  0  0  0  0  0  0
   -6.6267    1.1314   -0.8772 O   0  0  0  0  0  0  0  0  0  0  0  0
   -5.3785    0.5667   -0.7314 C   0  0  0  0  0  0  0  0  0  0  0  0
   -5.1199   -0.6751   -1.2670 C   0  0  0  0  0  0  0  0  0  0  0  0
   -3.8811   -1.2315   -1.1202 C   0  0  0  0  0  0  0  0  0  0  0  0
   -2.8130   -0.6164   -0.4427 C   0  0  0  0  0  0  0  0  0  0  0  0
   -1.5499   -1.3124   -0.2997 C   0  0  0  0  0  0  0  0  0  0  0  0
   -1.5581   -2.5270   -0.7353 O   0  0  0  0  0  0  0  0  0  0  0  0
   -0.3379   -0.9094    0.2258 N   0  0  0  0  0  0  0  0  0  0  0  0
    0.7114   -1.7698    0.5700 C   0  0  0  0  0  0  0  0  0  0  0  0
    0.3980   -3.1401    0.4361 C   0  0  0  0  0  0  0  0  0  0  0  0
    1.3100   -4.1146    0.7712 C   0  0  0  0  0  0  0  0  0  0  0  0
    2.5460   -3.7287    1.2440 C   0  0  0  0  0  0  0  0  0  0  0  0
    2.8535   -2.3842    1.3745 C   0  0  0  0  0  0  0  0  0  0  0  0
    1.8945   -1.4548    1.0207 C   0  0  0  0  0  0  0  0  0  0  0  0
    2.3456    0.0719    1.1868 C   0  0  1  0  0  0  0  0  0  0  0  0
    3.6952   -0.1164    0.3901 N   0  0  0  0  0  0  0  0  0  0  0  0
    4.4959    1.0146    0.2554 C   0  0  0  0  0  0  0  0  0  0  0  0
    5.6854    0.8967   -0.4337 C   0  0  0  0  0  0  0  0  0  0  0  0
    6.4707    2.0107   -0.5645 C   0  0  0  0  0  0  0  0  0  0  0  0
    6.0917    3.2028   -0.0310 C   0  0  0  0  0  0  0  0  0  0  0  0
    4.9052    3.3352    0.6604 C   0  0  0  0  0  0  0  0  0  0  0  0
    4.1185    2.2026    0.7870 C   0  0  0  0  0  0  0  0  0  0  0  0
    1.5655    0.6871   -0.2069 C   0  0  1  0  0  0  0  0  0  0  0  0
    1.6778   -0.5473   -1.1828 C   0  0  0  0  0  0  0  0  0  0  0  0
    0.0353    0.5469    0.4915 C   0  0  1  0  0  0  0  0  0  0  0  0
   -0.6940    1.2321   -0.8261 C   0  0  0  0  0  0  0  0  0  0  0  0
   -0.1244    0.6646   -2.0433 C   0  0  0  0  0  0  0  0  0  0  0  0
   -3.1141    0.6213    0.0762 C   0  0  0  0  0  0  0  0  0  0  0  0
   -4.3470    1.2051   -0.0548 C   0  0  0  0  0  0  0  0  0  0  0  0
  1  2  1  0
  2  3  1  0
  3  4  1  0
  4  5  2  0
  5  6  1  0
  6  7  2  0
  7  8  1  0
  8  9  2  0
  8 10  1  0
 10 11  1  0
 11 12  2  0
 12 13  1  0
 13 14  2  0
 14 15  1  0
 15 16  2  0
 16 17  1  0
 17 18  1  6
 18 19  1  0
 19 20  2  0
 20 21  1  0
 21 22  2  0
 22 23  1  0
 23 24  2  0
 17 25  1  0
 25 26  1  6
 25 27  1  0
 27 28  1  6
 28 29  1  0
  7 30  1  0
 30 31  2  0
 31  4  1  0
 27 10  1  0
 16 11  1  0
 24 19  1  0
M  END
>  <zinc_id>  (1) 
ZINC000002285762

>  <smiles>  (1) 
CCOc1ccc(C(=O)N2c3ccccc3[C@@H](Nc3ccccc3)[C@@H](C)[C@H]2CC)cc1

$$$$
