
     RDKit          3D

 32 34  0  0  0  0  0  0  0  0999 V2000
   -6.0329    4.3727   -3.4093 C   0  0  0  0  0  0  0  0  0  0  0  0
   -6.7091    3.3498   -2.5353 C   0  0  0  0  0  0  0  0  0  0  0  0
   -5.7005    2.6340   -1.7243 C   0  0  0  0  0  0  0  0  0  0  0  0
   -5.2963    3.0634   -0.4727 C   0  0  0  0  0  0  0  0  0  0  0  0
   -4.3578    2.3957    0.2979 C   0  0  0  0  0  0  0  0  0  0  0  0
   -3.7780    1.2299   -0.1982 C   0  0  0  0  0  0  0  0  0  0  0  0
   -2.8788    0.4521    0.5995 N   0  0  0  0  0  0  0  0  0  0  0  0
   -1.7193   -0.2072    0.2009 C   0  0  0  0  0  0  0  0  0  0  0  0
   -1.3119   -0.1419   -0.9343 O   0  0  0  0  0  0  0  0  0  0  0  0
   -0.9950   -1.0538    1.3332 C   0  0  1  0  0  0  0  0  0  0  0  0
   -1.1722   -2.5275    0.5073 C   0  0  0  0  0  0  0  0  0  0  0  0
   -0.6144   -3.4509    1.5201 C   0  0  0  0  0  0  0  0  0  0  0  0
   -1.5508   -4.2230    2.2601 C   0  0  0  0  0  0  0  0  0  0  0  0
   -1.1405   -5.0742    3.2586 C   0  0  0  0  0  0  0  0  0  0  0  0
    0.2029   -5.1954    3.5712 C   0  0  0  0  0  0  0  0  0  0  0  0
    1.1006   -4.4546    2.8652 C   0  0  0  0  0  0  0  0  0  0  0  0
    0.6621   -3.6088    1.8632 C   0  0  0  0  0  0  0  0  0  0  0  0
    0.4905   -0.8647    0.8454 N   0  0  0  0  0  0  0  0  0  0  0  0
    1.0065    0.3416    0.5414 C   0  0  0  0  0  0  0  0  0  0  0  0
    0.2010    1.3577    0.6959 O   0  0  0  0  0  0  0  0  0  0  0  0
    2.3235    0.6168    0.0839 C   0  0  0  0  0  0  0  0  0  0  0  0
    3.0976   -0.4542   -0.3297 C   0  0  0  0  0  0  0  0  0  0  0  0
    4.3762   -0.3299   -0.7532 C   0  0  0  0  0  0  0  0  0  0  0  0
    4.9826    0.9148   -0.7896 C   0  0  0  0  0  0  0  0  0  0  0  0
    6.3630    1.1275   -1.2180 C   0  0  0  0  0  0  0  0  0  0  0  0
    7.3071    0.0907   -0.5926 C   0  0  0  0  0  0  0  0  0  0  0  0
    6.8330    2.4839   -0.7319 C   0  0  0  0  0  0  0  0  0  0  0  0
    6.5171    1.0153   -2.7243 C   0  0  0  0  0  0  0  0  0  0  0  0
    4.2132    1.9889   -0.3825 C   0  0  0  0  0  0  0  0  0  0  0  0
    2.9221    1.8346    0.0430 C   0  0  0  0  0  0  0  0  0  0  0  0
   -4.2026    0.8354   -1.4505 C   0  0  0  0  0  0  0  0  0  0  0  0
   -5.1388    1.4812   -2.2404 C   0  0  0  0  0  0  0  0  0  0  0  0
  1  2  1  0
  2  3  1  0
  3  4  2  0
  4  5  1  0
  5  6  2  0
  6  7  1  0
  7  8  1  0
  8  9  2  0
  8 10  1  0
 10 11  1  6
 11 12  1  0
 12 13  2  0
 13 14  1  0
 14 15  2  0
 15 16  1  0
 16 17  2  0
 10 18  1  0
 18 19  1  0
 19 20  2  0
 19 21  1  0
 21 22  2  0
 22 23  1  0
 23 24  2  0
 24 25  1  0
 25 26  1  0
 25 27  1  0
 25 28  1  0
 24 29  1  0
 29 30  2  0
  6 31  1  0
 31 32  2  0
 32  3  1  0
 17 12  1  0
 30 21  1  0
M  END
>  <zinc_id>  (1) 
ZINC000004439705

>  <smiles>  (1) 
CCc1ccc(NC(=O)[C@@H](Cc2ccccc2)NC(=O)c2ccc(C(C)(C)C)cc2)cc1

$$$$
