
     RDKit          3D

 33 37  0  0  0  0  0  0  0  0999 V2000
    3.6022   -2.6127   -1.5572 C   0  0  0  0  0  0  0  0  0  0  0  0
    3.0544   -2.4194   -0.1514 C   0  0  0  0  0  0  0  0  0  0  0  0
    2.2005   -1.2341   -0.1061 N   0  0  0  0  0  0  0  0  0  0  0  0
    0.8734   -1.1912   -0.3317 C   0  0  0  0  0  0  0  0  0  0  0  0
   -0.0756   -2.6392   -0.7288 S   0  0  0  0  0  0  0  0  0  0  0  0
   -1.7777   -2.4344   -1.0063 C   0  0  0  0  0  0  0  0  0  0  0  0
   -1.8585   -1.5694   -2.4019 C   0  0  1  0  0  0  0  0  0  0  0  0
   -3.4109   -1.5950   -2.4060 O   0  0  0  0  0  0  0  0  0  0  0  0
   -1.7530   -0.1167   -1.6220 C   0  0  0  0  0  0  0  0  0  0  0  0
   -2.8427    0.0329   -0.7326 N   0  0  0  0  0  0  0  0  0  0  0  0
   -2.9547   -0.3106    0.5510 C   0  0  0  0  0  0  0  0  0  0  0  0
   -2.1182   -0.9071    1.4752 C   0  0  0  0  0  0  0  0  0  0  0  0
   -2.5254   -1.1395    2.7666 C   0  0  0  0  0  0  0  0  0  0  0  0
   -3.7956   -0.7661    3.1368 C   0  0  0  0  0  0  0  0  0  0  0  0
   -4.6616   -0.1757    2.2705 C   0  0  0  0  0  0  0  0  0  0  0  0
   -4.2319    0.0484    0.9781 C   0  0  0  0  0  0  0  0  0  0  0  0
   -4.8907    0.6246   -0.1008 C   0  0  0  0  0  0  0  0  0  0  0  0
   -6.1580    1.1574   -0.2646 C   0  0  0  0  0  0  0  0  0  0  0  0
   -6.5856    1.6798   -1.4585 C   0  0  0  0  0  0  0  0  0  0  0  0
   -5.6778    1.6437   -2.4901 C   0  0  0  0  0  0  0  0  0  0  0  0
   -4.4168    1.1236   -2.3605 C   0  0  0  0  0  0  0  0  0  0  0  0
   -4.0235    0.6074   -1.1438 C   0  0  0  0  0  0  0  0  0  0  0  0
    0.5324    0.0963   -0.1796 N   0  0  0  0  0  0  0  0  0  0  0  0
    1.6165    0.8077    0.1275 N   0  0  0  0  0  0  0  0  0  0  0  0
    2.6781   -0.0139    0.1784 C   0  0  0  0  0  0  0  0  0  0  0  0
    4.0762    0.3436    0.4821 C   0  0  0  0  0  0  0  0  0  0  0  0
    4.4701    1.6127    0.7594 C   0  0  0  0  0  0  0  0  0  0  0  0
    5.7844    1.9223    1.0404 C   0  0  0  0  0  0  0  0  0  0  0  0
    6.7686    0.9560    1.0542 C   0  0  0  0  0  0  0  0  0  0  0  0
    8.0906    1.2000    1.3259 O   0  0  0  0  0  0  0  0  0  0  0  0
    8.5509    2.5137    1.6223 C   0  0  0  0  0  0  0  0  0  0  0  0
    6.3910   -0.3404    0.7753 C   0  0  0  0  0  0  0  0  0  0  0  0
    5.0689   -0.6175    0.4982 C   0  0  0  0  0  0  0  0  0  0  0  0
  1  2  1  0
  2  3  1  0
  3  4  1  0
  4  5  1  0
  5  6  1  0
  6  7  1  0
  7  8  1  1
  7  9  1  0
  9 10  1  0
 10 11  1  0
 11 12  2  0
 12 13  1  0
 13 14  2  0
 14 15  1  0
 15 16  2  0
 16 17  1  0
 17 18  2  0
 18 19  1  0
 19 20  2  0
 20 21  1  0
 21 22  2  0
  4 23  2  0
 23 24  1  0
 24 25  2  0
 25 26  1  0
 26 27  2  0
 27 28  1  0
 28 29  2  0
 29 30  1  0
 30 31  1  0
 29 32  1  0
 32 33  2  0
 25  3  1  0
 33 26  1  0
 22 10  1  0
 16 11  1  0
 22 17  1  0
M  END
>  <zinc_id>  (1) 
ZINC000001182837

>  <smiles>  (1) 
CCn1c(SC[C@@H](O)Cn2c3ccccc3c3ccccc32)nnc1-c1ccc(OC)cc1

$$$$
