
     RDKit          3D

 32 35  0  0  0  0  0  0  0  0999 V2000
    5.2060   -2.1197    1.9404 C   0  0  0  0  0  0  0  0  0  0  0  0
    5.9631   -0.9564    1.3621 C   0  0  0  0  0  0  0  0  0  0  0  0
    5.4637    0.2724    1.8527 O   0  0  0  0  0  0  0  0  0  0  0  0
    4.1319    0.5958    1.6125 C   0  0  0  0  0  0  0  0  0  0  0  0
    3.3243   -0.2580    0.9167 C   0  0  0  0  0  0  0  0  0  0  0  0
    1.9987    0.0304    0.6599 C   0  0  0  0  0  0  0  0  0  0  0  0
    1.4571    1.2157    1.1143 C   0  0  0  0  0  0  0  0  0  0  0  0
    0.0842    1.5193    0.8531 N   0  0  0  0  0  0  0  0  0  0  0  0
   -0.7578    0.6168    0.1457 C   0  0  0  0  0  0  0  0  0  0  0  0
   -1.1309    0.7765   -1.1138 C   0  0  0  0  0  0  0  0  0  0  0  0
   -0.7371    2.0818   -2.2755 S   0  0  0  0  0  0  0  0  0  0  0  0
    0.3250    3.2982   -1.5637 C   0  0  0  0  0  0  0  0  0  0  0  0
   -0.1338    4.4175   -0.8929 C   0  0  0  0  0  0  0  0  0  0  0  0
    0.7634    5.3129   -0.3725 C   0  0  0  0  0  0  0  0  0  0  0  0
    2.1191    5.1083   -0.5112 C   0  0  0  0  0  0  0  0  0  0  0  0
    2.5948    4.0111   -1.1691 C   0  0  0  0  0  0  0  0  0  0  0  0
    1.6937    3.1050   -1.6960 C   0  0  0  0  0  0  0  0  0  0  0  0
   -1.9988   -0.3592   -1.4908 C   0  0  0  0  0  0  0  0  0  0  0  0
   -2.5445   -0.5520   -2.6103 O   0  0  0  0  0  0  0  0  0  0  0  0
   -2.1279   -1.2232   -0.3699 N   0  0  0  0  0  0  0  0  0  0  0  0
   -2.8818   -2.4367   -0.3118 C   0  0  0  0  0  0  0  0  0  0  0  0
   -2.2798   -3.6846   -0.4306 C   0  0  0  0  0  0  0  0  0  0  0  0
   -2.9961   -4.8471   -0.3764 C   0  0  0  0  0  0  0  0  0  0  0  0
   -2.3224   -6.1848   -0.5072 C   0  0  0  0  0  0  0  0  0  0  0  0
   -4.3634   -4.8122   -0.1986 C   0  0  0  0  0  0  0  0  0  0  0  0
   -4.9973   -3.5914   -0.0765 C   0  0  0  0  0  0  0  0  0  0  0  0
   -4.2593   -2.4243   -0.1334 C   0  0  0  0  0  0  0  0  0  0  0  0
   -4.8970   -1.0887   -0.0061 C   0  0  0  0  0  0  0  0  0  0  0  0
   -1.3553   -0.6225    0.6603 C   0  0  0  0  0  0  0  0  0  0  0  0
   -1.1842   -1.0447    1.8282 O   0  0  0  0  0  0  0  0  0  0  0  0
    2.2602    2.0589    1.8034 C   0  0  0  0  0  0  0  0  0  0  0  0
    3.5821    1.7848    2.0664 C   0  0  0  0  0  0  0  0  0  0  0  0
  1  2  1  0
  2  3  1  0
  3  4  1  0
  4  5  2  0
  5  6  1  0
  6  7  2  0
  7  8  1  0
  8  9  1  0
  9 10  2  0
 10 11  1  0
 11 12  1  0
 12 13  2  0
 13 14  1  0
 14 15  2  0
 15 16  1  0
 16 17  2  0
 10 18  1  0
 18 19  2  0
 18 20  1  0
 20 21  1  0
 21 22  2  0
 22 23  1  0
 23 24  1  0
 23 25  2  0
 25 26  1  0
 26 27  2  0
 27 28  1  0
 20 29  1  0
 29 30  2  0
  7 31  1  0
 31 32  2  0
 32  4  1  0
 29  9  1  0
 17 12  1  0
 27 21  1  0
M  END
>  <zinc_id>  (1) 
ZINC000001930353

>  <smiles>  (1) 
CCOc1ccc(NC2=C(Sc3ccccc3)C(=O)N(c3cc(C)ccc3C)C2=O)cc1

$$$$
