
     RDKit          3D

 30 32  0  0  0  0  0  0  0  0999 V2000
   -5.4013    3.3744   -3.5420 C   0  0  0  0  0  0  0  0  0  0  0  0
   -5.0011    1.9383   -3.8567 C   0  0  0  0  0  0  0  0  0  0  0  0
   -4.2913    1.4385   -2.7646 O   0  0  0  0  0  0  0  0  0  0  0  0
   -3.7619    0.1681   -2.6739 C   0  0  0  0  0  0  0  0  0  0  0  0
   -3.9159   -0.6133   -3.6282 O   0  0  0  0  0  0  0  0  0  0  0  0
   -3.0273   -0.2614   -1.4728 C   0  0  0  0  0  0  0  0  0  0  0  0
   -2.7811    0.4892   -0.3487 C   0  0  0  0  0  0  0  0  0  0  0  0
   -2.0587   -0.2601    0.5716 C   0  0  0  0  0  0  0  0  0  0  0  0
   -1.6674    0.2426    1.9073 C   0  0  0  0  0  0  0  0  0  0  0  0
   -1.0163   -0.5273    2.8337 C   0  0  0  0  0  0  0  0  0  0  0  0
   -0.6539   -0.0536    4.0767 C   0  0  0  0  0  0  0  0  0  0  0  0
   -0.9587    1.2585    4.4106 C   0  0  0  0  0  0  0  0  0  0  0  0
   -1.6122    2.0605    3.5044 C   0  0  0  0  0  0  0  0  0  0  0  0
   -1.9530    1.5415    2.2763 C   0  0  0  0  0  0  0  0  0  0  0  0
   -1.8677   -1.4524    0.0063 N   0  0  0  0  0  0  0  0  0  0  0  0
   -1.1116   -2.5338    0.5409 C   0  0  0  0  0  0  0  0  0  0  0  0
    0.2332   -2.7824    0.0850 C   0  0  0  0  0  0  0  0  0  0  0  0
    1.2869   -1.7966    0.1621 C   0  0  0  0  0  0  0  0  0  0  0  0
    1.0783   -0.6240    0.5141 O   0  0  0  0  0  0  0  0  0  0  0  0
    2.6603   -2.1012   -0.1639 N   0  0  0  0  0  0  0  0  0  0  0  0
    3.6629   -1.0932   -0.0709 C   0  0  0  0  0  0  0  0  0  0  0  0
    4.9822   -1.3401   -0.3674 C   0  0  0  0  0  0  0  0  0  0  0  0
    5.9339   -0.3482   -0.2697 C   0  0  0  0  0  0  0  0  0  0  0  0
    5.5919    0.9213    0.1280 C   0  0  0  0  0  0  0  0  0  0  0  0
    6.5953    1.8665    0.2042 O   0  0  0  0  0  0  0  0  0  0  0  0
    6.3649    3.2099    0.6021 C   0  0  0  0  0  0  0  0  0  0  0  0
    4.2737    1.1843    0.4286 C   0  0  0  0  0  0  0  0  0  0  0  0
    3.3312    0.1843    0.3272 C   0  0  0  0  0  0  0  0  0  0  0  0
   -2.4477   -1.4761   -1.2316 C   0  0  0  0  0  0  0  0  0  0  0  0
   -2.4675   -2.6145   -2.1888 C   0  0  0  0  0  0  0  0  0  0  0  0
  1  2  1  0
  2  3  1  0
  3  4  1  0
  4  5  2  0
  4  6  1  0
  6  7  1  0
  7  8  2  0
  8  9  1  0
  9 10  2  0
 10 11  1  0
 11 12  2  0
 12 13  1  0
 13 14  2  0
  8 15  1  0
 15 16  1  0
 16 17  1  0
 17 18  1  0
 18 19  2  0
 18 20  1  0
 20 21  1  0
 21 22  2  0
 22 23  1  0
 23 24  2  0
 24 25  1  0
 25 26  1  0
 24 27  1  0
 27 28  2  0
 15 29  1  0
 29 30  1  0
 29  6  2  0
 14  9  1  0
 28 21  1  0
M  END
>  <zinc_id>  (1) 
ZINC000002928920

>  <smiles>  (1) 
CCOC(=O)c1cc(-c2ccccc2)n(CCC(=O)Nc2ccc(OC)cc2)c1C

$$$$
