
     RDKit          3D

 31 34  0  0  0  0  0  0  0  0999 V2000
    6.8349    3.3173    0.7162 C   0  0  0  0  0  0  0  0  0  0  0  0
    6.0905    3.8425   -0.5237 C   0  0  0  0  0  0  0  0  0  0  0  0
    5.0344    2.8488   -0.8649 C   0  0  0  0  0  0  0  0  0  0  0  0
    5.2369    1.8007   -1.7260 C   0  0  0  0  0  0  0  0  0  0  0  0
    4.2163    0.8909   -2.0143 C   0  0  0  0  0  0  0  0  0  0  0  0
    2.9541    1.0091   -1.4381 C   0  0  0  0  0  0  0  0  0  0  0  0
    1.9749    0.0383   -1.7851 N   0  0  0  0  0  0  0  0  0  0  0  0
    0.7554   -0.1267   -1.1309 C   0  0  0  0  0  0  0  0  0  0  0  0
    0.2567   -1.2951   -0.6902 C   0  0  0  0  0  0  0  0  0  0  0  0
    1.1519   -2.8225   -0.9164 S   0  0  0  0  0  0  0  0  0  0  0  0
    0.2920   -4.1088   -0.0474 C   0  0  0  0  0  0  0  0  0  0  0  0
   -0.7205   -4.7848   -0.6725 C   0  0  0  0  0  0  0  0  0  0  0  0
   -1.4427   -5.8105   -0.0890 C   0  0  0  0  0  0  0  0  0  0  0  0
   -1.0934   -6.1561    1.2212 C   0  0  0  0  0  0  0  0  0  0  0  0
   -0.0775   -5.4826    1.8569 C   0  0  0  0  0  0  0  0  0  0  0  0
    0.6211   -4.4673    1.2509 C   0  0  0  0  0  0  0  0  0  0  0  0
   -1.0108   -1.0806   -0.0509 C   0  0  0  0  0  0  0  0  0  0  0  0
   -1.7568   -1.9639    0.4800 O   0  0  0  0  0  0  0  0  0  0  0  0
   -1.3093    0.3358   -0.1089 N   0  0  0  0  0  0  0  0  0  0  0  0
   -2.4888    0.9278    0.4191 C   0  0  0  0  0  0  0  0  0  0  0  0
   -3.7257    0.7457   -0.1920 C   0  0  0  0  0  0  0  0  0  0  0  0
   -4.8595    1.3296    0.3401 C   0  0  0  0  0  0  0  0  0  0  0  0
   -4.8305    2.1009    1.4703 C   0  0  0  0  0  0  0  0  0  0  0  0
   -6.0329    2.7367    2.0591 C   0  0  0  0  0  0  0  0  0  0  0  0
   -6.2552    4.1231    1.4859 C   0  0  0  0  0  0  0  0  0  0  0  0
   -3.6152    2.2913    2.0894 C   0  0  0  0  0  0  0  0  0  0  0  0
   -2.4701    1.7028    1.5537 C   0  0  0  0  0  0  0  0  0  0  0  0
   -0.2004    0.8958   -0.7813 C   0  0  0  0  0  0  0  0  0  0  0  0
   -0.0506    2.1314   -1.0506 O   0  0  0  0  0  0  0  0  0  0  0  0
    2.7515    2.0594   -0.5749 C   0  0  0  0  0  0  0  0  0  0  0  0
    3.7692    2.9714   -0.2859 C   0  0  0  0  0  0  0  0  0  0  0  0
  1  2  1  0
  2  3  1  0
  3  4  2  0
  4  5  1  0
  5  6  2  0
  6  7  1  0
  7  8  1  0
  8  9  2  0
  9 10  1  0
 10 11  1  0
 11 12  2  0
 12 13  1  0
 13 14  2  0
 14 15  1  0
 15 16  2  0
  9 17  1  0
 17 18  2  0
 17 19  1  0
 19 20  1  0
 20 21  2  0
 21 22  1  0
 22 23  2  0
 23 24  1  0
 24 25  1  0
 23 26  1  0
 26 27  2  0
 19 28  1  0
 28 29  2  0
  6 30  1  0
 30 31  2  0
 31  3  1  0
 28  8  1  0
 16 11  1  0
 27 20  1  0
M  END
>  <zinc_id>  (1) 
ZINC000001928883

>  <smiles>  (1) 
CCc1ccc(NC2=C(Sc3ccccc3)C(=O)N(c3ccc(CC)cc3)C2=O)cc1

$$$$
