
     RDKit          3D

 31 34  0  0  0  0  0  0  0  0999 V2000
    8.2216    1.5201    0.4664 C   0  0  0  0  0  0  0  0  0  0  0  0
    7.0431    0.6201    0.3612 C   0  0  0  0  0  0  0  0  0  0  0  0
    5.8174    1.0154    0.8364 C   0  0  0  0  0  0  0  0  0  0  0  0
    4.6788    0.2274    0.7708 C   0  0  0  0  0  0  0  0  0  0  0  0
    4.8642   -1.0255    0.1751 C   0  0  0  0  0  0  0  0  0  0  0  0
    3.7576   -1.9323    0.0521 N   0  0  0  0  0  0  0  0  0  0  0  0
    2.4593   -1.5924    0.5195 C   0  0  0  0  0  0  0  0  0  0  0  0
    2.3409   -0.4491    1.0449 O   0  0  0  0  0  0  0  0  0  0  0  0
    1.3013   -2.5272    0.3992 C   0  0  0  0  0  0  0  0  0  0  0  0
   -0.2058   -1.8069    1.0730 S   0  0  0  0  0  0  0  0  0  0  0  0
   -0.7729   -0.4200    0.1412 C   0  0  0  0  0  0  0  0  0  0  0  0
   -0.1892    0.0806   -0.9507 N   0  0  0  0  0  0  0  0  0  0  0  0
   -0.8964    1.0899   -1.3505 N   0  0  0  0  0  0  0  0  0  0  0  0
   -1.9480    1.2694   -0.5351 C   0  0  0  0  0  0  0  0  0  0  0  0
   -2.9609    2.3123   -0.6565 C   0  0  0  0  0  0  0  0  0  0  0  0
   -2.8489    3.1868   -1.7478 C   0  0  0  0  0  0  0  0  0  0  0  0
   -3.7327    4.2152   -1.9623 C   0  0  0  0  0  0  0  0  0  0  0  0
   -4.7544    4.3710   -1.0601 C   0  0  0  0  0  0  0  0  0  0  0  0
   -4.8901    3.5363    0.0120 C   0  0  0  0  0  0  0  0  0  0  0  0
   -3.9941    2.5184    0.2019 C   0  0  0  0  0  0  0  0  0  0  0  0
   -1.8721    0.3143    0.4092 N   0  0  0  0  0  0  0  0  0  0  0  0
   -2.7623    0.0288    1.5121 C   0  0  0  0  0  0  0  0  0  0  0  0
   -3.7493   -0.9908    1.1233 C   0  0  0  0  0  0  0  0  0  0  0  0
   -3.4961   -2.3501    1.2927 C   0  0  0  0  0  0  0  0  0  0  0  0
   -4.4227   -3.2898    0.9287 C   0  0  0  0  0  0  0  0  0  0  0  0
   -5.6099   -2.8877    0.3930 C   0  0  0  0  0  0  0  0  0  0  0  0
   -5.8933   -1.5679    0.2122 C   0  0  0  0  0  0  0  0  0  0  0  0
   -4.9570   -0.6496    0.5812 C   0  0  0  0  0  0  0  0  0  0  0  0
    6.0734   -1.4381   -0.3038 C   0  0  0  0  0  0  0  0  0  0  0  0
    6.2378   -2.7629   -0.9260 C   0  0  0  0  0  0  0  0  0  0  0  0
    7.1607   -0.6158   -0.2104 C   0  0  0  0  0  0  0  0  0  0  0  0
  1  2  1  0
  2  3  2  0
  3  4  1  0
  4  5  2  0
  5  6  1  0
  6  7  1  0
  7  8  2  0
  7  9  1  0
  9 10  1  0
 10 11  1  0
 11 12  2  0
 12 13  1  0
 13 14  2  0
 14 15  1  0
 15 16  2  0
 16 17  1  0
 17 18  2  0
 18 19  1  0
 19 20  2  0
 14 21  1  0
 21 22  1  0
 22 23  1  0
 23 24  2  0
 24 25  1  0
 25 26  2  0
 26 27  1  0
 27 28  2  0
  5 29  1  0
 29 30  1  0
 29 31  2  0
 31  2  1  0
 21 11  1  0
 28 23  1  0
 20 15  1  0
M  END
>  <zinc_id>  (1) 
ZINC000000900593

>  <smiles>  (1) 
Cc1ccc(NC(=O)CSc2nnc(-c3ccccc3)n2Cc2ccccc2)c(C)c1

$$$$
