
     RDKit          3D

 30 32  0  0  0  0  0  0  0  0999 V2000
   -2.8091   -2.3757    1.5992 C   0  0  0  0  0  0  0  0  0  0  0  0
   -3.7337   -1.5065    0.8292 C   0  0  0  0  0  0  0  0  0  0  0  0
   -5.0364   -1.9611    0.6635 C   0  0  0  0  0  0  0  0  0  0  0  0
   -5.9313   -1.1753   -0.0517 C   0  0  0  0  0  0  0  0  0  0  0  0
   -5.5355    0.0109   -0.5753 C   0  0  0  0  0  0  0  0  0  0  0  0
   -4.2355    0.4495   -0.4017 C   0  0  0  0  0  0  0  0  0  0  0  0
   -3.8047    1.7370   -0.9690 C   0  0  0  0  0  0  0  0  0  0  0  0
   -4.9246    2.4375   -1.7092 C   0  0  0  0  0  0  0  0  0  0  0  0
   -2.5522    1.6312   -1.8111 C   0  0  0  0  0  0  0  0  0  0  0  0
   -3.3314   -0.3112    0.3027 C   0  0  0  0  0  0  0  0  0  0  0  0
   -1.9955    0.1081    0.4962 N   0  0  0  0  0  0  0  0  0  0  0  0
   -1.5432    0.8768    1.5808 C   0  0  0  0  0  0  0  0  0  0  0  0
   -2.3506    1.2342    2.4630 O   0  0  0  0  0  0  0  0  0  0  0  0
   -0.1255    1.2714    1.6955 C   0  0  0  0  0  0  0  0  0  0  0  0
    0.6551    0.7859    0.6327 O   0  0  0  0  0  0  0  0  0  0  0  0
    0.8342   -0.5322    0.3272 C   0  0  0  0  0  0  0  0  0  0  0  0
    0.2329   -1.3709    1.0884 O   0  0  0  0  0  0  0  0  0  0  0  0
    1.6114   -1.0908   -0.7471 C   0  0  0  0  0  0  0  0  0  0  0  0
    1.4811   -2.4412   -1.1011 C   0  0  0  0  0  0  0  0  0  0  0  0
    2.1525   -2.9803   -2.1698 C   0  0  0  0  0  0  0  0  0  0  0  0
    2.9811   -2.1784   -2.9221 C   0  0  0  0  0  0  0  0  0  0  0  0
    3.1356   -0.8541   -2.6064 C   0  0  0  0  0  0  0  0  0  0  0  0
    2.4356   -0.3262   -1.5034 C   0  0  0  0  0  0  0  0  0  0  0  0
    2.7390    1.0927   -1.1889 C   0  0  0  0  0  0  0  0  0  0  0  0
    3.8459    1.1677   -0.2128 C   0  0  0  0  0  0  0  0  0  0  0  0
    5.1781    1.2119   -0.6632 C   0  0  0  0  0  0  0  0  0  0  0  0
    6.2368    1.2869    0.2176 C   0  0  0  0  0  0  0  0  0  0  0  0
    5.9993    1.3202    1.5841 C   0  0  0  0  0  0  0  0  0  0  0  0
    4.7014    1.2779    2.0578 C   0  0  0  0  0  0  0  0  0  0  0  0
    3.6894    1.2040    1.1382 C   0  0  0  0  0  0  0  0  0  0  0  0
  1  2  1  0
  2  3  2  0
  3  4  1  0
  4  5  2  0
  5  6  1  0
  6  7  1  0
  7  8  1  0
  7  9  1  0
  6 10  2  0
 10 11  1  0
 11 12  1  0
 12 13  2  0
 12 14  1  0
 14 15  1  0
 15 16  1  0
 16 17  2  0
 16 18  1  0
 18 19  2  0
 19 20  1  0
 20 21  2  0
 21 22  1  0
 22 23  2  0
 23 24  1  0
 24 25  1  0
 25 26  2  0
 26 27  1  0
 27 28  2  0
 28 29  1  0
 29 30  2  0
 10  2  1  0
 23 18  1  0
 30 25  1  0
M  END
>  <zinc_id>  (1) 
ZINC000003217622

>  <smiles>  (1) 
Cc1cccc(C(C)C)c1NC(=O)COC(=O)c1ccccc1Cc1ccccc1

$$$$
