
     RDKit          3D

 34 37  0  0  0  0  0  0  0  0999 V2000
    7.6934    1.2243    2.0555 C   0  0  0  0  0  0  0  0  0  0  0  0
    7.9262    2.0634    0.8053 C   0  0  0  0  0  0  0  0  0  0  0  0
    6.8583    2.9387    0.5523 O   0  0  0  0  0  0  0  0  0  0  0  0
    5.5523    2.4899    0.3314 C   0  0  0  0  0  0  0  0  0  0  0  0
    4.5539    3.3871    0.0884 C   0  0  0  0  0  0  0  0  0  0  0  0
    3.2366    2.9898   -0.1381 C   0  0  0  0  0  0  0  0  0  0  0  0
    2.8963    1.6713   -0.1236 C   0  0  0  0  0  0  0  0  0  0  0  0
    1.5750    1.1003   -0.3433 C   0  0  0  0  0  0  0  0  0  0  0  0
    1.2712    0.7440   -1.7696 C   0  0  0  0  0  0  0  0  0  0  0  0
   -0.0774    0.1717   -1.8955 N   0  0  0  0  0  0  0  0  0  0  0  0
   -0.3995   -0.9959   -1.1820 C   0  0  0  0  0  0  0  0  0  0  0  0
    0.5301   -1.4639   -0.4689 O   0  0  0  0  0  0  0  0  0  0  0  0
   -1.6225   -1.7465   -1.1351 C   0  0  0  0  0  0  0  0  0  0  0  0
   -1.8593   -2.8248   -0.4583 C   0  0  0  0  0  0  0  0  0  0  0  0
   -0.9840   -3.6051    0.4617 C   0  0  0  0  0  0  0  0  0  0  0  0
   -0.2229   -3.0638    1.4577 C   0  0  0  0  0  0  0  0  0  0  0  0
    0.5908   -3.8288    2.2852 C   0  0  0  0  0  0  0  0  0  0  0  0
    0.6470   -5.1897    2.1123 C   0  0  0  0  0  0  0  0  0  0  0  0
   -0.1070   -5.7649    1.1189 C   0  0  0  0  0  0  0  0  0  0  0  0
   -0.9157   -4.9703    0.3022 C   0  0  0  0  0  0  0  0  0  0  0  0
   -3.2062   -3.2414   -0.7757 N   0  0  0  0  0  0  0  0  0  0  0  0
   -3.9204   -2.1935   -1.0881 O   0  0  0  0  0  0  0  0  0  0  0  0
   -2.9356   -1.3983   -1.9138 C   0  0  1  0  0  0  0  0  0  0  0  0
   -3.3248    0.0107   -1.3478 C   0  0  0  0  0  0  0  0  0  0  0  0
   -2.3687    0.8249   -0.8986 C   0  0  0  0  0  0  0  0  0  0  0  0
   -2.6760    2.1121   -0.3868 C   0  0  0  0  0  0  0  0  0  0  0  0
   -3.9840    2.5084   -0.3610 C   0  0  0  0  0  0  0  0  0  0  0  0
   -4.4057    3.8452    0.1546 C   0  0  0  0  0  0  0  0  0  0  0  0
   -4.0146    4.0603    1.5869 C   0  0  0  0  0  0  0  0  0  0  0  0
   -5.8671    4.1140   -0.1168 C   0  0  0  0  0  0  0  0  0  0  0  0
   -4.9752    1.6825   -0.8183 C   0  0  0  0  0  0  0  0  0  0  0  0
   -4.6160    0.4388   -1.3063 C   0  0  0  0  0  0  0  0  0  0  0  0
    3.9277    0.7560    0.1264 C   0  0  0  0  0  0  0  0  0  0  0  0
    5.2239    1.1535    0.3484 C   0  0  0  0  0  0  0  0  0  0  0  0
  1  2  1  0
  2  3  1  0
  3  4  1  0
  4  5  2  0
  5  6  1  0
  6  7  2  0
  7  8  1  0
  8  9  1  0
  9 10  1  0
 10 11  1  0
 11 12  2  0
 11 13  1  0
 13 14  2  0
 14 15  1  0
 15 16  2  0
 16 17  1  0
 17 18  2  0
 18 19  1  0
 19 20  2  0
 14 21  1  0
 21 22  1  0
 22 23  1  0
 23 24  1  6
 24 25  2  0
 25 26  1  0
 26 27  2  0
 27 28  1  0
 28 29  1  0
 28 30  1  0
 27 31  1  0
 31 32  2  0
  7 33  1  0
 33 34  2  0
 34  4  1  0
 23 13  1  0
 32 24  1  0
 20 15  1  0
M  END
>  <zinc_id>  (1) 
ZINC000002460285

>  <smiles>  (1) 
CCOc1ccc(CCNC(=O)C2=C(c3ccccc3)NO[C@@H]2c2ccc(C(C)C)cc2)cc1

$$$$
