
     RDKit          3D

 32 35  0  0  0  0  0  0  0  0999 V2000
   -5.8777   -1.3366   -1.2331 C   0  0  0  0  0  0  0  0  0  0  0  0
   -5.1133   -1.6788   -0.0110 C   0  0  0  0  0  0  0  0  0  0  0  0
   -5.5143   -2.6656    0.6537 O   0  0  0  0  0  0  0  0  0  0  0  0
   -3.9755   -0.9270    0.3963 N   0  0  0  0  0  0  0  0  0  0  0  0
   -3.3276   -1.3054    1.5310 C   0  0  0  0  0  0  0  0  0  0  0  0
   -3.6046   -2.2583    2.2938 O   0  0  0  0  0  0  0  0  0  0  0  0
   -2.0280   -0.4978    2.0530 C   0  0  1  0  0  0  0  0  0  0  0  0
   -1.1056   -0.7267    0.7433 C   0  0  0  0  0  0  0  0  0  0  0  0
   -0.2652    0.3064    0.4415 C   0  0  0  0  0  0  0  0  0  0  0  0
    0.5449    0.1570   -0.6660 C   0  0  0  0  0  0  0  0  0  0  0  0
    0.5093   -0.9854   -1.4365 C   0  0  0  0  0  0  0  0  0  0  0  0
    1.3285   -1.1149   -2.5410 O   0  0  0  0  0  0  0  0  0  0  0  0
    2.2418   -0.1337   -2.9672 C   0  0  0  0  0  0  0  0  0  0  0  0
    3.2840    0.1872   -1.9411 C   0  0  0  0  0  0  0  0  0  0  0  0
    3.1573    1.2635   -1.0946 C   0  0  0  0  0  0  0  0  0  0  0  0
    4.1602    1.5191   -0.1536 C   0  0  0  0  0  0  0  0  0  0  0  0
    5.2669    0.7134   -0.0622 C   0  0  0  0  0  0  0  0  0  0  0  0
    6.2408    0.9666    0.8560 C   0  0  0  0  0  0  0  0  0  0  0  0
    7.3665    0.1368    0.9400 C   0  0  0  0  0  0  0  0  0  0  0  0
    7.4601   -0.9405    0.0690 C   0  0  0  0  0  0  0  0  0  0  0  0
    6.4561   -1.1666   -0.8472 C   0  0  0  0  0  0  0  0  0  0  0  0
    5.3552   -0.3368   -0.9135 C   0  0  0  0  0  0  0  0  0  0  0  0
    4.3805   -0.5802   -1.8237 N   0  0  0  0  0  0  0  0  0  0  0  0
   -0.3779   -2.0004   -1.0641 C   0  0  0  0  0  0  0  0  0  0  0  0
   -1.1891   -1.8556    0.0415 C   0  0  0  0  0  0  0  0  0  0  0  0
   -2.5653    1.0140    1.6504 C   0  0  0  0  0  0  0  0  0  0  0  0
   -3.8329    1.1167    2.4704 C   0  0  0  0  0  0  0  0  0  0  0  0
   -4.4754    2.4356    2.1222 C   0  0  0  0  0  0  0  0  0  0  0  0
   -4.9727    2.4963    0.7059 C   0  0  0  0  0  0  0  0  0  0  0  0
   -3.9724    3.2586   -0.1578 C   0  0  0  0  0  0  0  0  0  0  0  0
   -2.7157    2.4353   -0.2822 C   0  0  0  0  0  0  0  0  0  0  0  0
   -2.8389    1.0606    0.2267 C   0  0  0  0  0  0  0  0  0  0  0  0
  1  2  1  0
  2  3  2  0
  2  4  1  0
  4  5  1  0
  5  6  2  0
  7  5  1  6
  7  8  1  0
  8  9  2  0
  9 10  1  0
 10 11  2  0
 11 12  1  0
 12 13  1  0
 13 14  1  0
 14 15  2  0
 15 16  1  0
 16 17  2  0
 17 18  1  0
 18 19  2  0
 19 20  1  0
 20 21  2  0
 21 22  1  0
 22 23  2  0
 11 24  1  0
 24 25  2  0
  7 26  1  0
 26 27  1  0
 27 28  1  0
 28 29  1  0
 29 30  1  0
 30 31  1  0
 31 32  1  0
 25  8  1  0
 32 26  1  0
 23 14  1  0
 22 17  1  0
M  END
>  <zinc_id>  (1) 
ZINC000000598636

>  <smiles>  (1) 
CC(=O)NC(=O)[C@@H](c1ccc(OCc2ccc3ccccc3n2)cc1)C1CCCCCC1

$$$$
