
     RDKit          3D

 31 34  0  0  0  0  0  0  0  0999 V2000
    8.1154    0.5292   -0.7833 C   0  0  0  0  0  0  0  0  0  0  0  0
    7.2499    1.7212   -0.5040 C   0  0  0  0  0  0  0  0  0  0  0  0
    5.8164    1.3209   -0.3109 C   0  0  0  0  0  0  0  0  0  0  0  0
    5.2299    0.6368   -1.5093 C   0  0  0  0  0  0  0  0  0  0  0  0
    3.8453    0.3046   -1.1892 N   0  0  0  0  0  0  0  0  0  0  0  0
    3.5803   -0.5505   -0.0880 C   0  0  0  0  0  0  0  0  0  0  0  0
    4.5436   -0.9989    0.5820 O   0  0  0  0  0  0  0  0  0  0  0  0
    2.2035   -0.9159    0.2763 C   0  0  0  0  0  0  0  0  0  0  0  0
    1.9987   -1.7477    1.3519 C   0  0  0  0  0  0  0  0  0  0  0  0
    0.7340   -2.1108    1.7227 C   0  0  0  0  0  0  0  0  0  0  0  0
   -0.3576   -1.6458    1.0200 C   0  0  0  0  0  0  0  0  0  0  0  0
   -0.1771   -0.7972   -0.0796 C   0  0  0  0  0  0  0  0  0  0  0  0
    1.1167   -0.4573   -0.4174 C   0  0  0  0  0  0  0  0  0  0  0  0
   -1.1387   -0.2064   -0.9371 N   0  0  0  0  0  0  0  0  0  0  0  0
   -0.6807    0.9999   -1.5910 C   0  0  0  0  0  0  0  0  0  0  0  0
   -0.9824    2.2120   -0.7886 C   0  0  0  0  0  0  0  0  0  0  0  0
   -0.6112    3.4479   -1.2712 C   0  0  0  0  0  0  0  0  0  0  0  0
   -0.8773    4.6151   -0.5453 C   0  0  0  0  0  0  0  0  0  0  0  0
   -1.5129    4.5173    0.6548 C   0  0  0  0  0  0  0  0  0  0  0  0
   -1.8938    3.3027    1.1601 C   0  0  0  0  0  0  0  0  0  0  0  0
   -2.5952    3.2102    2.4872 C   0  0  0  0  0  0  0  0  0  0  0  0
   -1.6220    2.1681    0.4291 C   0  0  0  0  0  0  0  0  0  0  0  0
   -2.4450   -0.6287   -1.2273 C   0  0  0  0  0  0  0  0  0  0  0  0
   -3.0541    0.0915   -2.0633 O   0  0  0  0  0  0  0  0  0  0  0  0
   -3.2467   -1.7485   -0.7479 C   0  0  0  0  0  0  0  0  0  0  0  0
   -4.2808   -2.1082   -1.5852 C   0  0  0  0  0  0  0  0  0  0  0  0
   -5.1338   -3.1291   -1.3045 C   0  0  0  0  0  0  0  0  0  0  0  0
   -4.9594   -3.8353   -0.1351 C   0  0  0  0  0  0  0  0  0  0  0  0
   -3.9330   -3.4841    0.7037 C   0  0  0  0  0  0  0  0  0  0  0  0
   -3.0662   -2.4493    0.4221 C   0  0  0  0  0  0  0  0  0  0  0  0
   -1.8659   -2.2637    1.7056 S   0  0  0  0  0  0  0  0  0  0  0  0
  1  2  1  0
  2  3  1  0
  3  4  1  0
  4  5  1  0
  5  6  1  0
  6  7  2  0
  6  8  1  0
  8  9  2  0
  9 10  1  0
 10 11  2  0
 11 12  1  0
 12 13  2  0
 12 14  1  0
 14 15  1  0
 15 16  1  0
 16 17  2  0
 17 18  1  0
 18 19  2  0
 19 20  1  0
 20 21  1  0
 20 22  2  0
 14 23  1  0
 23 24  2  0
 23 25  1  0
 25 26  2  0
 26 27  1  0
 27 28  2  0
 28 29  1  0
 29 30  2  0
 30 31  1  0
 13  8  1  0
 22 16  1  0
 30 25  1  0
 31 11  1  0
M  END
>  <zinc_id>  (1) 
ZINC000003040758

>  <smiles>  (1) 
CCCCNC(=O)c1ccc2c(c1)N(Cc1cccc(C)c1)C(=O)c1ccccc1S2

$$$$
