
     RDKit          3D

 33 36  0  0  0  0  0  0  0  0999 V2000
   -5.0796   -2.1823   -3.8352 C   0  0  0  0  0  0  0  0  0  0  0  0
   -5.3929   -2.1048   -2.3545 C   0  0  0  0  0  0  0  0  0  0  0  0
   -4.2352   -1.8330   -1.5901 O   0  0  0  0  0  0  0  0  0  0  0  0
   -4.3745   -1.7350   -0.2222 C   0  0  0  0  0  0  0  0  0  0  0  0
   -5.5059   -1.8867    0.3036 O   0  0  0  0  0  0  0  0  0  0  0  0
   -3.2876   -1.4693    0.6131 N   0  0  0  0  0  0  0  0  0  0  0  0
   -3.3894   -1.3626    2.0050 C   0  0  0  0  0  0  0  0  0  0  0  0
   -3.3542    0.1116    2.2816 C   0  0  0  0  0  0  0  0  0  0  0  0
   -2.2851    0.7058    1.4765 C   0  0  0  0  0  0  0  0  0  0  0  0
   -1.9341    2.0202    1.8515 C   0  0  0  0  0  0  0  0  0  0  0  0
   -0.9513    2.7164    1.1787 C   0  0  0  0  0  0  0  0  0  0  0  0
   -0.5692    4.0133    1.5095 O   0  0  0  0  0  0  0  0  0  0  0  0
   -1.2487    4.6129    2.5987 C   0  0  0  0  0  0  0  0  0  0  0  0
   -0.2856    2.1356    0.1154 C   0  0  0  0  0  0  0  0  0  0  0  0
    0.7154    2.8526   -0.5663 O   0  0  0  0  0  0  0  0  0  0  0  0
   -0.6167    0.8547   -0.2614 C   0  0  0  0  0  0  0  0  0  0  0  0
   -1.6162    0.2036    0.4558 C   0  0  0  0  0  0  0  0  0  0  0  0
   -1.8976   -1.2900   -0.1104 C   0  0  1  0  0  0  0  0  0  0  0  0
   -1.0391   -2.0245    1.0945 C   0  0  0  0  0  0  0  0  0  0  0  0
    0.3650   -2.0254    0.6613 C   0  0  0  0  0  0  0  0  0  0  0  0
    1.1635   -0.9763    1.0038 C   0  0  0  0  0  0  0  0  0  0  0  0
    2.4946   -0.9045    0.6519 C   0  0  0  0  0  0  0  0  0  0  0  0
    3.0614   -1.9204   -0.0734 C   0  0  0  0  0  0  0  0  0  0  0  0
    4.3820   -1.8551   -0.4237 O   0  0  0  0  0  0  0  0  0  0  0  0
    5.2415   -0.8109   -0.1049 C   0  0  0  0  0  0  0  0  0  0  0  0
    4.8027    0.4738   -0.6743 C   0  0  0  0  0  0  0  0  0  0  0  0
    3.7467    0.5549   -1.5510 C   0  0  0  0  0  0  0  0  0  0  0  0
    3.3548    1.7576   -2.0756 C   0  0  0  0  0  0  0  0  0  0  0  0
    4.0274    2.9001   -1.7200 C   0  0  0  0  0  0  0  0  0  0  0  0
    5.0988    2.8728   -0.8397 C   0  0  0  0  0  0  0  0  0  0  0  0
    5.4540    1.6470   -0.3413 C   0  0  0  0  0  0  0  0  0  0  0  0
    2.2406   -2.9884   -0.4205 C   0  0  0  0  0  0  0  0  0  0  0  0
    0.9144   -3.0636   -0.0722 C   0  0  0  0  0  0  0  0  0  0  0  0
  1  2  1  0
  2  3  1  0
  3  4  1  0
  4  5  2  0
  4  6  1  0
  6  7  1  0
  7  8  1  0
  8  9  1  0
  9 10  2  0
 10 11  1  0
 11 12  1  0
 12 13  1  0
 11 14  2  0
 14 15  1  0
 14 16  1  0
 16 17  2  0
 17 18  1  0
 18 19  1  1
 19 20  1  0
 20 21  2  0
 21 22  1  0
 22 23  2  0
 23 24  1  0
 24 25  1  0
 25 26  1  0
 26 27  2  0
 27 28  1  0
 28 29  2  0
 29 30  1  0
 30 31  2  0
 23 32  1  0
 32 33  2  0
 18  6  1  0
 33 20  1  0
 17  9  1  0
 31 26  1  0
M  END
>  <zinc_id>  (1) 
ZINC000001559558

>  <smiles>  (1) 
CCOC(=O)N1CCc2cc(OC)c(O)cc2[C@H]1Cc1ccc(OCc2ccccc2)cc1

$$$$
