
     RDKit          3D

 28 30  0  0  0  0  0  0  0  0999 V2000
    4.4630   -2.9686    2.5218 C   0  0  0  0  0  0  0  0  0  0  0  0
    4.4741   -3.2694    1.0094 C   0  0  0  0  0  0  0  0  0  0  0  0
    5.8594   -4.1068    0.9522 C   0  0  0  0  0  0  0  0  0  0  0  0
    4.8696   -2.0714    0.2962 O   0  0  0  0  0  0  0  0  0  0  0  0
    3.8093   -1.2027   -0.0788 C   0  0  0  0  0  0  0  0  0  0  0  0
    3.9627   -0.2835   -1.0770 C   0  0  0  0  0  0  0  0  0  0  0  0
    2.8725    0.5568   -1.3806 C   0  0  0  0  0  0  0  0  0  0  0  0
    1.7058    0.4269   -0.6756 C   0  0  0  0  0  0  0  0  0  0  0  0
    0.6019    1.3556   -1.1663 C   0  0  1  0  0  0  0  0  0  0  0  0
   -0.5537    1.1385   -0.0408 C   0  0  0  0  0  0  0  0  0  0  0  0
   -1.0052   -0.0757   -0.0160 C   0  0  0  0  0  0  0  0  0  0  0  0
   -1.4314   -1.2798    0.0154 N   0  0  0  0  0  0  0  0  0  0  0  0
   -2.4898   -1.4744   -0.9378 C   0  0  0  0  0  0  0  0  0  0  0  0
   -3.8103   -1.4068   -0.2479 C   0  0  0  0  0  0  0  0  0  0  0  0
   -3.9709   -1.4613    1.1018 C   0  0  0  0  0  0  0  0  0  0  0  0
   -5.2052   -1.4686    1.6885 C   0  0  0  0  0  0  0  0  0  0  0  0
   -6.3208   -1.4122    0.8512 C   0  0  0  0  0  0  0  0  0  0  0  0
   -7.5626   -1.4438    1.5176 O   0  0  0  0  0  0  0  0  0  0  0  0
   -6.1918   -1.3492   -0.4602 C   0  0  0  0  0  0  0  0  0  0  0  0
   -4.9209   -1.3490   -1.0693 C   0  0  0  0  0  0  0  0  0  0  0  0
    0.9644    2.7995   -0.7644 C   0  0  0  0  0  0  0  0  0  0  0  0
    1.2273    3.5961   -1.8677 C   0  0  0  0  0  0  0  0  0  0  0  0
    1.3549    5.0049   -1.7155 C   0  0  0  0  0  0  0  0  0  0  0  0
    1.2055    5.4673   -0.4547 C   0  0  0  0  0  0  0  0  0  0  0  0
    0.9986    4.7393    0.6185 C   0  0  0  0  0  0  0  0  0  0  0  0
    0.8618    3.3368    0.4728 C   0  0  0  0  0  0  0  0  0  0  0  0
    1.6106   -0.4685    0.2706 C   0  0  0  0  0  0  0  0  0  0  0  0
    2.6213   -1.3300    0.6368 C   0  0  0  0  0  0  0  0  0  0  0  0
  1  2  1  0
  2  3  1  0
  2  4  1  0
  4  5  1  0
  5  6  2  0
  6  7  1  0
  7  8  2  0
  8  9  1  0
  9 10  1  1
 10 11  1  0
 11 12  1  0
 12 13  1  0
 13 14  1  0
 14 15  2  0
 15 16  1  0
 16 17  2  0
 17 18  1  0
 17 19  1  0
 19 20  2  0
  9 21  1  0
 21 22  2  0
 22 23  1  0
 23 24  2  0
 24 25  1  0
 25 26  2  0
  8 27  1  0
 27 28  2  0
 28  5  1  0
 20 14  1  0
 26 21  1  0
M  END
>  <zinc_id>  (1) 
ZINC000001774423

>  <smiles>  (1) 
CC(C)Oc1ccc([C@@H](CCNCc2ccc(O)cc2)c2ccccc2)cc1

$$$$
