
     RDKit          3D

 32 35  0  0  0  0  0  0  0  0999 V2000
    7.9459   -1.3390   -0.7085 C   0  0  0  0  0  0  0  0  0  0  0  0
    6.9206   -0.3570   -0.1305 C   0  0  0  0  0  0  0  0  0  0  0  0
    5.6428   -0.8417   -0.4717 O   0  0  0  0  0  0  0  0  0  0  0  0
    4.4553   -0.2379   -0.1337 C   0  0  0  0  0  0  0  0  0  0  0  0
    3.2894   -0.8719   -0.5640 C   0  0  0  0  0  0  0  0  0  0  0  0
    2.0671   -0.3317   -0.2668 C   0  0  0  0  0  0  0  0  0  0  0  0
    1.9543    0.8350    0.4544 C   0  0  0  0  0  0  0  0  0  0  0  0
    0.6603    1.3653    0.7437 N   0  0  0  0  0  0  0  0  0  0  0  0
   -0.5279    0.7013    0.2998 C   0  0  0  0  0  0  0  0  0  0  0  0
   -1.5120    1.2852   -0.3256 C   0  0  0  0  0  0  0  0  0  0  0  0
   -1.8094    2.9364   -0.8498 S   0  0  0  0  0  0  0  0  0  0  0  0
   -0.5685    4.1088   -0.5129 C   0  0  0  0  0  0  0  0  0  0  0  0
    0.6274    3.9459    0.1066 C   0  0  0  0  0  0  0  0  0  0  0  0
    1.4846    5.0087    0.2811 C   0  0  0  0  0  0  0  0  0  0  0  0
    1.1823    6.2804   -0.1568 C   0  0  0  0  0  0  0  0  0  0  0  0
   -0.0251    6.4586   -0.7852 C   0  0  0  0  0  0  0  0  0  0  0  0
   -0.8654    5.4202   -0.9570 C   0  0  0  0  0  0  0  0  0  0  0  0
   -2.5190    0.2188   -0.5873 C   0  0  0  0  0  0  0  0  0  0  0  0
   -3.6300    0.3460   -1.1722 O   0  0  0  0  0  0  0  0  0  0  0  0
   -2.0568   -0.9987   -0.0793 N   0  0  0  0  0  0  0  0  0  0  0  0
   -2.6964   -2.2879   -0.1085 C   0  0  0  0  0  0  0  0  0  0  0  0
   -2.9868   -2.9936    1.0388 C   0  0  0  0  0  0  0  0  0  0  0  0
   -3.6007   -4.2247    0.9434 C   0  0  0  0  0  0  0  0  0  0  0  0
   -3.9454   -4.7979   -0.2522 C   0  0  0  0  0  0  0  0  0  0  0  0
   -4.5700   -6.0505   -0.3506 O   0  0  0  0  0  0  0  0  0  0  0  0
   -4.8364   -6.7156    0.8699 C   0  0  0  0  0  0  0  0  0  0  0  0
   -3.6550   -4.0910   -1.4094 C   0  0  0  0  0  0  0  0  0  0  0  0
   -3.0413   -2.8601   -1.3160 C   0  0  0  0  0  0  0  0  0  0  0  0
   -0.7897   -0.7454    0.4975 C   0  0  0  0  0  0  0  0  0  0  0  0
   -0.0231   -1.5617    1.0667 O   0  0  0  0  0  0  0  0  0  0  0  0
    3.0941    1.4721    0.8859 C   0  0  0  0  0  0  0  0  0  0  0  0
    4.3350    0.9236    0.5841 C   0  0  0  0  0  0  0  0  0  0  0  0
  1  2  1  0
  2  3  1  0
  3  4  1  0
  4  5  2  0
  5  6  1  0
  6  7  2  0
  7  8  1  0
  8  9  1  0
  9 10  2  0
 10 11  1  0
 11 12  1  0
 12 13  2  0
 13 14  1  0
 14 15  2  0
 15 16  1  0
 16 17  2  0
 10 18  1  0
 18 19  2  0
 18 20  1  0
 20 21  1  0
 21 22  2  0
 22 23  1  0
 23 24  2  0
 24 25  1  0
 25 26  1  0
 24 27  1  0
 27 28  2  0
 20 29  1  0
 29 30  2  0
  7 31  1  0
 31 32  2  0
 32  4  1  0
 29  9  1  0
 17 12  1  0
 28 21  1  0
M  END
>  <zinc_id>  (1) 
ZINC000001928826

>  <smiles>  (1) 
CCOc1ccc(NC2=C(Sc3ccccc3)C(=O)N(c3ccc(OC)cc3)C2=O)cc1

$$$$
