
     RDKit          3D

 32 35  0  0  0  0  0  0  0  0999 V2000
   -0.1321    2.5529    0.9332 C   0  0  0  0  0  0  0  0  0  0  0  0
   -0.8571    1.4766    0.6368 C   0  0  0  0  0  0  0  0  0  0  0  0
   -1.5709    0.8067    1.5777 N   0  0  0  0  0  0  0  0  0  0  0  0
   -1.8843   -0.5415    1.3183 C   0  0  0  0  0  0  0  0  0  0  0  0
   -2.5789   -1.4666    2.0064 N   0  0  0  0  0  0  0  0  0  0  0  0
   -2.5773   -2.6006    1.2504 C   0  0  0  0  0  0  0  0  0  0  0  0
   -1.8979   -2.3254    0.1604 N   0  0  0  0  0  0  0  0  0  0  0  0
   -1.4856   -1.0403    0.2417 N   0  0  0  0  0  0  0  0  0  0  0  0
   -0.6605   -0.5364   -0.9245 C   0  0  2  0  0  0  0  0  0  0  0  0
    0.7947   -0.7259   -0.3235 C   0  0  0  0  0  0  0  0  0  0  0  0
    1.3965    0.2521    0.3645 C   0  0  0  0  0  0  0  0  0  0  0  0
    2.6607    0.0459    0.8689 C   0  0  0  0  0  0  0  0  0  0  0  0
    3.3415   -1.1424    0.6923 C   0  0  0  0  0  0  0  0  0  0  0  0
    4.6175   -1.3638    1.1959 O   0  0  0  0  0  0  0  0  0  0  0  0
    5.2147   -0.3020    1.9166 C   0  0  0  0  0  0  0  0  0  0  0  0
    5.2763    0.8509    0.9044 C   0  0  0  0  0  0  0  0  0  0  0  0
    6.0932    0.4798   -0.2918 C   0  0  0  0  0  0  0  0  0  0  0  0
    7.4829    0.1564    0.1848 C   0  0  0  0  0  0  0  0  0  0  0  0
    8.0803    1.3471    0.8656 C   0  0  0  0  0  0  0  0  0  0  0  0
    9.4871    1.0252    1.3501 C   0  0  0  0  0  0  0  0  0  0  0  0
    2.6697   -2.1116   -0.0246 C   0  0  0  0  0  0  0  0  0  0  0  0
    1.4068   -1.9065   -0.5289 C   0  0  0  0  0  0  0  0  0  0  0  0
   -0.7988    1.1175   -0.8793 C   0  0  1  0  0  0  0  0  0  0  0  0
   -2.3153    1.3193   -1.2151 C   0  0  0  0  0  0  0  0  0  0  0  0
   -2.4809    2.2029   -2.0785 O   0  0  0  0  0  0  0  0  0  0  0  0
   -3.3780    0.6681   -0.6900 N   0  0  0  0  0  0  0  0  0  0  0  0
   -4.6872    0.9967   -1.1281 C   0  0  0  0  0  0  0  0  0  0  0  0
   -5.8238    0.3806   -0.6435 C   0  0  0  0  0  0  0  0  0  0  0  0
   -7.0940    0.7177   -1.0860 C   0  0  0  0  0  0  0  0  0  0  0  0
   -7.2665    1.6956   -2.0407 C   0  0  0  0  0  0  0  0  0  0  0  0
   -6.1429    2.3185   -2.5331 C   0  0  0  0  0  0  0  0  0  0  0  0
   -4.8899    1.9691   -2.0802 C   0  0  0  0  0  0  0  0  0  0  0  0
  1  2  2  0
  2  3  1  0
  3  4  1  0
  4  5  2  0
  5  6  1  0
  6  7  2  0
  7  8  1  0
  8  9  1  0
  9 10  1  1
 10 11  2  0
 11 12  1  0
 12 13  2  0
 13 14  1  0
 14 15  1  0
 15 16  1  0
 16 17  1  0
 17 18  1  0
 18 19  1  0
 19 20  1  0
 13 21  1  0
 21 22  2  0
  9 23  1  0
 23 24  1  6
 24 25  2  0
 24 26  1  0
 26 27  1  0
 27 28  2  0
 28 29  1  0
 29 30  2  0
 30 31  1  0
 31 32  2  0
 23  2  1  0
 32 27  1  0
  8  4  1  0
 22 10  1  0
M  END
>  <zinc_id>  (1) 
ZINC000001903631

>  <smiles>  (1) 
C=C1Nc2ncnn2[C@H](c2ccc(OCCCCCC)cc2)[C@H]1C(=O)Nc1ccccc1

$$$$
