
     RDKit          3D

 30 33  0  0  0  0  0  0  0  0999 V2000
   -1.6439   -1.3017    1.5206 O   0  0  0  0  0  0  0  0  0  0  0  0
   -0.9341   -0.6516    0.6810 C   0  0  0  0  0  0  0  0  0  0  0  0
    0.5604   -0.7555    0.7259 C   0  0  0  0  0  0  0  0  0  0  0  0
    1.0885    0.0476   -0.2919 O   0  0  0  0  0  0  0  0  0  0  0  0
    2.4513    0.1496   -0.4932 C   0  0  0  0  0  0  0  0  0  0  0  0
    3.0229    0.9180   -1.4709 C   0  0  0  0  0  0  0  0  0  0  0  0
    4.4021    0.9735   -1.6157 C   0  0  0  0  0  0  0  0  0  0  0  0
    5.2344    0.2657   -0.7906 C   0  0  0  0  0  0  0  0  0  0  0  0
    6.6212    0.3209   -0.9355 O   0  0  0  0  0  0  0  0  0  0  0  0
    7.4200   -0.4158   -0.0729 C   0  0  0  0  0  0  0  0  0  0  0  0
    7.7969   -1.7163   -0.3645 C   0  0  0  0  0  0  0  0  0  0  0  0
    8.5922   -2.4517    0.4931 C   0  0  0  0  0  0  0  0  0  0  0  0
    9.0303   -1.8902    1.6743 C   0  0  0  0  0  0  0  0  0  0  0  0
    8.6540   -0.5976    1.9612 C   0  0  0  0  0  0  0  0  0  0  0  0
    7.8579    0.1476    1.1095 C   0  0  0  0  0  0  0  0  0  0  0  0
    4.6612   -0.5093    0.1952 C   0  0  0  0  0  0  0  0  0  0  0  0
    3.2895   -0.5592    0.3328 C   0  0  0  0  0  0  0  0  0  0  0  0
   -1.6295    0.1372   -0.2512 N   0  0  0  0  0  0  0  0  0  0  0  0
   -3.0591    0.1944   -0.2423 C   0  0  0  0  0  0  0  0  0  0  0  0
   -3.8129   -0.5123    0.6692 C   0  0  0  0  0  0  0  0  0  0  0  0
   -5.1898   -0.4485    0.6672 C   0  0  0  0  0  0  0  0  0  0  0  0
   -5.8942    0.3266   -0.2475 C   0  0  0  0  0  0  0  0  0  0  0  0
   -7.3105    0.3870   -0.2431 N   0  0  0  0  0  0  0  0  0  0  0  0
   -7.9910    1.2069   -1.2142 C   0  0  0  0  0  0  0  0  0  0  0  0
   -8.7734    2.2561   -0.4393 C   0  0  0  0  0  0  0  0  0  0  0  0
   -8.5986    2.1046    1.0480 C   0  0  0  0  0  0  0  0  0  0  0  0
   -8.8479    0.7177    1.5447 C   0  0  0  0  0  0  0  0  0  0  0  0
   -8.1299   -0.3372    0.6933 C   0  0  0  0  0  0  0  0  0  0  0  0
   -5.1225    1.0270   -1.1523 C   0  0  0  0  0  0  0  0  0  0  0  0
   -3.7455    0.9664   -1.1541 C   0  0  0  0  0  0  0  0  0  0  0  0
  1  2  2  0
  2  3  1  0
  3  4  1  0
  4  5  1  0
  5  6  2  0
  6  7  1  0
  7  8  2  0
  8  9  1  0
  9 10  1  0
 10 11  2  0
 11 12  1  0
 12 13  2  0
 13 14  1  0
 14 15  2  0
  8 16  1  0
 16 17  2  0
  2 18  1  0
 18 19  1  0
 19 20  2  0
 20 21  1  0
 21 22  2  0
 22 23  1  0
 23 24  1  0
 24 25  1  0
 25 26  1  0
 26 27  1  0
 27 28  1  0
 22 29  1  0
 29 30  2  0
 17  5  1  0
 30 19  1  0
 15 10  1  0
 28 23  1  0
M  END
>  <zinc_id>  (1) 
ZINC000003241493

>  <smiles>  (1) 
O=C(COc1ccc(Oc2ccccc2)cc1)Nc1ccc(N2CCCCC2)cc1

$$$$
