
     RDKit          3D

 31 34  0  0  0  0  0  0  0  0999 V2000
    0.3468   -0.0377   -1.5409 C   0  0  0  0  0  0  0  0  0  0  0  0
   -0.5697   -0.3504   -0.3935 C   0  0  0  0  0  0  0  0  0  0  0  0
   -0.2454   -1.0250    0.7673 C   0  0  0  0  0  0  0  0  0  0  0  0
    1.0712   -1.5637    1.0895 C   0  0  0  0  0  0  0  0  0  0  0  0
    1.3149   -2.1520    2.1709 O   0  0  0  0  0  0  0  0  0  0  0  0
    2.1464   -1.4351    0.1634 N   0  0  0  0  0  0  0  0  0  0  0  0
    3.4703   -1.9272    0.3826 C   0  0  0  0  0  0  0  0  0  0  0  0
    3.9985   -1.2193    1.6385 C   0  0  0  0  0  0  0  0  0  0  0  0
    3.9626    0.2666    1.2838 C   0  0  0  0  0  0  0  0  0  0  0  0
    4.7229    0.5659    0.2132 N   0  0  0  0  0  0  0  0  0  0  0  0
    4.5693    0.2389   -1.0781 C   0  0  0  0  0  0  0  0  0  0  0  0
    5.4784   -0.9352   -1.4405 C   0  0  0  0  0  0  0  0  0  0  0  0
    6.7277   -0.6887   -0.5728 C   0  0  0  0  0  0  0  0  0  0  0  0
    6.9174    0.7942   -0.6010 C   0  0  0  0  0  0  0  0  0  0  0  0
    5.9469    1.4530    0.5304 C   0  0  2  0  0  0  0  0  0  0  0  0
    6.4909    0.4770    1.7221 C   0  0  0  0  0  0  0  0  0  0  0  0
   -1.4249   -1.0451    1.4804 C   0  0  0  0  0  0  0  0  0  0  0  0
   -2.4268   -0.4147    0.7943 C   0  0  0  0  0  0  0  0  0  0  0  0
   -3.8205   -0.2120    1.1799 C   0  0  0  0  0  0  0  0  0  0  0  0
   -4.3275   -0.6810    2.3771 C   0  0  0  0  0  0  0  0  0  0  0  0
   -5.6519   -0.4805    2.7353 C   0  0  0  0  0  0  0  0  0  0  0  0
   -6.5172    0.1976    1.9069 C   0  0  0  0  0  0  0  0  0  0  0  0
   -6.0274    0.6704    0.7123 C   0  0  0  0  0  0  0  0  0  0  0  0
   -4.7076    0.4615    0.3729 C   0  0  0  0  0  0  0  0  0  0  0  0
   -1.8878    0.0104   -0.3613 N   0  0  0  0  0  0  0  0  0  0  0  0
   -2.5908    0.7255   -1.3866 C   0  0  0  0  0  0  0  0  0  0  0  0
   -3.0083    0.1687   -2.5527 C   0  0  0  0  0  0  0  0  0  0  0  0
   -3.6772    0.9359   -3.4773 C   0  0  0  0  0  0  0  0  0  0  0  0
   -3.9295    2.2922   -3.2184 C   0  0  0  0  0  0  0  0  0  0  0  0
   -3.5051    2.8511   -2.0377 C   0  0  0  0  0  0  0  0  0  0  0  0
   -2.8466    2.0590   -1.1486 C   0  0  0  0  0  0  0  0  0  0  0  0
  1  2  1  0
  2  3  2  0
  3  4  1  0
  4  5  2  0
  4  6  1  0
  6  7  1  0
  7  8  1  0
  8  9  1  0
  9 10  1  0
 10 11  1  0
 11 12  1  0
 12 13  1  0
 13 14  1  0
 14 15  1  0
 15 16  1  1
  3 17  1  0
 17 18  2  0
 18 19  1  0
 19 20  2  0
 20 21  1  0
 21 22  2  0
 22 23  1  0
 23 24  2  0
 18 25  1  0
 25 26  1  0
 26 27  2  0
 27 28  1  0
 28 29  2  0
 29 30  1  0
 30 31  2  0
 25  2  1  0
 31 26  1  0
 15 10  1  0
 24 19  1  0
M  END
>  <zinc_id>  (1) 
ZINC000004370003

>  <smiles>  (1) 
Cc1c(C(=O)NCCCN2CCCC[C@@H]2C)cc(-c2ccccc2)n1-c1ccccc1

$$$$
