
     RDKit          3D

 31 34  0  0  0  0  0  0  0  0999 V2000
    7.9954    1.6385    1.0957 C   0  0  0  0  0  0  0  0  0  0  0  0
    7.0268    2.1979    0.2320 O   0  0  0  0  0  0  0  0  0  0  0  0
    5.7404    1.6902    0.2084 C   0  0  0  0  0  0  0  0  0  0  0  0
    5.3942    0.6365    1.0261 C   0  0  0  0  0  0  0  0  0  0  0  0
    4.0880    0.1478    0.9781 C   0  0  0  0  0  0  0  0  0  0  0  0
    3.1405    0.6853    0.1418 C   0  0  0  0  0  0  0  0  0  0  0  0
    1.7638    0.1244    0.1322 C   0  0  0  0  0  0  0  0  0  0  0  0
    0.8895    0.8364    1.1458 C   0  0  0  0  0  0  0  0  0  0  0  0
   -0.4390    0.2242    1.0689 N   0  0  0  0  0  0  0  0  0  0  0  0
   -0.5587   -1.1546    1.3393 C   0  0  0  0  0  0  0  0  0  0  0  0
    0.4839   -1.8086    1.6374 O   0  0  0  0  0  0  0  0  0  0  0  0
   -1.8691   -1.7818    1.2682 C   0  0  0  0  0  0  0  0  0  0  0  0
   -2.1484   -3.1105    1.5031 C   0  0  0  0  0  0  0  0  0  0  0  0
   -3.5165   -3.3152    1.3343 C   0  0  0  0  0  0  0  0  0  0  0  0
   -4.5665   -4.2065    1.3583 C   0  0  0  0  0  0  0  0  0  0  0  0
   -5.6791   -3.4864    1.0355 C   0  0  0  0  0  0  0  0  0  0  0  0
   -5.3268   -2.2447    0.8302 O   0  0  0  0  0  0  0  0  0  0  0  0
   -4.0280   -2.0812    0.9970 C   0  0  0  0  0  0  0  0  0  0  0  0
   -3.0230   -1.1715    0.9622 N   0  0  0  0  0  0  0  0  0  0  0  0
   -3.1355    0.2303    0.6618 C   0  0  0  0  0  0  0  0  0  0  0  0
   -2.9969    0.5935   -0.7445 C   0  0  0  0  0  0  0  0  0  0  0  0
   -3.0909    1.9424   -1.0559 C   0  0  0  0  0  0  0  0  0  0  0  0
   -2.9824    2.4322   -2.3173 C   0  0  0  0  0  0  0  0  0  0  0  0
   -2.7687    1.5748   -3.3591 C   0  0  0  0  0  0  0  0  0  0  0  0
   -2.6674    0.2243   -3.1054 C   0  0  0  0  0  0  0  0  0  0  0  0
   -2.7822   -0.2614   -1.7968 C   0  0  0  0  0  0  0  0  0  0  0  0
   -2.6751   -1.6989   -1.5240 C   0  0  0  0  0  0  0  0  0  0  0  0
    3.4804    1.7406   -0.6796 C   0  0  0  0  0  0  0  0  0  0  0  0
    4.7886    2.2303   -0.6318 C   0  0  0  0  0  0  0  0  0  0  0  0
    5.1973    3.2953   -1.4362 O   0  0  0  0  0  0  0  0  0  0  0  0
    4.2654    3.8764   -2.3058 C   0  0  0  0  0  0  0  0  0  0  0  0
  1  2  1  0
  2  3  1  0
  3  4  2  0
  4  5  1  0
  5  6  2  0
  6  7  1  0
  7  8  1  0
  8  9  1  0
  9 10  1  0
 10 11  2  0
 10 12  1  0
 12 13  2  0
 13 14  1  0
 14 15  1  0
 15 16  2  0
 16 17  1  0
 17 18  1  0
 18 19  1  0
 19 20  1  0
 20 21  1  0
 21 22  2  0
 22 23  1  0
 23 24  2  0
 24 25  1  0
 25 26  2  0
 26 27  1  0
  6 28  1  0
 28 29  2  0
 29 30  1  0
 30 31  1  0
 29  3  1  0
 19 12  1  0
 26 21  1  0
 18 14  2  0
M  END
>  <zinc_id>  (1) 
ZINC000004379032

>  <smiles>  (1) 
COc1ccc(CCNC(=O)c2cc3ccoc3n2Cc2ccccc2C)cc1OC

$$$$
