
     RDKit          3D

 32 35  0  0  0  0  0  0  0  0999 V2000
   -5.8847   -4.0912    2.4419 C   0  0  0  0  0  0  0  0  0  0  0  0
   -4.9064   -3.7739    1.2991 C   0  0  0  0  0  0  0  0  0  0  0  0
   -4.9319   -2.3681    1.1445 O   0  0  0  0  0  0  0  0  0  0  0  0
   -4.2097   -1.6560    0.2037 C   0  0  0  0  0  0  0  0  0  0  0  0
   -3.4683   -2.2525   -0.5799 O   0  0  0  0  0  0  0  0  0  0  0  0
   -4.3194   -0.1876    0.1280 C   0  0  0  0  0  0  0  0  0  0  0  0
   -5.1191    0.5801    0.9851 C   0  0  0  0  0  0  0  0  0  0  0  0
   -5.0296    1.9116    0.6528 C   0  0  0  0  0  0  0  0  0  0  0  0
   -4.1666    1.9605   -0.4185 C   0  0  0  0  0  0  0  0  0  0  0  0
   -4.0135    3.2744   -0.8270 C   0  0  0  0  0  0  0  0  0  0  0  0
   -4.8183    4.0194    0.0410 C   0  0  0  0  0  0  0  0  0  0  0  0
   -5.4052    3.1913    0.9026 N   0  0  0  0  0  0  0  0  0  0  0  0
   -6.3110    3.5704    1.9589 C   0  0  0  0  0  0  0  0  0  0  0  0
   -3.7565    0.6860   -0.7106 N   0  0  0  0  0  0  0  0  0  0  0  0
   -2.8539    0.3174   -1.8038 C   0  0  0  0  0  0  0  0  0  0  0  0
   -1.4715    0.4215   -1.3146 C   0  0  0  0  0  0  0  0  0  0  0  0
   -1.0926    1.4839   -0.7651 O   0  0  0  0  0  0  0  0  0  0  0  0
   -0.5617   -0.6516   -1.4526 N   0  0  0  0  0  0  0  0  0  0  0  0
    0.7718   -0.4736   -0.9561 C   0  0  0  0  0  0  0  0  0  0  0  0
    1.1998    0.6450   -0.3082 C   0  0  0  0  0  0  0  0  0  0  0  0
    2.4978    0.7424    0.1181 C   0  0  0  0  0  0  0  0  0  0  0  0
    3.4172   -0.2845   -0.0908 C   0  0  0  0  0  0  0  0  0  0  0  0
    4.7213   -0.1649    0.3501 O   0  0  0  0  0  0  0  0  0  0  0  0
    5.6781   -1.1584    0.1566 C   0  0  0  0  0  0  0  0  0  0  0  0
    6.9868   -0.8119    0.7175 C   0  0  0  0  0  0  0  0  0  0  0  0
    7.0773    0.0612    1.7741 C   0  0  0  0  0  0  0  0  0  0  0  0
    8.3243    0.4080    2.3233 C   0  0  0  0  0  0  0  0  0  0  0  0
    9.4620   -0.1199    1.8067 C   0  0  0  0  0  0  0  0  0  0  0  0
    9.3733   -0.9953    0.7468 C   0  0  0  0  0  0  0  0  0  0  0  0
    8.1508   -1.3640    0.1776 C   0  0  0  0  0  0  0  0  0  0  0  0
    2.9810   -1.4117   -0.7446 C   0  0  0  0  0  0  0  0  0  0  0  0
    1.6785   -1.5077   -1.1715 C   0  0  0  0  0  0  0  0  0  0  0  0
  1  2  1  0
  2  3  1  0
  3  4  1  0
  4  5  2  0
  4  6  1  0
  6  7  2  0
  7  8  1  0
  8  9  2  0
  9 10  1  0
 10 11  2  0
 11 12  1  0
 12 13  1  0
  9 14  1  0
 14 15  1  0
 15 16  1  0
 16 17  2  0
 16 18  1  0
 18 19  1  0
 19 20  2  0
 20 21  1  0
 21 22  2  0
 22 23  1  0
 23 24  1  0
 24 25  1  0
 25 26  2  0
 26 27  1  0
 27 28  2  0
 28 29  1  0
 29 30  2  0
 22 31  1  0
 31 32  2  0
 14  6  1  0
 32 19  1  0
 12  8  1  0
 30 25  1  0
M  END
>  <zinc_id>  (1) 
ZINC000001338009

>  <smiles>  (1) 
CCOC(=O)c1cc2c(ccn2C)n1CC(=O)Nc1ccc(OCc2ccccc2)cc1

$$$$
