
     RDKit          3D

 30 32  0  0  0  0  0  0  0  0999 V2000
    4.7241   -2.8435   -1.2328 C   0  0  0  0  0  0  0  0  0  0  0  0
    4.2266   -1.8794   -0.2095 C   0  0  0  0  0  0  0  0  0  0  0  0
    4.9422   -0.5576   -0.2970 C   0  0  0  0  0  0  0  0  0  0  0  0
    5.9285   -0.3239   -1.2293 C   0  0  0  0  0  0  0  0  0  0  0  0
    6.5826    0.8914   -1.3057 C   0  0  0  0  0  0  0  0  0  0  0  0
    6.2297    1.8985   -0.4146 C   0  0  0  0  0  0  0  0  0  0  0  0
    5.2500    1.7012    0.5294 C   0  0  0  0  0  0  0  0  0  0  0  0
    4.8705    2.7880    1.4896 C   0  0  0  0  0  0  0  0  0  0  0  0
    4.6284    0.4723    0.5642 C   0  0  0  0  0  0  0  0  0  0  0  0
    3.6171    0.2454    1.5267 N   0  0  0  0  0  0  0  0  0  0  0  0
    2.2777    0.5517    1.1723 C   0  0  0  0  0  0  0  0  0  0  0  0
    2.0507    1.0083    0.0255 O   0  0  0  0  0  0  0  0  0  0  0  0
    1.2035    0.3151    2.1827 C   0  0  0  0  0  0  0  0  0  0  0  0
   -0.0184    0.6875    1.6096 O   0  0  0  0  0  0  0  0  0  0  0  0
   -0.4923    0.0708    0.4538 C   0  0  0  0  0  0  0  0  0  0  0  0
    0.1706   -0.8337   -0.0970 O   0  0  0  0  0  0  0  0  0  0  0  0
   -1.8454    0.5294   -0.1241 C   0  0  1  0  0  0  0  0  0  0  0  0
   -2.3030   -1.0802   -1.0177 S   0  0  0  0  0  0  0  0  0  0  0  0
   -3.8813   -0.8272   -1.8032 C   0  0  0  0  0  0  0  0  0  0  0  0
   -5.0135   -1.1390   -1.0672 C   0  0  0  0  0  0  0  0  0  0  0  0
   -6.2899   -0.9850   -1.5690 C   0  0  0  0  0  0  0  0  0  0  0  0
   -6.4519   -0.5000   -2.8591 C   0  0  0  0  0  0  0  0  0  0  0  0
   -5.3170   -0.1896   -3.5913 C   0  0  0  0  0  0  0  0  0  0  0  0
   -4.0408   -0.3529   -3.0647 C   0  0  0  0  0  0  0  0  0  0  0  0
   -2.7353    0.2655    1.1504 C   0  0  0  0  0  0  0  0  0  0  0  0
   -2.5817   -0.8793    1.8451 C   0  0  0  0  0  0  0  0  0  0  0  0
   -3.3660   -1.1016    2.9606 C   0  0  0  0  0  0  0  0  0  0  0  0
   -4.2937   -0.1630    3.3568 C   0  0  0  0  0  0  0  0  0  0  0  0
   -4.4325    1.0014    2.6291 C   0  0  0  0  0  0  0  0  0  0  0  0
   -3.6397    1.2295    1.4990 C   0  0  0  0  0  0  0  0  0  0  0  0
  1  2  1  0
  2  3  1  0
  3  4  2  0
  4  5  1  0
  5  6  2  0
  6  7  1  0
  7  8  1  0
  7  9  2  0
  9 10  1  0
 10 11  1  0
 11 12  2  0
 11 13  1  0
 13 14  1  0
 14 15  1  0
 15 16  2  0
 17 15  1  1
 17 18  1  0
 18 19  1  0
 19 20  2  0
 20 21  1  0
 21 22  2  0
 22 23  1  0
 23 24  2  0
 17 25  1  0
 25 26  2  0
 26 27  1  0
 27 28  2  0
 28 29  1  0
 29 30  2  0
  9  3  1  0
 24 19  1  0
 30 25  1  0
M  END
>  <zinc_id>  (1) 
ZINC000003273347

>  <smiles>  (1) 
CCc1cccc(C)c1NC(=O)COC(=O)[C@@H](Sc1ccccc1)c1ccccc1

$$$$
