
     RDKit          3D

 31 34  0  0  0  0  0  0  0  0999 V2000
    8.3544   -2.0214    1.2459 C   0  0  0  0  0  0  0  0  0  0  0  0
    6.9307   -1.7580    0.8351 C   0  0  0  0  0  0  0  0  0  0  0  0
    5.9134   -2.6290    1.1590 C   0  0  0  0  0  0  0  0  0  0  0  0
    4.5975   -2.3588    0.7637 C   0  0  0  0  0  0  0  0  0  0  0  0
    4.2860   -1.2315    0.0501 C   0  0  0  0  0  0  0  0  0  0  0  0
    2.9456   -0.9594   -0.3516 N   0  0  0  0  0  0  0  0  0  0  0  0
    1.9726   -1.8171   -0.6070 N   0  0  0  0  0  0  0  0  0  0  0  0
    0.8354   -1.1978   -0.9619 C   0  0  0  0  0  0  0  0  0  0  0  0
   -0.4824   -1.8060   -1.3267 C   0  0  0  0  0  0  0  0  0  0  0  0
    1.0827    0.1524   -0.9365 C   0  0  0  0  0  0  0  0  0  0  0  0
    0.2559    1.2703   -1.2183 N   0  0  0  0  0  0  0  0  0  0  0  0
    0.1737    1.7995   -2.5299 C   0  0  0  0  0  0  0  0  0  0  0  0
    0.8688    1.2209   -3.4048 O   0  0  0  0  0  0  0  0  0  0  0  0
   -0.6878    2.9661   -2.8226 C   0  0  0  0  0  0  0  0  0  0  0  0
   -1.3319    3.3524   -1.6329 O   0  0  0  0  0  0  0  0  0  0  0  0
   -2.1945    2.5482   -0.8962 C   0  0  0  0  0  0  0  0  0  0  0  0
   -2.5250    1.2580   -1.2557 C   0  0  0  0  0  0  0  0  0  0  0  0
   -3.3874    0.4838   -0.4999 C   0  0  0  0  0  0  0  0  0  0  0  0
   -3.9636    0.9660    0.6579 C   0  0  0  0  0  0  0  0  0  0  0  0
   -4.8737    0.1544    1.4579 C   0  0  0  0  0  0  0  0  0  0  0  0
   -5.8788    0.7884    2.1569 C   0  0  0  0  0  0  0  0  0  0  0  0
   -6.7850    0.1059    2.9392 C   0  0  0  0  0  0  0  0  0  0  0  0
   -6.7064   -1.2633    3.0447 C   0  0  0  0  0  0  0  0  0  0  0  0
   -5.7130   -1.9267    2.3583 C   0  0  0  0  0  0  0  0  0  0  0  0
   -4.8025   -1.2162    1.5691 C   0  0  0  0  0  0  0  0  0  0  0  0
   -3.6305    2.2587    1.0155 C   0  0  0  0  0  0  0  0  0  0  0  0
   -2.7709    3.0322    0.2634 C   0  0  0  0  0  0  0  0  0  0  0  0
    2.4003    0.2686   -0.5540 C   0  0  0  0  0  0  0  0  0  0  0  0
    3.1885    1.5204   -0.3649 C   0  0  0  0  0  0  0  0  0  0  0  0
    5.3045   -0.3618   -0.2727 C   0  0  0  0  0  0  0  0  0  0  0  0
    6.6235   -0.6245    0.1189 C   0  0  0  0  0  0  0  0  0  0  0  0
  1  2  1  0
  2  3  2  0
  3  4  1  0
  4  5  2  0
  5  6  1  0
  6  7  1  0
  7  8  2  0
  8  9  1  0
  8 10  1  0
 10 11  1  0
 11 12  1  0
 12 13  2  0
 12 14  1  0
 14 15  1  0
 15 16  1  0
 16 17  2  0
 17 18  1  0
 18 19  2  0
 19 20  1  0
 20 21  2  0
 21 22  1  0
 22 23  2  0
 23 24  1  0
 24 25  2  0
 19 26  1  0
 26 27  2  0
 10 28  2  0
 28 29  1  0
  5 30  1  0
 30 31  2  0
 31  2  1  0
 28  6  1  0
 27 16  1  0
 25 20  1  0
M  END
>  <zinc_id>  (1) 
ZINC000003355881

>  <smiles>  (1) 
Cc1ccc(-n2nc(C)c(NC(=O)COc3ccc(-c4ccccc4)cc3)c2C)cc1

$$$$
