
     RDKit          3D

 33 36  0  0  0  0  0  0  0  0999 V2000
   -5.6262   -2.4833    1.5705 C   0  0  0  0  0  0  0  0  0  0  0  0
   -4.3465   -2.0693    1.1512 O   0  0  0  0  0  0  0  0  0  0  0  0
   -3.5822   -2.9579    0.4104 C   0  0  0  0  0  0  0  0  0  0  0  0
   -4.0469   -4.2279    0.0792 C   0  0  0  0  0  0  0  0  0  0  0  0
   -3.2870   -5.1005   -0.6526 C   0  0  0  0  0  0  0  0  0  0  0  0
   -2.0240   -4.7050   -1.0720 C   0  0  0  0  0  0  0  0  0  0  0  0
   -1.5764   -3.4433   -0.7365 C   0  0  0  0  0  0  0  0  0  0  0  0
   -2.3463   -2.5681    0.0012 C   0  0  0  0  0  0  0  0  0  0  0  0
   -1.7843   -1.2885    0.2910 N   0  0  0  0  0  0  0  0  0  0  0  0
   -0.4910   -0.9085   -0.1492 C   0  0  0  0  0  0  0  0  0  0  0  0
    0.1318   -1.7578   -0.8068 O   0  0  0  0  0  0  0  0  0  0  0  0
    0.0776    0.4342    0.1647 C   0  0  0  0  0  0  0  0  0  0  0  0
    1.3327    0.7450   -0.2874 C   0  0  0  0  0  0  0  0  0  0  0  0
    2.2192   -0.0646   -1.0516 N   0  0  0  0  0  0  0  0  0  0  0  0
    3.5017    0.4218   -1.4410 C   0  0  0  0  0  0  0  0  0  0  0  0
    3.8316    1.5645   -1.1014 O   0  0  0  0  0  0  0  0  0  0  0  0
    4.4039   -0.4150   -2.2244 C   0  0  0  0  0  0  0  0  0  0  0  0
    5.6407    0.0747   -2.5905 C   0  0  0  0  0  0  0  0  0  0  0  0
    6.5367   -0.6689   -3.3307 C   0  0  0  0  0  0  0  0  0  0  0  0
    6.2128   -1.9592   -3.7373 C   0  0  0  0  0  0  0  0  0  0  0  0
    4.9776   -2.4238   -3.3610 C   0  0  0  0  0  0  0  0  0  0  0  0
    4.0826   -1.6875   -2.6245 C   0  0  0  0  0  0  0  0  0  0  0  0
    1.5712    2.3321    0.2864 S   0  0  0  0  0  0  0  0  0  0  0  0
    0.0828    2.5652    1.0822 C   0  0  0  0  0  0  0  0  0  0  0  0
   -0.5550    1.3890    0.8724 C   0  0  0  0  0  0  0  0  0  0  0  0
   -1.9422    1.2894    1.4763 C   0  0  0  0  0  0  0  0  0  0  0  0
   -2.3841    2.5339    2.0647 C   0  0  0  0  0  0  0  0  0  0  0  0
   -1.1906    3.0714    3.0787 C   0  0  2  0  0  0  0  0  0  0  0  0
   -2.0451    4.4180    3.4889 C   0  0  0  0  0  0  0  0  0  0  0  0
   -1.2191    5.1823    4.4482 C   0  0  0  0  0  0  0  0  0  0  0  0
   -3.2600    3.8655    4.2455 C   0  0  0  0  0  0  0  0  0  0  0  0
   -2.4954    5.0875    2.2840 C   0  0  0  0  0  0  0  0  0  0  0  0
   -0.4006    3.7545    1.8190 C   0  0  0  0  0  0  0  0  0  0  0  0
  1  2  1  0
  2  3  1  0
  3  4  2  0
  4  5  1  0
  5  6  2  0
  6  7  1  0
  7  8  2  0
  8  9  1  0
  9 10  1  0
 10 11  2  0
 10 12  1  0
 12 13  2  0
 13 14  1  0
 14 15  1  0
 15 16  2  0
 15 17  1  0
 17 18  2  0
 18 19  1  0
 19 20  2  0
 20 21  1  0
 21 22  2  0
 13 23  1  0
 23 24  1  0
 24 25  2  0
 25 26  1  0
 26 27  1  0
 27 28  1  0
 28 29  1  1
 29 30  1  0
 29 31  1  0
 29 32  1  0
 28 33  1  0
  8  3  1  0
 25 12  1  0
 22 17  1  0
 33 24  1  0
M  END
>  <zinc_id>  (1) 
ZINC000002984995

>  <smiles>  (1) 
COc1ccccc1NC(=O)c1c(NC(=O)c2ccccc2)sc2c1CC[C@H](C(C)(C)C)C2

$$$$
