
     RDKit          3D

 31 34  0  0  0  0  0  0  0  0999 V2000
    0.1363   -7.7898   -1.5493 C   0  0  0  0  0  0  0  0  0  0  0  0
   -0.3558   -6.4081   -1.4041 C   0  0  0  0  0  0  0  0  0  0  0  0
   -1.0897   -5.9200   -2.6087 C   0  0  0  0  0  0  0  0  0  0  0  0
   -0.0934   -5.8482   -3.8481 C   0  0  0  0  0  0  0  0  0  0  0  0
   -0.6276   -4.7554   -4.7298 O   0  0  0  0  0  0  0  0  0  0  0  0
   -0.5974   -3.5456   -4.0428 C   0  0  0  0  0  0  0  0  0  0  0  0
   -0.8874   -2.2875   -4.5624 C   0  0  0  0  0  0  0  0  0  0  0  0
   -0.7779   -1.2046   -3.5720 C   0  0  0  0  0  0  0  0  0  0  0  0
   -0.4475   -1.3971   -2.3477 C   0  0  0  0  0  0  0  0  0  0  0  0
   -0.0986   -0.4008   -1.4392 N   0  0  0  0  0  0  0  0  0  0  0  0
    0.2121    0.4939   -0.6199 C   0  0  0  0  0  0  0  0  0  0  0  0
   -0.0695    1.0696    0.4978 N   0  0  0  0  0  0  0  0  0  0  0  0
    0.4503    2.0538    1.2142 C   0  0  0  0  0  0  0  0  0  0  0  0
   -0.2213    2.3062    2.5393 C   0  0  0  0  0  0  0  0  0  0  0  0
    0.1424    3.2454    3.3896 C   0  0  0  0  0  0  0  0  0  0  0  0
   -0.4851    3.3828    4.7105 C   0  0  0  0  0  0  0  0  0  0  0  0
   -1.4832    2.5119    5.0626 C   0  0  0  0  0  0  0  0  0  0  0  0
   -2.2396    2.5376    6.2561 N   0  0  0  0  0  4  0  0  0  0  0  0
   -3.2183    1.7663    6.4254 O   0  0  0  0  0  0  0  0  0  0  0  0
   -1.9586    3.4038    7.2464 O   0  0  0  0  0  1  0  0  0  0  0  0
   -1.8813    1.4826    4.1149 C   0  0  0  0  0  0  0  0  0  0  0  0
   -1.2316    1.4663    2.9650 C   0  0  0  0  0  0  0  0  0  0  0  0
    1.4827    2.6033    0.7229 N   0  0  0  0  0  0  0  0  0  0  0  0
    2.0670    2.2384   -0.4812 C   0  0  0  0  0  0  0  0  0  0  0  0
    3.1571    2.7877   -0.9518 C   0  0  0  0  0  0  0  0  0  0  0  0
    3.8212    2.4201   -2.1608 C   0  0  0  0  0  0  0  0  0  0  0  0
    3.1677    1.3349   -2.8647 C   0  0  0  0  0  0  0  0  0  0  0  0
    2.0607    0.8309   -2.3142 C   0  0  0  0  0  0  0  0  0  0  0  0
    1.4684    1.2213   -1.1482 C   0  0  0  0  0  0  0  0  0  0  0  0
   -0.1493   -2.6745   -1.7722 C   0  0  0  0  0  0  0  0  0  0  0  0
   -0.2527   -3.7152   -2.7276 C   0  0  0  0  0  0  0  0  0  0  0  0
  1  2  1  0
  2  3  1  0
  3  4  1  0
  4  5  1  0
  5  6  1  0
  6  7  2  0
  7  8  1  0
  8  9  2  0
  9 10  1  0
 10 11  1  0
 11 12  2  0
 12 13  1  0
 13 14  1  0
 14 15  2  0
 15 16  1  0
 16 17  2  0
 17 18  1  0
 18 19  2  0
 18 20  1  0
 17 21  1  0
 21 22  2  0
 13 23  2  0
 23 24  1  0
 24 25  2  0
 25 26  1  0
 26 27  2  0
 27 28  1  0
 28 29  2  0
  9 30  1  0
 30 31  2  0
 31  6  1  0
 29 11  1  0
 22 14  1  0
 29 24  1  0
M  CHG  2  18   1  20  -1
M  END
>  <zinc_id>  (1) 
ZINC000001774787

>  <smiles>  (1) 
CCCCOc1ccc(Nc2nc(-c3ccc([N+](=O)[O-])cc3)nc3ccccc23)cc1

$$$$
