
     RDKit          3D

 29 31  0  0  0  0  0  0  0  0999 V2000
    2.0896    2.9699   -2.0674 C   0  0  0  0  0  0  0  0  0  0  0  0
    1.4881    2.0916   -1.3063 C   0  0  0  0  0  0  0  0  0  0  0  0
    1.7984    0.6596   -1.3078 C   0  0  0  0  0  0  0  0  0  0  0  0
    2.2379    0.1596   -0.0305 N   0  0  0  0  0  0  0  0  0  0  0  0
    1.3576   -0.3017    0.8890 C   0  0  0  0  0  0  0  0  0  0  0  0
   -0.4187   -0.3754    0.7190 S   0  0  0  0  0  0  0  0  0  0  0  0
   -0.9626   -1.9280   -0.0023 C   0  0  0  0  0  0  0  0  0  0  0  0
   -2.4387   -1.9109   -0.1105 C   0  0  0  0  0  0  0  0  0  0  0  0
   -2.9725   -2.9577   -0.6085 O   0  0  0  0  0  0  0  0  0  0  0  0
   -3.2820   -0.8668    0.2786 N   0  0  0  0  0  0  0  0  0  0  0  0
   -4.7031   -1.0126    0.1037 C   0  0  0  0  0  0  0  0  0  0  0  0
   -5.2314   -2.1710   -0.4427 C   0  0  0  0  0  0  0  0  0  0  0  0
   -6.5870   -2.3278   -0.6175 C   0  0  0  0  0  0  0  0  0  0  0  0
   -7.4749   -1.3311   -0.2530 C   0  0  0  0  0  0  0  0  0  0  0  0
   -6.9242   -0.1880    0.2886 C   0  0  0  0  0  0  0  0  0  0  0  0
   -5.5676   -0.0242    0.4665 C   0  0  0  0  0  0  0  0  0  0  0  0
   -5.0196    1.2307    1.0557 C   0  0  0  0  0  0  0  0  0  0  0  0
   -6.1860    2.1540    1.3863 C   0  0  0  0  0  0  0  0  0  0  0  0
   -4.2036    1.9778   -0.0078 C   0  0  0  0  0  0  0  0  0  0  0  0
    2.0833   -0.6915    1.9508 N   0  0  0  0  0  0  0  0  0  0  0  0
    3.3529   -0.4727    1.6793 N   0  0  0  0  0  0  0  0  0  0  0  0
    3.4955    0.0648    0.4362 C   0  0  0  0  0  0  0  0  0  0  0  0
    4.7314    0.4414   -0.2263 C   0  0  0  0  0  0  0  0  0  0  0  0
    4.7335    0.9638   -1.4901 C   0  0  0  0  0  0  0  0  0  0  0  0
    5.9275    1.3170   -2.1068 C   0  0  0  0  0  0  0  0  0  0  0  0
    7.1375    1.1556   -1.4751 C   0  0  0  0  0  0  0  0  0  0  0  0
    7.1416    0.6301   -0.2027 C   0  0  0  0  0  0  0  0  0  0  0  0
    8.4539    0.4619    0.4655 C   0  0  0  0  0  0  0  0  0  0  0  0
    5.9435    0.2818    0.4014 C   0  0  0  0  0  0  0  0  0  0  0  0
  1  2  2  0
  2  3  1  0
  3  4  1  0
  4  5  1  0
  5  6  1  0
  6  7  1  0
  7  8  1  0
  8  9  2  0
  8 10  1  0
 10 11  1  0
 11 12  2  0
 12 13  1  0
 13 14  2  0
 14 15  1  0
 15 16  2  0
 16 17  1  0
 17 18  1  0
 17 19  1  0
  5 20  2  0
 20 21  1  0
 21 22  2  0
 22 23  1  0
 23 24  2  0
 24 25  1  0
 25 26  2  0
 26 27  1  0
 27 28  1  0
 27 29  2  0
 22  4  1  0
 29 23  1  0
 16 11  1  0
M  END
>  <zinc_id>  (1) 
ZINC000002442745

>  <smiles>  (1) 
C=CCn1c(SCC(=O)Nc2ccccc2C(C)C)nnc1-c1cccc(C)c1

$$$$
