
     RDKit          3D

 30 32  0  0  0  0  0  0  0  0999 V2000
   -3.7242   -3.6378   -1.0560 C   0  0  0  0  0  0  0  0  0  0  0  0
   -3.3213   -3.3222    0.3250 C   0  0  0  0  0  0  0  0  0  0  0  0
   -4.0248   -2.2305    0.9805 C   0  0  0  0  0  0  0  0  0  0  0  0
   -4.9870   -2.6054    1.9339 C   0  0  0  0  0  0  0  0  0  0  0  0
   -5.7008   -1.6372    2.6040 C   0  0  0  0  0  0  0  0  0  0  0  0
   -5.4695   -0.3247    2.3386 C   0  0  0  0  0  0  0  0  0  0  0  0
   -4.5134    0.0308    1.3918 C   0  0  0  0  0  0  0  0  0  0  0  0
   -4.3127    1.4661    1.1530 C   0  0  0  0  0  0  0  0  0  0  0  0
   -3.0719    2.0198    1.7750 C   0  0  0  0  0  0  0  0  0  0  0  0
   -3.7869   -0.9044    0.7081 C   0  0  0  0  0  0  0  0  0  0  0  0
   -2.8236   -0.5582   -0.2469 N   0  0  0  0  0  0  0  0  0  0  0  0
   -3.0736   -0.3860   -1.5992 C   0  0  0  0  0  0  0  0  0  0  0  0
   -4.2084   -0.5322   -2.0711 O   0  0  0  0  0  0  0  0  0  0  0  0
   -1.9527    0.0044   -2.6355 C   0  0  2  0  0  0  0  0  0  0  0  0
   -1.5935   -1.5683   -3.0669 C   0  0  0  0  0  0  0  0  0  0  0  0
   -0.7785    0.0747   -1.6481 O   0  0  0  0  0  0  0  0  0  0  0  0
    0.4486    0.4087   -2.2113 C   0  0  0  0  0  0  0  0  0  0  0  0
    0.4827    0.6162   -3.4381 O   0  0  0  0  0  0  0  0  0  0  0  0
    1.6657    0.5205   -1.4275 C   0  0  0  0  0  0  0  0  0  0  0  0
    1.7063    0.3058   -0.0690 C   0  0  0  0  0  0  0  0  0  0  0  0
    2.9062    0.4294    0.6189 C   0  0  0  0  0  0  0  0  0  0  0  0
    4.0915    0.7660   -0.0098 C   0  0  0  0  0  0  0  0  0  0  0  0
    5.3309    0.8816    0.7664 C   0  0  0  0  0  0  0  0  0  0  0  0
    6.3280    1.7543    0.4196 C   0  0  0  0  0  0  0  0  0  0  0  0
    7.5066    1.8910    1.1230 C   0  0  0  0  0  0  0  0  0  0  0  0
    7.7198    1.1169    2.2440 C   0  0  0  0  0  0  0  0  0  0  0  0
    6.7212    0.2294    2.6080 C   0  0  0  0  0  0  0  0  0  0  0  0
    5.5436    0.1032    1.8923 C   0  0  0  0  0  0  0  0  0  0  0  0
    4.0413    0.9776   -1.3602 C   0  0  0  0  0  0  0  0  0  0  0  0
    2.8501    0.8548   -2.0428 C   0  0  0  0  0  0  0  0  0  0  0  0
  1  2  1  0
  2  3  1  0
  3  4  2  0
  4  5  1  0
  5  6  2  0
  6  7  1  0
  7  8  1  0
  8  9  1  0
  7 10  2  0
 10 11  1  0
 11 12  1  0
 12 13  2  0
 12 14  1  0
 14 15  1  6
 14 16  1  0
 16 17  1  0
 17 18  2  0
 17 19  1  0
 19 20  2  0
 20 21  1  0
 21 22  2  0
 22 23  1  0
 23 24  2  0
 24 25  1  0
 25 26  2  0
 26 27  1  0
 27 28  2  0
 22 29  1  0
 29 30  2  0
 10  3  1  0
 30 19  1  0
 28 23  1  0
M  END
>  <zinc_id>  (1) 
ZINC000001984573

>  <smiles>  (1) 
CCc1cccc(CC)c1NC(=O)[C@H](C)OC(=O)c1ccc(-c2ccccc2)cc1

$$$$
