
     RDKit          3D

 31 34  0  0  0  0  0  0  0  0999 V2000
   -8.5110    0.1666    2.5695 C   0  0  0  0  0  0  0  0  0  0  0  0
   -7.3408   -0.4480    3.0320 O   0  0  0  0  0  0  0  0  0  0  0  0
   -6.1553   -0.3604    2.3151 C   0  0  0  0  0  0  0  0  0  0  0  0
   -6.1078    0.3372    1.1289 C   0  0  0  0  0  0  0  0  0  0  0  0
   -4.9325    0.4358    0.3977 C   0  0  0  0  0  0  0  0  0  0  0  0
   -3.7600   -0.1581    0.8231 C   0  0  0  0  0  0  0  0  0  0  0  0
   -2.5378   -0.0417    0.0350 C   0  0  0  0  0  0  0  0  0  0  0  0
   -1.3561   -0.6310    0.4354 C   0  0  0  0  0  0  0  0  0  0  0  0
   -0.1833   -0.5471   -0.2821 C   0  0  0  0  0  0  0  0  0  0  0  0
    0.9886   -1.2254    0.2624 C   0  0  0  0  0  0  0  0  0  0  0  0
    0.9485   -1.8483    1.3540 O   0  0  0  0  0  0  0  0  0  0  0  0
    2.1731   -1.1867   -0.4330 N   0  0  0  0  0  0  0  0  0  0  0  0
    3.4609   -1.9147    0.1331 C   0  0  2  0  0  0  0  0  0  0  0  0
    2.6850   -3.1833    0.8774 C   0  0  0  0  0  0  0  0  0  0  0  0
    3.4451   -1.0081    1.5495 C   0  0  0  0  0  0  0  0  0  0  0  0
    3.5874    0.3832    0.9686 C   0  0  0  0  0  0  0  0  0  0  0  0
    4.8596    0.5145    0.1927 C   0  0  0  0  0  0  0  0  0  0  0  0
    5.9919    0.9299    0.8269 C   0  0  0  0  0  0  0  0  0  0  0  0
    7.1556    1.0462    0.1122 C   0  0  0  0  0  0  0  0  0  0  0  0
    7.1880    0.7442   -1.2511 C   0  0  0  0  0  0  0  0  0  0  0  0
    6.0330    0.3234   -1.8850 C   0  0  0  0  0  0  0  0  0  0  0  0
    4.8749    0.2123   -1.1535 C   0  0  0  0  0  0  0  0  0  0  0  0
   -0.1928    0.1526   -1.4433 C   0  0  0  0  0  0  0  0  0  0  0  0
    0.9729    0.2364   -2.1575 C   0  0  0  0  0  0  0  0  0  0  0  0
    0.9510    0.9565   -3.3471 C   0  0  0  0  0  0  0  0  0  0  0  0
   -0.2082    1.5663   -3.7923 C   0  0  0  0  0  0  0  0  0  0  0  0
   -1.3509    1.4551   -3.0439 C   0  0  0  0  0  0  0  0  0  0  0  0
   -1.3786    0.7529   -1.8595 C   0  0  0  0  0  0  0  0  0  0  0  0
   -2.5016    0.6429   -1.1236 N   0  0  0  0  0  0  0  0  0  0  0  0
   -3.8161   -0.8533    2.0103 C   0  0  0  0  0  0  0  0  0  0  0  0
   -4.9831   -0.9584    2.7480 C   0  0  0  0  0  0  0  0  0  0  0  0
  1  2  1  0
  2  3  1  0
  3  4  2  0
  4  5  1  0
  5  6  2  0
  6  7  1  0
  7  8  2  0
  8  9  1  0
  9 10  1  0
 10 11  2  0
 10 12  1  0
 12 13  1  0
 13 14  1  1
 13 15  1  0
 15 16  1  0
 16 17  1  0
 17 18  2  0
 18 19  1  0
 19 20  2  0
 20 21  1  0
 21 22  2  0
  9 23  2  0
 23 24  1  0
 24 25  2  0
 25 26  1  0
 26 27  2  0
 27 28  1  0
 28 29  2  0
  6 30  1  0
 30 31  2  0
 31  3  1  0
 29  7  1  0
 22 17  1  0
 28 23  1  0
M  END
>  <zinc_id>  (1) 
ZINC000003037530

>  <smiles>  (1) 
COc1ccc(-c2cc(C(=O)N[C@H](C)CCc3ccccc3)c3ccccc3n2)cc1

$$$$
