
     RDKit          3D

 33 37  0  0  0  0  0  0  0  0999 V2000
   -3.7710    1.6379    1.5190 C   0  0  0  0  0  0  0  0  0  0  0  0
   -2.3170    1.3992    1.2998 C   0  0  0  0  0  0  0  0  0  0  0  0
   -1.6829    0.2138    1.0009 C   0  0  0  0  0  0  0  0  0  0  0  0
   -2.3243   -1.0750    0.8354 C   0  0  0  0  0  0  0  0  0  0  0  0
   -2.4193   -1.7568    1.9199 O   0  0  0  0  0  0  0  0  0  0  0  0
   -2.7857   -1.5229   -0.3665 N   0  0  0  0  0  0  0  0  0  0  0  0
   -2.7422   -0.8742   -1.6232 C   0  0  0  0  0  0  0  0  0  0  0  0
   -2.1840   -1.9306   -2.5536 C   0  0  0  0  0  0  0  0  0  0  0  0
   -2.2387   -3.2395   -1.8222 C   0  0  0  0  0  0  0  0  0  0  0  0
   -3.4853   -2.8228   -0.7850 C   0  0  1  0  0  0  0  0  0  0  0  0
   -2.9057   -3.7876    0.4353 C   0  0  0  0  0  0  0  0  0  0  0  0
   -3.4968   -5.0280    0.1425 O   0  0  0  0  0  0  0  0  0  0  0  0
   -0.3368    0.4728    0.8884 C   0  0  0  0  0  0  0  0  0  0  0  0
    0.7792   -0.2922    0.6108 C   0  0  0  0  0  0  0  0  0  0  0  0
    2.0261    0.3025    0.5733 C   0  0  0  0  0  0  0  0  0  0  0  0
    3.1566   -0.4391    0.2983 O   0  0  0  0  0  0  0  0  0  0  0  0
    3.0843   -1.8329    0.0449 C   0  0  0  0  0  0  0  0  0  0  0  0
    4.4303   -2.3639   -0.2163 C   0  0  0  0  0  0  0  0  0  0  0  0
    4.6369   -3.6779   -0.4879 C   0  0  0  0  0  0  0  0  0  0  0  0
    5.9001   -4.1926   -0.7361 C   0  0  0  0  0  0  0  0  0  0  0  0
    6.9807   -3.3320   -0.7040 C   0  0  0  0  0  0  0  0  0  0  0  0
    6.8126   -1.9899   -0.4317 C   0  0  0  0  0  0  0  0  0  0  0  0
    5.5481   -1.5224   -0.1922 C   0  0  0  0  0  0  0  0  0  0  0  0
    2.1782    1.6528    0.8090 C   0  0  0  0  0  0  0  0  0  0  0  0
    1.0560    2.4050    1.0849 C   0  0  0  0  0  0  0  0  0  0  0  0
   -0.1929    1.8212    1.1247 C   0  0  0  0  0  0  0  0  0  0  0  0
   -1.3893    2.3810    1.3733 N   0  0  0  0  0  0  0  0  0  0  0  0
   -1.6560    3.7762    1.6677 C   0  0  0  0  0  0  0  0  0  0  0  0
   -1.9141    4.5372    0.4317 C   0  0  0  0  0  0  0  0  0  0  0  0
   -3.1513    4.7149   -0.1398 C   0  0  0  0  0  0  0  0  0  0  0  0
   -2.9733    5.4901   -1.2929 C   0  0  0  0  0  0  0  0  0  0  0  0
   -1.6028    5.7274   -1.3297 C   0  0  0  0  0  0  0  0  0  0  0  0
   -1.0197    5.1480   -0.2958 O   0  0  0  0  0  0  0  0  0  0  0  0
  1  2  1  0
  2  3  2  0
  3  4  1  0
  4  5  2  0
  4  6  1  0
  6  7  1  0
  7  8  1  0
  8  9  1  0
  9 10  1  0
 10 11  1  1
 11 12  1  0
  3 13  1  0
 13 14  2  0
 14 15  1  0
 15 16  1  0
 16 17  1  0
 17 18  1  0
 18 19  2  0
 19 20  1  0
 20 21  2  0
 21 22  1  0
 22 23  2  0
 15 24  2  0
 24 25  1  0
 25 26  2  0
 26 27  1  0
 27 28  1  0
 28 29  1  0
 29 30  2  0
 30 31  1  0
 31 32  2  0
 32 33  1  0
 27  2  1  0
 33 29  1  0
 10  6  1  0
 26 13  1  0
 23 18  1  0
M  END
>  <zinc_id>  (1) 
ZINC000000762879

>  <smiles>  (1) 
Cc1c(C(=O)N2CCC[C@H]2CO)c2cc(OCc3ccccc3)ccc2n1Cc1ccco1

$$$$
