
     RDKit          3D

 33 37  0  0  0  0  0  0  0  0999 V2000
   -4.0841    0.2534    0.3940 C   0  0  0  0  0  0  0  0  0  0  0  0
   -2.6580   -0.0819    0.6099 C   0  0  0  0  0  0  0  0  0  0  0  0
   -1.6002    0.3596   -0.1490 C   0  0  0  0  0  0  0  0  0  0  0  0
   -1.6351    1.2451   -1.3225 C   0  0  0  0  0  0  0  0  0  0  0  0
   -0.5864    1.5727   -1.9287 O   0  0  0  0  0  0  0  0  0  0  0  0
   -2.8261    1.7674   -1.8248 N   0  0  0  0  0  0  0  0  0  0  0  0
   -3.2293    2.5672   -2.8162 C   0  0  0  0  0  0  0  0  0  0  0  0
   -2.7180    4.0922   -2.8519 C   0  0  1  0  0  0  0  0  0  0  0  0
   -2.5788    4.2960   -1.2145 C   0  0  0  0  0  0  0  0  0  0  0  0
   -1.4808    5.3463   -1.2942 C   0  0  0  0  0  0  0  0  0  0  0  0
   -0.7646    4.9886   -2.5702 C   0  0  0  0  0  0  0  0  0  0  0  0
   -1.2667    3.7615   -2.9668 O   0  0  0  0  0  0  0  0  0  0  0  0
   -0.4748   -0.2032    0.4183 C   0  0  0  0  0  0  0  0  0  0  0  0
    0.8815   -0.1153    0.0822 C   0  0  0  0  0  0  0  0  0  0  0  0
    1.8486   -0.7760    0.8055 C   0  0  0  0  0  0  0  0  0  0  0  0
    3.2033   -0.7244    0.5179 O   0  0  0  0  0  0  0  0  0  0  0  0
    3.7186    0.0268   -0.5656 C   0  0  0  0  0  0  0  0  0  0  0  0
    5.1919   -0.1560   -0.5603 C   0  0  0  0  0  0  0  0  0  0  0  0
    5.7830   -1.1723   -1.2559 C   0  0  0  0  0  0  0  0  0  0  0  0
    7.1385   -1.3401   -1.2508 C   0  0  0  0  0  0  0  0  0  0  0  0
    7.8982   -0.4432   -0.5147 C   0  0  0  0  0  0  0  0  0  0  0  0
    7.3362    0.5913    0.1971 C   0  0  0  0  0  0  0  0  0  0  0  0
    5.9624    0.7213    0.1623 C   0  0  0  0  0  0  0  0  0  0  0  0
    1.4048   -1.5248    1.8743 C   0  0  0  0  0  0  0  0  0  0  0  0
    0.0807   -1.6209    2.2164 C   0  0  0  0  0  0  0  0  0  0  0  0
   -0.8897   -0.9495    1.4793 C   0  0  0  0  0  0  0  0  0  0  0  0
   -2.2326   -0.8796    1.6032 N   0  0  0  0  0  0  0  0  0  0  0  0
   -2.9213   -1.5714    2.6359 C   0  0  0  0  0  0  0  0  0  0  0  0
   -3.3506   -2.9307    2.2933 C   0  0  0  0  0  0  0  0  0  0  0  0
   -2.6534   -4.1014    2.4642 C   0  0  0  0  0  0  0  0  0  0  0  0
   -3.4205   -5.1793    2.0062 C   0  0  0  0  0  0  0  0  0  0  0  0
   -4.5848   -4.5581    1.5687 C   0  0  0  0  0  0  0  0  0  0  0  0
   -4.4918   -3.2611    1.7573 O   0  0  0  0  0  0  0  0  0  0  0  0
  1  2  1  0
  2  3  2  0
  3  4  1  0
  4  5  2  0
  4  6  1  0
  6  7  1  0
  8  7  1  1
  8  9  1  0
  9 10  1  0
 10 11  1  0
 11 12  1  0
  3 13  1  0
 13 14  2  0
 14 15  1  0
 15 16  1  0
 16 17  1  0
 17 18  1  0
 18 19  2  0
 19 20  1  0
 20 21  2  0
 21 22  1  0
 22 23  2  0
 15 24  2  0
 24 25  1  0
 25 26  2  0
 26 27  1  0
 27 28  1  0
 28 29  1  0
 29 30  2  0
 30 31  1  0
 31 32  2  0
 32 33  1  0
 27  2  1  0
 33 29  1  0
 12  8  1  0
 26 13  1  0
 23 18  1  0
M  END
>  <zinc_id>  (1) 
ZINC000000762914

>  <smiles>  (1) 
Cc1c(C(=O)NC[C@H]2CCCO2)c2cc(OCc3ccccc3)ccc2n1Cc1ccco1

$$$$
