
     RDKit          3D

 30 32  0  0  0  0  0  0  0  0999 V2000
    3.4777   -3.4919    0.4924 C   0  0  0  0  0  0  0  0  0  0  0  0
    4.0696   -2.3753   -0.2868 C   0  0  0  0  0  0  0  0  0  0  0  0
    4.9379   -2.5772   -1.3387 C   0  0  0  0  0  0  0  0  0  0  0  0
    5.4892   -1.5299   -2.0649 C   0  0  0  0  0  0  0  0  0  0  0  0
    5.1304   -0.2542   -1.6891 C   0  0  0  0  0  0  0  0  0  0  0  0
    4.2675    0.0080   -0.6468 C   0  0  0  0  0  0  0  0  0  0  0  0
    3.8839    1.3701   -0.2451 C   0  0  0  0  0  0  0  0  0  0  0  0
    4.5687    2.3840   -1.1339 C   0  0  0  0  0  0  0  0  0  0  0  0
    4.0386    1.6519    1.2094 C   0  0  0  0  0  0  0  0  0  0  0  0
    3.7485   -1.0709    0.0414 C   0  0  0  0  0  0  0  0  0  0  0  0
    2.8551   -0.8380    1.1225 N   0  0  0  0  0  0  0  0  0  0  0  0
    1.4449   -0.7474    0.9647 C   0  0  0  0  0  0  0  0  0  0  0  0
    0.9520   -0.8771   -0.1772 O   0  0  0  0  0  0  0  0  0  0  0  0
    0.6266   -0.5007    2.1794 C   0  0  0  0  0  0  0  0  0  0  0  0
   -0.7422   -0.4302    1.9072 O   0  0  0  0  0  0  0  0  0  0  0  0
   -1.3222    0.4944    1.0559 C   0  0  0  0  0  0  0  0  0  0  0  0
   -0.5553    1.3190    0.4977 O   0  0  0  0  0  0  0  0  0  0  0  0
   -2.7749    0.5554    0.7784 C   0  0  0  0  0  0  0  0  0  0  0  0
   -3.3154   -0.6739    0.1866 C   0  0  0  0  0  0  0  0  0  0  0  0
   -2.5852   -1.3108   -0.7963 C   0  0  0  0  0  0  0  0  0  0  0  0
   -3.0810   -2.4709   -1.3643 C   0  0  0  0  0  0  0  0  0  0  0  0
   -4.2981   -2.9880   -0.9505 C   0  0  0  0  0  0  0  0  0  0  0  0
   -4.9995   -2.3315    0.0284 C   0  0  0  0  0  0  0  0  0  0  0  0
   -4.5143   -1.1778    0.5985 C   0  0  0  0  0  0  0  0  0  0  0  0
   -3.1621    1.7891    0.1085 C   0  0  0  0  0  0  0  0  0  0  0  0
   -2.4129    2.3182   -0.9149 C   0  0  0  0  0  0  0  0  0  0  0  0
   -2.7951    3.5024   -1.5493 C   0  0  0  0  0  0  0  0  0  0  0  0
   -3.9333    4.1566   -1.1544 C   0  0  0  0  0  0  0  0  0  0  0  0
   -4.6984    3.6382   -0.1269 C   0  0  0  0  0  0  0  0  0  0  0  0
   -4.3007    2.4586    0.4915 C   0  0  0  0  0  0  0  0  0  0  0  0
  1  2  1  0
  2  3  2  0
  3  4  1  0
  4  5  2  0
  5  6  1  0
  6  7  1  0
  7  8  1  0
  7  9  1  0
  6 10  2  0
 10 11  1  0
 11 12  1  0
 12 13  2  0
 12 14  1  0
 14 15  1  0
 15 16  1  0
 16 17  2  0
 16 18  1  0
 18 19  1  0
 19 20  2  0
 20 21  1  0
 21 22  2  0
 22 23  1  0
 23 24  2  0
 18 25  1  0
 25 26  2  0
 26 27  1  0
 27 28  2  0
 28 29  1  0
 29 30  2  0
 10  2  1  0
 24 19  1  0
 30 25  1  0
M  END
>  <zinc_id>  (1) 
ZINC000003217615

>  <smiles>  (1) 
Cc1cccc(C(C)C)c1NC(=O)COC(=O)C(c1ccccc1)c1ccccc1

$$$$
