
     RDKit          3D

 29 31  0  0  0  0  0  0  0  0999 V2000
    7.9056   -0.0515   -0.6739 C   0  0  0  0  0  0  0  0  0  0  0  0
    6.4624   -0.0183   -0.2428 C   0  0  0  0  0  0  0  0  0  0  0  0
    6.0927   -0.5376    0.9741 C   0  0  0  0  0  0  0  0  0  0  0  0
    4.7767   -0.5065    1.3673 C   0  0  0  0  0  0  0  0  0  0  0  0
    3.8035    0.0338    0.5745 C   0  0  0  0  0  0  0  0  0  0  0  0
    2.4477    0.0792    0.9792 N   0  0  0  0  0  0  0  0  0  0  0  0
    2.0796   -0.4976    2.2099 C   0  0  0  0  0  0  0  0  0  0  0  0
    2.9251   -1.0473    2.9345 O   0  0  0  0  0  0  0  0  0  0  0  0
    0.6636   -0.4490    2.6489 C   0  0  0  0  0  0  0  0  0  0  0  0
   -0.1368    0.2356    1.7036 O   0  0  0  0  0  0  0  0  0  0  0  0
   -0.2404   -0.2734    0.4297 C   0  0  0  0  0  0  0  0  0  0  0  0
    0.3709   -1.3431    0.1667 O   0  0  0  0  0  0  0  0  0  0  0  0
   -1.0193    0.3634   -0.6201 C   0  0  0  0  0  0  0  0  0  0  0  0
   -2.4572    0.1667   -0.6672 C   0  0  0  0  0  0  0  0  0  0  0  0
   -3.0387   -1.1394   -0.8147 C   0  0  0  0  0  0  0  0  0  0  0  0
   -3.4127   -1.5602   -2.0797 C   0  0  0  0  0  0  0  0  0  0  0  0
   -3.9816   -2.8059   -2.3155 C   0  0  0  0  0  0  0  0  0  0  0  0
   -4.1936   -3.6747   -1.2774 C   0  0  0  0  0  0  0  0  0  0  0  0
   -3.8343   -3.2870   -0.0149 C   0  0  0  0  0  0  0  0  0  0  0  0
   -3.2618   -2.0347    0.2260 C   0  0  0  0  0  0  0  0  0  0  0  0
   -3.3106    1.3216   -0.5196 C   0  0  0  0  0  0  0  0  0  0  0  0
   -3.7788    1.7344    0.7110 C   0  0  0  0  0  0  0  0  0  0  0  0
   -4.5745    2.8487    0.8576 C   0  0  0  0  0  0  0  0  0  0  0  0
   -4.9306    3.5945   -0.2434 C   0  0  0  0  0  0  0  0  0  0  0  0
   -4.4631    3.1837   -1.4870 C   0  0  0  0  0  0  0  0  0  0  0  0
   -3.6683    2.0682   -1.6198 C   0  0  0  0  0  0  0  0  0  0  0  0
    4.1865    0.5598   -0.6618 C   0  0  0  0  0  0  0  0  0  0  0  0
    3.0912    1.1353   -1.4933 C   0  0  0  0  0  0  0  0  0  0  0  0
    5.4970    0.5282   -1.0517 C   0  0  0  0  0  0  0  0  0  0  0  0
  1  2  1  0
  2  3  2  0
  3  4  1  0
  4  5  2  0
  5  6  1  0
  6  7  1  0
  7  8  2  0
  7  9  1  0
  9 10  1  0
 10 11  1  0
 11 12  2  0
 11 13  1  0
 13 14  1  0
 14 15  1  0
 15 16  2  0
 16 17  1  0
 17 18  2  0
 18 19  1  0
 19 20  2  0
 14 21  1  0
 21 22  2  0
 22 23  1  0
 23 24  2  0
 24 25  1  0
 25 26  2  0
  5 27  1  0
 27 28  1  0
 27 29  2  0
 29  2  1  0
 20 15  1  0
 26 21  1  0
M  END
>  <zinc_id>  (1) 
ZINC000003217298

>  <smiles>  (1) 
Cc1ccc(NC(=O)COC(=O)CC(c2ccccc2)c2ccccc2)c(C)c1

$$$$
