
     RDKit          3D

 33 36  0  0  0  0  0  0  0  0999 V2000
   -2.3532   -6.4209   -1.3269 C   0  0  0  0  0  0  0  0  0  0  0  0
   -3.2702   -5.6105   -0.4432 C   0  0  0  0  0  0  0  0  0  0  0  0
   -2.6500   -4.3583   -0.2230 O   0  0  0  0  0  0  0  0  0  0  0  0
   -1.4120   -4.2974    0.3861 C   0  0  0  0  0  0  0  0  0  0  0  0
   -0.8057   -5.4702    0.7699 C   0  0  0  0  0  0  0  0  0  0  0  0
    0.4449   -5.4899    1.3892 C   0  0  0  0  0  0  0  0  0  0  0  0
    1.0618   -4.2774    1.6067 C   0  0  0  0  0  0  0  0  0  0  0  0
    0.4371   -3.1102    1.2140 C   0  0  0  0  0  0  0  0  0  0  0  0
   -0.7949   -3.0603    0.6020 C   0  0  0  0  0  0  0  0  0  0  0  0
   -1.4747   -1.9005    0.2065 N   0  0  0  0  0  0  0  0  0  0  0  0
   -1.0077   -0.5709    0.2404 C   0  0  0  0  0  0  0  0  0  0  0  0
    0.1844   -0.1559   -0.1145 C   0  0  0  0  0  0  0  0  0  0  0  0
    1.4913   -1.2097   -0.7281 S   0  0  0  0  0  0  0  0  0  0  0  0
    2.9618   -0.2919   -1.0505 C   0  0  0  0  0  0  0  0  0  0  0  0
    3.2157    0.2663   -2.2780 C   0  0  0  0  0  0  0  0  0  0  0  0
    4.3717    0.9966   -2.5463 C   0  0  0  0  0  0  0  0  0  0  0  0
    5.3022    1.1754   -1.5593 C   0  0  0  0  0  0  0  0  0  0  0  0
    6.5398    1.9698   -1.8828 C   0  0  0  0  0  0  0  0  0  0  0  0
    5.0753    0.6286   -0.3217 C   0  0  0  0  0  0  0  0  0  0  0  0
    3.9146   -0.1067   -0.0487 C   0  0  0  0  0  0  0  0  0  0  0  0
    0.2757    1.3127    0.0743 C   0  0  0  0  0  0  0  0  0  0  0  0
    1.2907    1.9990   -0.1773 O   0  0  0  0  0  0  0  0  0  0  0  0
   -0.9696    1.7659    0.5770 N   0  0  0  0  0  0  0  0  0  0  0  0
   -1.3379    3.1103    0.9013 C   0  0  0  0  0  0  0  0  0  0  0  0
   -0.7460    3.7949    1.9118 C   0  0  0  0  0  0  0  0  0  0  0  0
   -1.0888    5.0873    2.2352 C   0  0  0  0  0  0  0  0  0  0  0  0
   -2.0742    5.6819    1.4864 C   0  0  0  0  0  0  0  0  0  0  0  0
   -2.6972    5.0049    0.4449 C   0  0  0  0  0  0  0  0  0  0  0  0
   -3.7754    5.6746   -0.3631 C   0  0  0  0  0  0  0  0  0  0  0  0
   -2.3276    3.7120    0.1500 C   0  0  0  0  0  0  0  0  0  0  0  0
   -3.0104    3.0010   -0.9722 C   0  0  0  0  0  0  0  0  0  0  0  0
   -1.7887    0.6128    0.6911 C   0  0  0  0  0  0  0  0  0  0  0  0
   -2.9828    0.5367    1.0971 O   0  0  0  0  0  0  0  0  0  0  0  0
  1  2  1  0
  2  3  1  0
  3  4  1  0
  4  5  2  0
  5  6  1  0
  6  7  2  0
  7  8  1  0
  8  9  2  0
  9 10  1  0
 10 11  1  0
 11 12  2  0
 12 13  1  0
 13 14  1  0
 14 15  2  0
 15 16  1  0
 16 17  2  0
 17 18  1  0
 17 19  1  0
 19 20  2  0
 12 21  1  0
 21 22  2  0
 21 23  1  0
 23 24  1  0
 24 25  2  0
 25 26  1  0
 26 27  2  0
 27 28  1  0
 28 29  1  0
 28 30  2  0
 30 31  1  0
 23 32  1  0
 32 33  2  0
  9  4  1  0
 32 11  1  0
 20 14  1  0
 30 24  1  0
M  END
>  <zinc_id>  (1) 
ZINC000001929806

>  <smiles>  (1) 
CCOc1ccccc1NC1=C(Sc2ccc(C)cc2)C(=O)N(c2cccc(C)c2C)C1=O

$$$$
