
     RDKit          3D

 29 31  0  0  0  0  0  0  0  0999 V2000
    8.1476    1.0141    1.0033 C   0  0  0  0  0  0  0  0  0  0  0  0
    6.8060    0.3777    0.8497 C   0  0  0  0  0  0  0  0  0  0  0  0
    5.8632    0.5240    1.8244 C   0  0  0  0  0  0  0  0  0  0  0  0
    4.6524   -0.0767    1.6496 C   0  0  0  0  0  0  0  0  0  0  0  0
    3.6381    0.0818    2.7329 C   0  0  0  0  0  0  0  0  0  0  0  0
    4.4034   -0.7916    0.5375 N   0  0  0  0  0  0  0  0  0  0  0  0
    5.3375   -0.9229   -0.4103 C   0  0  0  0  0  0  0  0  0  0  0  0
    4.9274   -1.8780   -1.8491 S   0  0  0  0  0  0  0  0  0  0  0  0
    4.2084   -0.8322   -3.1408 C   0  0  0  0  0  0  0  0  0  0  0  0
    2.9510   -0.2563   -2.6327 C   0  0  0  0  0  0  0  0  0  0  0  0
    2.8233    0.9676   -2.3797 O   0  0  0  0  0  0  0  0  0  0  0  0
    1.8394   -1.0991   -2.4110 N   0  0  0  0  0  0  0  0  0  0  0  0
    0.6152   -0.6098   -1.9104 N   0  0  0  0  0  0  0  0  0  0  0  0
    0.4993   -0.1284   -0.7384 C   0  0  0  0  0  0  0  0  0  0  0  0
   -0.7592    0.3911   -0.1825 C   0  0  0  0  0  0  0  0  0  0  0  0
   -0.8115    0.9078    1.1009 C   0  0  0  0  0  0  0  0  0  0  0  0
   -1.9618    1.4203    1.6776 C   0  0  0  0  0  0  0  0  0  0  0  0
   -3.1036    1.3959    0.8899 C   0  0  0  0  0  0  0  0  0  0  0  0
   -3.1301    0.8976   -0.3886 C   0  0  0  0  0  0  0  0  0  0  0  0
   -4.2591    0.8834   -1.1483 O   0  0  0  0  0  0  0  0  0  0  0  0
   -5.5215    1.2925   -0.9463 C   0  0  0  0  0  0  0  0  0  0  0  0
   -6.2439    0.6306    0.1496 C   0  0  0  0  0  0  0  0  0  0  0  0
   -7.6526    0.6258    0.1367 C   0  0  0  0  0  0  0  0  0  0  0  0
   -8.3190    0.0269    1.1480 C   0  0  0  0  0  0  0  0  0  0  0  0
   -7.6872   -0.5857    2.2034 C   0  0  0  0  0  0  0  0  0  0  0  0
   -6.2828   -0.5740    2.2034 C   0  0  0  0  0  0  0  0  0  0  0  0
   -5.5866    0.0256    1.1915 C   0  0  0  0  0  0  0  0  0  0  0  0
   -1.9198    0.3914   -0.9113 C   0  0  0  0  0  0  0  0  0  0  0  0
    6.5266   -0.3414   -0.2488 N   0  0  0  0  0  0  0  0  0  0  0  0
  1  2  1  0
  2  3  2  0
  3  4  1  0
  4  5  1  0
  4  6  2  0
  6  7  1  0
  7  8  1  0
  8  9  1  0
  9 10  1  0
 10 11  2  0
 10 12  1  0
 12 13  1  0
 13 14  2  0
 14 15  1  0
 15 16  2  0
 16 17  1  0
 17 18  2  0
 18 19  1  0
 19 20  1  0
 20 21  1  0
 21 22  1  0
 22 23  2  0
 23 24  1  0
 24 25  2  0
 25 26  1  0
 26 27  2  0
 19 28  2  0
  7 29  2  0
 29  2  1  0
 28 15  1  0
 27 22  1  0
M  END
>  <zinc_id>  (1) 
ZINC000000730070

>  <smiles>  (1) 
Cc1cc(C)nc(SCC(=O)N/N=C/c2cccc(OCc3ccccc3)c2)n1

$$$$
