
     RDKit          3D

 31 34  0  0  0  0  0  0  0  0999 V2000
   -3.6614    4.8665    3.0632 C   0  0  0  0  0  0  0  0  0  0  0  0
   -2.6117    3.9364    2.9433 O   0  0  0  0  0  0  0  0  0  0  0  0
   -2.5064    3.0342    1.8878 C   0  0  0  0  0  0  0  0  0  0  0  0
   -3.4194    2.9621    0.8594 C   0  0  0  0  0  0  0  0  0  0  0  0
   -3.3275    2.0728   -0.1933 C   0  0  0  0  0  0  0  0  0  0  0  0
   -2.2698    1.1845   -0.2552 C   0  0  0  0  0  0  0  0  0  0  0  0
   -1.3523    1.2501    0.7703 C   0  0  0  0  0  0  0  0  0  0  0  0
   -1.4352    2.1301    1.8203 C   0  0  0  0  0  0  0  0  0  0  0  0
   -0.4221    0.2893    0.4825 C   0  0  0  0  0  0  0  0  0  0  0  0
    0.7570   -0.0713    1.2518 C   0  0  0  0  0  0  0  0  0  0  0  0
    1.0579    0.4899    2.3403 O   0  0  0  0  0  0  0  0  0  0  0  0
    1.5899   -1.0697    0.7819 N   0  0  0  0  0  0  0  0  0  0  0  0
    2.8546   -1.4837    1.5848 C   0  0  1  0  0  0  0  0  0  0  0  0
    2.0810   -2.5318    2.5659 C   0  0  0  0  0  0  0  0  0  0  0  0
    3.2271   -2.6734    0.4918 C   0  0  0  0  0  0  0  0  0  0  0  0
    3.4137   -1.9058   -0.8061 C   0  0  0  0  0  0  0  0  0  0  0  0
    4.5432   -0.9512   -0.5026 C   0  0  0  0  0  0  0  0  0  0  0  0
    5.8605   -1.2581   -0.7228 C   0  0  0  0  0  0  0  0  0  0  0  0
    6.8993   -0.4000   -0.4366 C   0  0  0  0  0  0  0  0  0  0  0  0
    6.5259    0.8261    0.1037 C   0  0  0  0  0  0  0  0  0  0  0  0
    5.2060    1.1353    0.3248 C   0  0  0  0  0  0  0  0  0  0  0  0
    4.1779    0.2653    0.0322 C   0  0  0  0  0  0  0  0  0  0  0  0
   -0.7858   -0.3397   -0.7062 C   0  0  0  0  0  0  0  0  0  0  0  0
   -0.0745   -1.4417   -1.4024 C   0  0  0  0  0  0  0  0  0  0  0  0
   -1.9304    0.2315   -1.1405 N   0  0  0  0  0  0  0  0  0  0  0  0
   -2.6169   -0.1800   -2.3732 C   0  0  0  0  0  0  0  0  0  0  0  0
   -3.5853   -1.2612   -2.0997 C   0  0  0  0  0  0  0  0  0  0  0  0
   -4.9266   -1.0736   -1.9338 C   0  0  0  0  0  0  0  0  0  0  0  0
   -5.5030   -2.3088   -1.6933 C   0  0  0  0  0  0  0  0  0  0  0  0
   -4.4398   -3.2081   -1.7284 C   0  0  0  0  0  0  0  0  0  0  0  0
   -3.3258   -2.5159   -1.9744 O   0  0  0  0  0  0  0  0  0  0  0  0
  1  2  1  0
  2  3  1  0
  3  4  2  0
  4  5  1  0
  5  6  2  0
  6  7  1  0
  7  8  2  0
  7  9  1  0
  9 10  1  0
 10 11  2  0
 10 12  1  0
 12 13  1  0
 13 14  1  1
 13 15  1  0
 15 16  1  0
 16 17  1  0
 17 18  2  0
 18 19  1  0
 19 20  2  0
 20 21  1  0
 21 22  2  0
  9 23  2  0
 23 24  1  0
 23 25  1  0
 25 26  1  0
 26 27  1  0
 27 28  2  0
 28 29  1  0
 29 30  2  0
 30 31  1  0
  8  3  1  0
 22 17  1  0
 31 27  1  0
 25  6  1  0
M  END
>  <zinc_id>  (1) 
ZINC000000762812

>  <smiles>  (1) 
COc1ccc2c(c1)c(C(=O)N[C@@H](C)CCc1ccccc1)c(C)n2Cc1ccco1

$$$$
