
     RDKit          3D

 30 32  0  0  0  0  0  0  0  0999 V2000
    8.1624    1.9035   -3.5659 C   0  0  0  0  0  0  0  0  0  0  0  0
    7.6984    2.1194   -2.2549 O   0  0  0  0  0  0  0  0  0  0  0  0
    6.7790    1.2283   -1.7281 C   0  0  0  0  0  0  0  0  0  0  0  0
    6.3380    1.4478   -0.4604 C   0  0  0  0  0  0  0  0  0  0  0  0
    5.4205    0.6028    0.1347 C   0  0  0  0  0  0  0  0  0  0  0  0
    4.9343   -0.4988   -0.5760 C   0  0  0  0  0  0  0  0  0  0  0  0
    3.9629   -1.3756    0.0853 C   0  0  0  0  0  0  0  0  0  0  0  0
    3.6809   -0.9501    1.4217 N   0  0  0  0  0  0  0  0  0  0  0  0
    2.7640   -1.7164    2.1544 C   0  0  0  0  0  0  0  0  0  0  0  0
    1.2630   -1.5468    1.4962 C   0  0  2  0  0  0  0  0  0  0  0  0
    1.7019   -2.0903    0.1432 O   0  0  0  0  0  0  0  0  0  0  0  0
    1.4644    0.0339    1.0518 C   0  0  0  0  0  0  0  0  0  0  0  0
    0.5682    0.1781   -0.0552 O   0  0  0  0  0  0  0  0  0  0  0  0
   -0.7911   -0.0378    0.0981 C   0  0  0  0  0  0  0  0  0  0  0  0
   -1.2894   -0.3935    1.3353 C   0  0  0  0  0  0  0  0  0  0  0  0
   -2.6351   -0.6076    1.4857 C   0  0  0  0  0  0  0  0  0  0  0  0
   -3.4764   -0.4698    0.4199 C   0  0  0  0  0  0  0  0  0  0  0  0
   -4.9418   -0.7053    0.6054 C   0  0  0  0  0  0  0  0  0  0  0  0
   -5.1977   -1.3765    1.9231 C   0  0  0  0  0  0  0  0  0  0  0  0
   -5.3926   -1.6597   -0.4967 C   0  0  0  0  0  0  0  0  0  0  0  0
   -5.6740    0.5728    0.5547 C   0  0  0  0  0  0  0  0  0  0  0  0
   -5.7056    1.2695   -0.6229 C   0  0  0  0  0  0  0  0  0  0  0  0
   -6.3743    2.4655   -0.7222 C   0  0  0  0  0  0  0  0  0  0  0  0
   -7.0032    2.9304    0.3947 C   0  0  0  0  0  0  0  0  0  0  0  0
   -6.9890    2.2469    1.6034 C   0  0  0  0  0  0  0  0  0  0  0  0
   -6.3123    1.0496    1.6785 C   0  0  0  0  0  0  0  0  0  0  0  0
   -3.0098   -0.1100   -0.8515 C   0  0  0  0  0  0  0  0  0  0  0  0
   -1.6419    0.0994   -0.9699 C   0  0  0  0  0  0  0  0  0  0  0  0
    5.3836   -0.7104   -1.8489 C   0  0  0  0  0  0  0  0  0  0  0  0
    6.3129    0.1571   -2.4337 C   0  0  0  0  0  0  0  0  0  0  0  0
  1  2  1  0
  2  3  1  0
  3  4  2  0
  4  5  1  0
  5  6  2  0
  6  7  1  0
  7  8  1  0
  8  9  1  0
  9 10  1  0
 10 11  1  6
 10 12  1  0
 12 13  1  0
 13 14  1  0
 14 15  2  0
 15 16  1  0
 16 17  2  0
 17 18  1  0
 18 19  1  0
 18 20  1  0
 18 21  1  0
 21 22  2  0
 22 23  1  0
 23 24  2  0
 24 25  1  0
 25 26  2  0
 17 27  1  0
 27 28  2  0
  6 29  1  0
 29 30  2  0
 30  3  1  0
 28 14  1  0
 26 21  1  0
M  END
>  <zinc_id>  (1) 
ZINC000003412345

>  <smiles>  (1) 
COc1ccc(CNC[C@H](O)COc2ccc(C(C)(C)c3ccccc3)cc2)cc1

$$$$
