
     RDKit          3D

 31 34  0  0  0  0  0  0  0  0999 V2000
    8.3646    2.7421    0.8396 C   0  0  0  0  0  0  0  0  0  0  0  0
    7.6158    1.4867    0.6148 C   0  0  0  0  0  0  0  0  0  0  0  0
    8.2890    0.2955    0.7587 C   0  0  0  0  0  0  0  0  0  0  0  0
    7.6282   -0.9095    0.5579 C   0  0  0  0  0  0  0  0  0  0  0  0
    6.2732   -0.9009    0.2082 C   0  0  0  0  0  0  0  0  0  0  0  0
    5.6449   -2.2343    0.0125 C   0  0  0  0  0  0  0  0  0  0  0  0
    5.5895    0.2866    0.0615 C   0  0  0  0  0  0  0  0  0  0  0  0
    4.2168    0.2128   -0.2948 N   0  0  0  0  0  0  0  0  0  0  0  0
    3.2892   -0.0999    0.4759 N   0  0  0  0  0  0  0  0  0  0  0  0
    1.9083   -0.1612    0.0678 C   0  0  0  0  0  0  0  0  0  0  0  0
    1.1655   -1.3076    0.2074 C   0  0  0  0  0  0  0  0  0  0  0  0
   -0.1515   -1.2685   -0.2133 C   0  0  0  0  0  0  0  0  0  0  0  0
   -0.9723   -2.5074   -0.0681 C   0  0  0  0  0  0  0  0  0  0  0  0
   -0.6740   -0.1110   -0.7486 C   0  0  0  0  0  0  0  0  0  0  0  0
   -2.0220   -0.0528   -1.1851 N   0  0  0  0  0  0  0  0  0  0  0  0
   -3.0523    0.3317   -0.3083 N   0  0  0  0  0  0  0  0  0  0  0  0
   -4.2295   -0.1412   -0.5593 C   0  0  0  0  0  0  0  0  0  0  0  0
   -4.5024   -1.0266   -1.6831 C   0  0  0  0  0  0  0  0  0  0  0  0
   -3.5628   -1.3555   -2.4528 O   0  0  0  0  0  0  0  0  0  0  0  0
   -5.8618   -1.4996   -1.8726 C   0  0  0  0  0  0  0  0  0  0  0  0
   -6.8273   -1.1345   -1.0443 C   0  0  0  0  0  0  0  0  0  0  0  0
   -6.5687   -0.2465    0.0878 C   0  0  0  0  0  0  0  0  0  0  0  0
   -7.6027    0.1280    0.9521 C   0  0  0  0  0  0  0  0  0  0  0  0
   -7.4038    0.9535    2.0186 C   0  0  0  0  0  0  0  0  0  0  0  0
   -6.1515    1.4437    2.2680 C   0  0  0  0  0  0  0  0  0  0  0  0
   -5.1034    1.0904    1.4280 C   0  0  0  0  0  0  0  0  0  0  0  0
   -5.3210    0.2529    0.3513 C   0  0  0  0  0  0  0  0  0  0  0  0
    0.0905    1.0286   -0.8793 C   0  0  0  0  0  0  0  0  0  0  0  0
    1.3968    1.0068   -0.4674 C   0  0  0  0  0  0  0  0  0  0  0  0
    2.2541    2.2385   -0.5990 C   0  0  0  0  0  0  0  0  0  0  0  0
    6.2806    1.4593    0.2694 C   0  0  0  0  0  0  0  0  0  0  0  0
  1  2  1  0
  2  3  2  0
  3  4  1  0
  4  5  2  0
  5  6  1  0
  5  7  1  0
  7  8  1  0
  8  9  2  0
  9 10  1  0
 10 11  2  0
 11 12  1  0
 12 13  1  0
 12 14  2  0
 14 15  1  0
 15 16  1  0
 16 17  2  0
 17 18  1  0
 18 19  2  0
 18 20  1  0
 20 21  2  0
 21 22  1  0
 22 23  2  0
 23 24  1  0
 24 25  2  0
 25 26  1  0
 26 27  2  0
 14 28  1  0
 28 29  2  0
 29 30  1  0
  7 31  2  0
 31  2  1  0
 29 10  1  0
 27 17  1  0
 27 22  1  0
M  END
>  <zinc_id>  (1) 
ZINC000003861442

>  <smiles>  (1) 
Cc1ccc(C)c(/N=N/c2cc(C)c(N/N=C3\C(=O)C=Cc4ccccc43)cc2C)c1

$$$$
