
     RDKit          3D

 30 33  0  0  0  0  0  0  0  0999 V2000
   -6.0228    1.3055   -0.8491 C   0  0  0  0  0  0  0  0  0  0  0  0
   -5.5581    0.0549   -0.3759 O   0  0  0  0  0  0  0  0  0  0  0  0
   -5.7764    0.0472    0.9877 C   0  0  0  0  0  0  0  0  0  0  0  0
   -4.8512    1.3674    1.4776 C   0  0  1  0  0  0  0  0  0  0  0  0
   -4.6365    0.7137    3.0129 C   0  0  0  0  0  0  0  0  0  0  0  0
   -3.4954    0.8156    0.9560 O   0  0  0  0  0  0  0  0  0  0  0  0
   -2.3903    1.5518    1.1221 C   0  0  0  0  0  0  0  0  0  0  0  0
   -2.4816    2.6597    1.6910 O   0  0  0  0  0  0  0  0  0  0  0  0
   -1.0910    1.0994    0.6602 C   0  0  0  0  0  0  0  0  0  0  0  0
    0.1326    1.7036    0.7389 C   0  0  0  0  0  0  0  0  0  0  0  0
    0.3689    2.9676    1.3260 N   0  0  0  0  0  0  0  0  0  0  0  0
    1.0490    0.8977    0.1704 N   0  0  0  0  0  0  0  0  0  0  0  0
    2.4752    1.1365    0.0301 C   0  0  0  0  0  0  0  0  0  0  0  0
    3.1573    0.5692    1.2747 C   0  0  0  0  0  0  0  0  0  0  0  0
    4.6184    0.8101    1.1383 C   0  0  0  0  0  0  0  0  0  0  0  0
    5.3864   -0.1616    0.5185 C   0  0  0  0  0  0  0  0  0  0  0  0
    6.7345   -0.0121    0.3563 C   0  0  0  0  0  0  0  0  0  0  0  0
    7.3599    1.1201    0.8115 C   0  0  0  0  0  0  0  0  0  0  0  0
    6.6150    2.0873    1.4250 C   0  0  0  0  0  0  0  0  0  0  0  0
    5.2388    1.9552    1.6008 C   0  0  0  0  0  0  0  0  0  0  0  0
    0.4332   -0.2148   -0.2722 C   0  0  0  0  0  0  0  0  0  0  0  0
    0.8578   -1.3424   -0.9115 N   0  0  0  0  0  0  0  0  0  0  0  0
   -0.0064   -2.3195   -1.2415 C   0  0  0  0  0  0  0  0  0  0  0  0
    0.4319   -3.4585   -1.8890 C   0  0  0  0  0  0  0  0  0  0  0  0
   -0.4752   -4.4515   -2.2192 C   0  0  0  0  0  0  0  0  0  0  0  0
   -1.8121   -4.3111   -1.9060 C   0  0  0  0  0  0  0  0  0  0  0  0
   -2.2596   -3.1725   -1.2570 C   0  0  0  0  0  0  0  0  0  0  0  0
   -1.3485   -2.2064   -0.9411 C   0  0  0  0  0  0  0  0  0  0  0  0
   -1.7561   -1.1078   -0.3192 N   0  0  0  0  0  0  0  0  0  0  0  0
   -0.8978   -0.1045    0.0249 C   0  0  0  0  0  0  0  0  0  0  0  0
  1  2  1  0
  2  3  1  0
  3  4  1  0
  4  5  1  1
  4  6  1  0
  6  7  1  0
  7  8  2  0
  7  9  1  0
  9 10  2  0
 10 11  1  0
 10 12  1  0
 12 13  1  0
 13 14  1  0
 14 15  1  0
 15 16  2  0
 16 17  1  0
 17 18  2  0
 18 19  1  0
 19 20  2  0
 12 21  1  0
 21 22  2  0
 22 23  1  0
 23 24  2  0
 24 25  1  0
 25 26  2  0
 26 27  1  0
 27 28  2  0
 28 29  1  0
 29 30  2  0
 30  9  1  0
 20 15  1  0
 30 21  1  0
 28 23  1  0
M  END
>  <zinc_id>  (1) 
ZINC000002318663

>  <smiles>  (1) 
COC[C@@H](C)OC(=O)c1c(N)n(CCc2ccccc2)c2nc3ccccc3nc12

$$$$
