
     RDKit          3D

 30 33  0  0  0  0  0  0  0  0999 V2000
    8.9215    0.5697   -1.9603 C   0  0  0  0  0  0  0  0  0  0  0  0
    7.9861    0.3516   -0.9082 O   0  0  0  0  0  0  0  0  0  0  0  0
    6.6448    0.2534   -1.2540 C   0  0  0  0  0  0  0  0  0  0  0  0
    6.2010    0.3579   -2.5508 C   0  0  0  0  0  0  0  0  0  0  0  0
    4.8763    0.2643   -2.9225 C   0  0  0  0  0  0  0  0  0  0  0  0
    3.9447    0.0531   -1.9280 C   0  0  0  0  0  0  0  0  0  0  0  0
    4.3650   -0.0561   -0.6101 C   0  0  0  0  0  0  0  0  0  0  0  0
    3.3855   -0.2794    0.4481 C   0  0  0  0  0  0  0  0  0  0  0  0
    2.1329   -0.3784    0.1901 N   0  0  0  0  0  0  0  0  0  0  0  0
    1.1619   -0.5921    1.1739 N   0  0  0  0  0  0  0  0  0  0  0  0
   -0.0535    0.1791    1.2223 C   0  0  0  0  0  0  0  0  0  0  0  0
   -0.2163    1.0579    0.3455 O   0  0  0  0  0  0  0  0  0  0  0  0
   -1.0616   -0.0912    2.2988 C   0  0  0  0  0  0  0  0  0  0  0  0
   -2.4483    1.0486    2.0574 S   0  0  0  0  0  0  0  0  0  0  0  0
   -3.2676    0.6337    0.5186 C   0  0  0  0  0  0  0  0  0  0  0  0
   -4.4187    1.4775    0.1911 C   0  0  0  0  0  0  0  0  0  0  0  0
   -4.5955    2.8623    0.0676 C   0  0  0  0  0  0  0  0  0  0  0  0
   -5.8217    3.4032   -0.2603 C   0  0  0  0  0  0  0  0  0  0  0  0
   -6.9060    2.5789   -0.4742 C   0  0  0  0  0  0  0  0  0  0  0  0
   -6.7099    1.2144   -0.3472 C   0  0  0  0  0  0  0  0  0  0  0  0
   -5.4909    0.6568   -0.0201 C   0  0  0  0  0  0  0  0  0  0  0  0
   -5.0878   -0.7451    0.1578 C   0  0  0  0  0  0  0  0  0  0  0  0
   -5.8468   -1.9215    0.0417 C   0  0  0  0  0  0  0  0  0  0  0  0
   -5.1856   -3.1071    0.2685 C   0  0  0  0  0  0  0  0  0  0  0  0
   -3.8456   -3.1418    0.5935 C   0  0  0  0  0  0  0  0  0  0  0  0
   -3.1133   -1.9855    0.7042 C   0  0  0  0  0  0  0  0  0  0  0  0
   -3.7584   -0.7573    0.4789 C   0  0  0  0  0  0  0  0  0  0  0  0
    5.7028    0.0421   -0.2668 C   0  0  0  0  0  0  0  0  0  0  0  0
    6.0841   -0.0722    1.0597 O   0  0  0  0  0  0  0  0  0  0  0  0
    6.4209   -1.2894    1.6849 C   0  0  0  0  0  0  0  0  0  0  0  0
  1  2  1  0
  2  3  1  0
  3  4  2  0
  4  5  1  0
  5  6  2  0
  6  7  1  0
  7  8  1  0
  8  9  2  0
  9 10  1  0
 10 11  1  0
 11 12  2  0
 11 13  1  0
 13 14  1  0
 14 15  1  0
 15 16  1  0
 16 17  2  0
 17 18  1  0
 18 19  2  0
 19 20  1  0
 20 21  2  0
 21 22  1  0
 22 23  2  0
 23 24  1  0
 24 25  2  0
 25 26  1  0
 26 27  2  0
  7 28  2  0
 28 29  1  0
 29 30  1  0
 28  3  1  0
 27 15  1  0
 21 16  1  0
 27 22  1  0
M  END
>  <zinc_id>  (1) 
ZINC000004502932

>  <smiles>  (1) 
COc1cccc(/C=N/NC(=O)CSC2c3ccccc3-c3ccccc32)c1OC

$$$$
