
     RDKit          3D

 32 34  0  0  0  0  0  0  0  0999 V2000
    4.2116    2.3409    2.7247 C   0  0  0  0  0  0  0  0  0  0  0  0
    3.6048    1.8383    1.4349 C   0  0  0  0  0  0  0  0  0  0  0  0
    4.0636    2.7611    0.3212 C   0  0  0  0  0  0  0  0  0  0  0  0
    4.0814    0.4669    1.1215 C   0  0  0  0  0  0  0  0  0  0  0  0
    4.9569   -0.1249    1.9961 C   0  0  0  0  0  0  0  0  0  0  0  0
    5.4183   -1.4015    1.7311 C   0  0  0  0  0  0  0  0  0  0  0  0
    4.9936   -2.0436    0.6072 C   0  0  0  0  0  0  0  0  0  0  0  0
    4.1013   -1.4710   -0.3075 C   0  0  0  0  0  0  0  0  0  0  0  0
    3.7443   -2.2695   -1.4725 C   0  0  0  0  0  0  0  0  0  0  0  0
    4.3760   -3.6199   -1.5090 C   0  0  0  0  0  0  0  0  0  0  0  0
    2.3248   -2.2179   -1.9116 C   0  0  0  0  0  0  0  0  0  0  0  0
    3.6583   -0.2057   -0.0225 C   0  0  0  0  0  0  0  0  0  0  0  0
    2.7601    0.4308   -0.9082 N   0  0  0  0  0  0  0  0  0  0  0  0
    1.3736    0.3241   -0.6730 C   0  0  0  0  0  0  0  0  0  0  0  0
    0.9833   -0.3322    0.3205 O   0  0  0  0  0  0  0  0  0  0  0  0
    0.3537    0.9589   -1.5564 C   0  0  0  0  0  0  0  0  0  0  0  0
   -0.9558    0.6994   -1.1033 O   0  0  0  0  0  0  0  0  0  0  0  0
   -1.4295    1.0727    0.1337 C   0  0  0  0  0  0  0  0  0  0  0  0
   -0.6574    1.6818    0.9146 O   0  0  0  0  0  0  0  0  0  0  0  0
   -2.8148    0.7820    0.5753 C   0  0  0  0  0  0  0  0  0  0  0  0
   -3.1035   -0.6701    0.5888 C   0  0  0  0  0  0  0  0  0  0  0  0
   -2.5594   -1.5326   -0.3385 C   0  0  0  0  0  0  0  0  0  0  0  0
   -2.8053   -2.8845   -0.3561 C   0  0  0  0  0  0  0  0  0  0  0  0
   -3.6372   -3.4191    0.5970 C   0  0  0  0  0  0  0  0  0  0  0  0
   -4.2012   -2.6050    1.5382 C   0  0  0  0  0  0  0  0  0  0  0  0
   -3.9343   -1.2370    1.5324 C   0  0  0  0  0  0  0  0  0  0  0  0
   -3.8259    1.4647   -0.2700 C   0  0  0  0  0  0  0  0  0  0  0  0
   -3.6817    1.6749   -1.6192 C   0  0  0  0  0  0  0  0  0  0  0  0
   -4.6543    2.3153   -2.3543 C   0  0  0  0  0  0  0  0  0  0  0  0
   -5.7933    2.7506   -1.7117 C   0  0  0  0  0  0  0  0  0  0  0  0
   -5.9757    2.5587   -0.3588 C   0  0  0  0  0  0  0  0  0  0  0  0
   -4.9763    1.9134    0.3353 C   0  0  0  0  0  0  0  0  0  0  0  0
  1  2  1  0
  2  3  1  0
  2  4  1  0
  4  5  2  0
  5  6  1  0
  6  7  2  0
  7  8  1  0
  8  9  1  0
  9 10  1  0
  9 11  1  0
  8 12  2  0
 12 13  1  0
 13 14  1  0
 14 15  2  0
 14 16  1  0
 16 17  1  0
 17 18  1  0
 18 19  2  0
 18 20  1  0
 20 21  1  0
 21 22  2  0
 22 23  1  0
 23 24  2  0
 24 25  1  0
 25 26  2  0
 20 27  1  0
 27 28  2  0
 28 29  1  0
 29 30  2  0
 30 31  1  0
 31 32  2  0
 12  4  1  0
 26 21  1  0
 32 27  1  0
M  END
>  <zinc_id>  (1) 
ZINC000001939441

>  <smiles>  (1) 
CC(C)c1cccc(C(C)C)c1NC(=O)COC(=O)C(c1ccccc1)c1ccccc1

$$$$
