
     RDKit          3D

 31 34  0  0  0  0  0  0  0  0999 V2000
    5.3642    2.2074   -1.8567 C   0  0  0  0  0  0  0  0  0  0  0  0
    5.6811    1.3205   -0.6533 C   0  0  0  0  0  0  0  0  0  0  0  0
    6.9473    0.5728   -0.8780 C   0  0  0  0  0  0  0  0  0  0  0  0
    5.8280    2.2786    0.4983 C   0  0  0  0  0  0  0  0  0  0  0  0
    4.5578    0.4106   -0.4365 C   0  0  0  0  0  0  0  0  0  0  0  0
    3.9484   -0.2372   -1.5060 C   0  0  0  0  0  0  0  0  0  0  0  0
    2.9356   -1.0837   -1.2439 C   0  0  0  0  0  0  0  0  0  0  0  0
    2.4746   -1.3382    0.0192 C   0  0  0  0  0  0  0  0  0  0  0  0
    1.4119   -2.2706    0.2658 C   0  0  0  0  0  0  0  0  0  0  0  0
    0.1193   -1.7083    0.3731 N   0  0  0  0  0  0  0  0  0  0  0  0
   -0.2349   -0.3610    0.6485 C   0  0  0  0  0  0  0  0  0  0  0  0
    0.6784    0.4700    0.7870 O   0  0  0  0  0  0  0  0  0  0  0  0
   -1.6709   -0.0111    0.7601 C   0  0  0  0  0  0  0  0  0  0  0  0
   -2.7411   -0.6662    0.6607 C   0  0  0  0  0  0  0  0  0  0  0  0
   -2.8547   -2.1214    0.3898 C   0  0  0  0  0  0  0  0  0  0  0  0
   -3.7428   -2.6804   -0.4861 C   0  0  0  0  0  0  0  0  0  0  0  0
   -3.8755   -4.0493   -0.6441 C   0  0  0  0  0  0  0  0  0  0  0  0
   -3.1191   -4.9065    0.0759 C   0  0  0  0  0  0  0  0  0  0  0  0
   -2.2089   -4.3684    0.9611 C   0  0  0  0  0  0  0  0  0  0  0  0
   -2.0922   -3.0106    1.1066 C   0  0  0  0  0  0  0  0  0  0  0  0
   -3.7809    0.2853    0.8045 N   0  0  0  0  0  0  0  0  0  0  0  0
   -3.4305    0.9860    1.8441 O   0  0  0  0  0  0  0  0  0  0  0  0
   -1.9891    1.4166    1.4014 C   0  0  2  0  0  0  0  0  0  0  0  0
   -2.3508    2.3255    0.2207 C   0  0  0  0  0  0  0  0  0  0  0  0
   -1.3066    2.8707   -0.4718 C   0  0  0  0  0  0  0  0  0  0  0  0
   -1.5023    3.7807   -1.5230 C   0  0  0  0  0  0  0  0  0  0  0  0
   -2.7977    4.1221   -1.8549 C   0  0  0  0  0  0  0  0  0  0  0  0
   -3.8528    3.5940   -1.1922 C   0  0  0  0  0  0  0  0  0  0  0  0
   -3.5967    2.6994   -0.1562 C   0  0  0  0  0  0  0  0  0  0  0  0
    3.0914   -0.6925    1.0630 C   0  0  0  0  0  0  0  0  0  0  0  0
    4.1094    0.1650    0.8462 C   0  0  0  0  0  0  0  0  0  0  0  0
  1  2  1  0
  2  3  1  0
  2  4  1  0
  2  5  1  0
  5  6  2  0
  6  7  1  0
  7  8  2  0
  8  9  1  0
  9 10  1  0
 10 11  1  0
 11 12  2  0
 11 13  1  0
 13 14  2  0
 14 15  1  0
 15 16  2  0
 16 17  1  0
 17 18  2  0
 18 19  1  0
 19 20  2  0
 14 21  1  0
 21 22  1  0
 22 23  1  0
 23 24  1  6
 24 25  2  0
 25 26  1  0
 26 27  2  0
 27 28  1  0
 28 29  2  0
  8 30  1  0
 30 31  2  0
 31  5  1  0
 23 13  1  0
 29 24  1  0
 20 15  1  0
M  END
>  <zinc_id>  (1) 
ZINC000002459690

>  <smiles>  (1) 
CC(C)(C)c1ccc(CNC(=O)C2=C(c3ccccc3)NO[C@@H]2c2ccccc2)cc1

$$$$
