
     RDKit          3D

 29 31  0  0  0  0  0  0  0  0999 V2000
   10.1047    1.1907   -1.2229 C   0  0  0  0  0  0  0  0  0  0  0  0
    8.6863    0.7861   -0.9806 C   0  0  0  0  0  0  0  0  0  0  0  0
    7.8686    1.5541   -0.1463 C   0  0  0  0  0  0  0  0  0  0  0  0
    6.5740    1.2365    0.1408 C   0  0  0  0  0  0  0  0  0  0  0  0
    6.0661    0.0673   -0.4509 C   0  0  0  0  0  0  0  0  0  0  0  0
    4.6938   -0.3481   -0.1548 C   0  0  0  0  0  0  0  0  0  0  0  0
    4.1961   -1.5379   -0.6166 C   0  0  0  0  0  0  0  0  0  0  0  0
    2.9085   -1.8860   -0.2162 C   0  0  0  0  0  0  0  0  0  0  0  0
    2.1242   -1.1204    0.5920 C   0  0  0  0  0  0  0  0  0  0  0  0
    0.5521   -1.6028    1.2870 S   0  0  0  0  0  0  0  0  0  0  0  0
   -0.2349   -0.2055    2.1076 C   0  0  0  0  0  0  0  0  0  0  0  0
   -1.4835    0.1100    1.3806 C   0  0  0  0  0  0  0  0  0  0  0  0
   -1.6782    0.8936    0.2916 C   0  0  0  0  0  0  0  0  0  0  0  0
   -2.9937    1.0693   -0.2066 C   0  0  0  0  0  0  0  0  0  0  0  0
   -4.0525    0.4942    0.3534 C   0  0  0  0  0  0  0  0  0  0  0  0
   -5.4810    0.5431   -0.0236 C   0  0  0  0  0  0  0  0  0  0  0  0
   -5.9427    0.5130   -1.1542 O   0  0  0  0  0  0  0  0  0  0  0  0
   -6.4869    0.6259    0.9881 N   0  0  0  0  0  0  0  0  0  0  0  0
   -7.9847    0.6520    0.5480 C   0  0  1  0  0  0  0  0  0  0  0  0
   -7.7276    1.7052   -0.6984 C   0  0  0  0  0  0  0  0  0  0  0  0
   -7.8718   -0.6932   -0.4086 C   0  0  0  0  0  0  0  0  0  0  0  0
   -9.2543   -0.9051   -0.9439 C   0  0  0  0  0  0  0  0  0  0  0  0
   -7.6577   -1.7483    0.6711 C   0  0  0  0  0  0  0  0  0  0  0  0
   -3.8667   -0.3130    1.4806 C   0  0  0  0  0  0  0  0  0  0  0  0
   -2.6205   -0.4897    1.9644 C   0  0  0  0  0  0  0  0  0  0  0  0
    2.6962    0.0509    1.0034 N   0  0  0  0  0  0  0  0  0  0  0  0
    3.9057    0.4084    0.6518 N   0  0  0  0  0  0  0  0  0  0  0  0
    6.8271   -0.7147   -1.2724 C   0  0  0  0  0  0  0  0  0  0  0  0
    8.1329   -0.3356   -1.5237 C   0  0  0  0  0  0  0  0  0  0  0  0
  1  2  1  0
  2  3  2  0
  3  4  1  0
  4  5  2  0
  5  6  1  0
  6  7  2  0
  7  8  1  0
  8  9  2  0
  9 10  1  0
 10 11  1  0
 11 12  1  0
 12 13  2  0
 13 14  1  0
 14 15  2  0
 15 16  1  0
 16 17  2  0
 16 18  1  0
 18 19  1  0
 19 20  1  6
 19 21  1  0
 21 22  1  0
 21 23  1  0
 15 24  1  0
 24 25  2  0
  9 26  1  0
 26 27  2  0
  5 28  1  0
 28 29  2  0
 29  2  1  0
 27  6  1  0
 25 12  1  0
M  END
>  <zinc_id>  (1) 
ZINC000000737803

>  <smiles>  (1) 
Cc1ccc(-c2ccc(SCc3ccc(C(=O)N[C@@H](C)C(C)C)cc3)nn2)cc1

$$$$
