
     RDKit          3D

 30 34  0  0  0  0  0  0  0  0999 V2000
    5.5701   -2.4176    3.0181 C   0  0  0  0  0  0  0  0  0  0  0  0
    6.5907   -1.9756    1.9734 C   0  0  0  0  0  0  0  0  0  0  0  0
    6.1663   -0.8392    1.2792 O   0  0  0  0  0  0  0  0  0  0  0  0
    4.9657   -0.8906    0.5435 C   0  0  0  0  0  0  0  0  0  0  0  0
    4.1957   -2.0213    0.4844 C   0  0  0  0  0  0  0  0  0  0  0  0
    3.0214   -2.0934   -0.2271 C   0  0  0  0  0  0  0  0  0  0  0  0
    2.6290   -0.9266   -0.9126 C   0  0  0  0  0  0  0  0  0  0  0  0
    3.3859    0.2015   -0.8608 C   0  0  0  0  0  0  0  0  0  0  0  0
    2.8886    1.4836   -1.6557 C   0  0  2  0  0  0  0  0  0  0  0  0
    3.1660    2.5938   -0.5404 N   0  0  0  0  0  0  0  0  0  0  0  0
    3.1005    2.0155    0.7145 C   0  0  0  0  0  0  0  0  0  0  0  0
    1.6602    1.8970    1.1463 C   0  0  0  0  0  0  0  0  0  0  0  0
    0.8854    1.5385   -0.0715 C   0  0  0  0  0  0  0  0  0  0  0  0
    1.3194    1.3444   -1.2936 C   0  0  0  0  0  0  0  0  0  0  0  0
    0.3369    1.0359   -2.1336 N   0  0  0  0  0  0  0  0  0  0  0  0
   -0.8010    1.0295   -1.4150 C   0  0  0  0  0  0  0  0  0  0  0  0
   -2.1216    0.7845   -1.7266 C   0  0  0  0  0  0  0  0  0  0  0  0
   -3.1083    0.8464   -0.7778 C   0  0  0  0  0  0  0  0  0  0  0  0
   -2.8273    1.1579    0.5387 C   0  0  0  0  0  0  0  0  0  0  0  0
   -3.8165    1.2209    1.4942 O   0  0  0  0  0  0  0  0  0  0  0  0
   -5.1777    0.9903    1.2821 C   0  0  0  0  0  0  0  0  0  0  0  0
   -5.4763   -0.3687    0.7759 C   0  0  0  0  0  0  0  0  0  0  0  0
   -5.6707   -1.4446    1.6366 C   0  0  0  0  0  0  0  0  0  0  0  0
   -5.9496   -2.6995    1.1408 C   0  0  0  0  0  0  0  0  0  0  0  0
   -6.0476   -2.9437   -0.2164 C   0  0  0  0  0  0  0  0  0  0  0  0
   -5.8558   -1.8835   -1.0605 C   0  0  0  0  0  0  0  0  0  0  0  0
   -5.5759   -0.6237   -0.5625 C   0  0  0  0  0  0  0  0  0  0  0  0
   -1.4943    1.4043    0.8488 C   0  0  0  0  0  0  0  0  0  0  0  0
   -0.4937    1.3420   -0.1109 C   0  0  0  0  0  0  0  0  0  0  0  0
    4.5346    0.2422   -0.1536 C   0  0  0  0  0  0  0  0  0  0  0  0
  1  2  1  0
  2  3  1  0
  3  4  1  0
  4  5  2  0
  5  6  1  0
  6  7  2  0
  7  8  1  0
  9  8  1  1
  9 10  1  0
 10 11  1  0
 11 12  1  0
 12 13  1  0
 13 14  2  0
 14 15  1  0
 15 16  1  0
 16 17  2  0
 17 18  1  0
 18 19  2  0
 19 20  1  0
 20 21  1  0
 21 22  1  0
 22 23  2  0
 23 24  1  0
 24 25  2  0
 25 26  1  0
 26 27  2  0
 19 28  1  0
 28 29  2  0
  8 30  2  0
 30  4  1  0
 14  9  1  0
 29 16  1  0
 29 13  1  0
 27 22  1  0
M  END
>  <zinc_id>  (1) 
ZINC000003735449

>  <smiles>  (1) 
CCOc1cccc([C@@H]2NCCc3c2[nH]c2ccc(OCc4ccccc4)cc32)c1

$$$$
