
     RDKit          3D

 31 34  0  0  0  0  0  0  0  0999 V2000
   -1.3543   -0.2986   -1.4353 O   0  0  0  0  0  0  0  0  0  0  0  0
   -2.0276    0.0544   -0.4384 C   0  0  0  0  0  0  0  0  0  0  0  0
   -1.2981    0.2186    0.7928 N   0  0  0  0  0  0  0  0  0  0  0  0
    0.0173    0.0446    0.9873 N   0  0  0  0  0  0  0  0  0  0  0  0
    0.7854   -0.6648    1.6478 C   0  0  0  0  0  0  0  0  0  0  0  0
    2.2494   -0.6043    1.6335 C   0  0  0  0  0  0  0  0  0  0  0  0
    2.9152    0.2905    0.8135 C   0  0  0  0  0  0  0  0  0  0  0  0
    4.3025    0.3346    0.8294 C   0  0  0  0  0  0  0  0  0  0  0  0
    5.0839   -0.4776    1.6322 C   0  0  0  0  0  0  0  0  0  0  0  0
    6.4982   -0.3774    1.6300 N   0  0  0  0  0  0  0  0  0  0  0  0
    7.3486    0.4426    0.7952 C   0  0  0  0  0  0  0  0  0  0  0  0
    8.3630    0.9792    1.7618 C   0  0  0  0  0  0  0  0  0  0  0  0
    8.5857   -0.1903    2.6873 C   0  0  0  0  0  0  0  0  0  0  0  0
    7.3823   -1.0940    2.5159 C   0  0  0  0  0  0  0  0  0  0  0  0
    4.4135   -1.3618    2.4420 C   0  0  0  0  0  0  0  0  0  0  0  0
    5.1256   -2.1904    3.2529 F   0  0  0  0  0  0  0  0  0  0  0  0
    3.0169   -1.4124    2.4310 C   0  0  0  0  0  0  0  0  0  0  0  0
   -3.4593    0.3095   -0.4299 C   0  0  0  0  0  0  0  0  0  0  0  0
   -3.8826    0.6418    0.8829 O   0  0  0  0  0  0  0  0  0  0  0  0
   -3.6801    1.5292   -1.2895 C   0  0  0  0  0  0  0  0  0  0  0  0
   -3.7995    1.4759   -2.6375 C   0  0  0  0  0  0  0  0  0  0  0  0
   -3.9963    2.6237   -3.4070 C   0  0  0  0  0  0  0  0  0  0  0  0
   -4.0661    3.8221   -2.7837 C   0  0  0  0  0  0  0  0  0  0  0  0
   -3.9459    3.9050   -1.4182 C   0  0  0  0  0  0  0  0  0  0  0  0
   -3.7546    2.7594   -0.6782 C   0  0  0  0  0  0  0  0  0  0  0  0
   -4.3296   -0.7592   -0.9144 C   0  0  0  0  0  0  0  0  0  0  0  0
   -4.0119   -1.4083   -2.0963 C   0  0  0  0  0  0  0  0  0  0  0  0
   -4.7984   -2.4181   -2.6081 C   0  0  0  0  0  0  0  0  0  0  0  0
   -5.9384   -2.8094   -1.9404 C   0  0  0  0  0  0  0  0  0  0  0  0
   -6.2726   -2.1953   -0.7862 C   0  0  0  0  0  0  0  0  0  0  0  0
   -5.4720   -1.1693   -0.2688 C   0  0  0  0  0  0  0  0  0  0  0  0
  1  2  2  0
  2  3  1  0
  3  4  1  0
  4  5  2  0
  5  6  1  0
  6  7  2  0
  7  8  1  0
  8  9  2  0
  9 10  1  0
 10 11  1  0
 11 12  1  0
 12 13  1  0
 13 14  1  0
  9 15  1  0
 15 16  1  0
 15 17  2  0
  2 18  1  0
 18 19  1  0
 18 20  1  0
 20 21  2  0
 21 22  1  0
 22 23  2  0
 23 24  1  0
 24 25  2  0
 18 26  1  0
 26 27  2  0
 27 28  1  0
 28 29  2  0
 29 30  1  0
 30 31  2  0
 17  6  1  0
 25 20  1  0
 31 26  1  0
 14 10  1  0
M  END
>  <zinc_id>  (1) 
ZINC000001095191

>  <smiles>  (1) 
O=C(N/N=C/c1ccc(N2CCCC2)c(F)c1)C(O)(c1ccccc1)c1ccccc1

$$$$
