
     RDKit          3D

 30 32  0  0  0  0  0  0  0  0999 V2000
   -6.1166   -3.6771    0.7264 C   0  0  0  0  0  0  0  0  0  0  0  0
   -5.0249   -2.8586    0.0917 C   0  0  0  0  0  0  0  0  0  0  0  0
   -4.0315   -2.3199    0.8838 C   0  0  0  0  0  0  0  0  0  0  0  0
   -3.0144   -1.5581    0.2957 C   0  0  0  0  0  0  0  0  0  0  0  0
   -2.9787   -1.3314   -1.0585 C   0  0  0  0  0  0  0  0  0  0  0  0
   -1.9346   -0.5607   -1.6037 N   0  0  0  0  0  0  0  0  0  0  0  0
   -0.9588   -0.0377   -0.8052 C   0  0  0  0  0  0  0  0  0  0  0  0
   -0.9128   -0.1929    0.4278 O   0  0  0  0  0  0  0  0  0  0  0  0
    0.2267    0.8383   -1.4383 C   0  0  1  0  0  0  0  0  0  0  0  0
   -0.6323    2.2531   -1.5002 C   0  0  0  0  0  0  0  0  0  0  0  0
   -1.0448    2.6203   -0.1669 C   0  0  0  0  0  0  0  0  0  0  0  0
   -0.3186    3.3955    0.7152 C   0  0  0  0  0  0  0  0  0  0  0  0
   -0.7351    3.7317    1.9659 C   0  0  0  0  0  0  0  0  0  0  0  0
   -1.9542    3.2985    2.4379 C   0  0  0  0  0  0  0  0  0  0  0  0
   -2.7127    2.5211    1.5896 C   0  0  0  0  0  0  0  0  0  0  0  0
   -2.2685    2.1928    0.3237 C   0  0  0  0  0  0  0  0  0  0  0  0
    1.0183    1.1900   -0.1154 N   0  0  0  0  0  0  0  0  0  0  0  0
    2.4406    1.1308   -0.2839 C   0  0  0  0  0  0  0  0  0  0  0  0
    2.9272    0.8231   -1.4001 O   0  0  0  0  0  0  0  0  0  0  0  0
    3.3204    1.4040    0.7506 O   0  0  0  0  0  0  0  0  0  0  0  0
    4.7167    1.3405    0.5716 C   0  0  0  0  0  0  0  0  0  0  0  0
    5.0744   -0.0444    0.1748 C   0  0  0  0  0  0  0  0  0  0  0  0
    4.1938   -1.0927    0.0986 C   0  0  0  0  0  0  0  0  0  0  0  0
    4.5794   -2.3514   -0.2714 C   0  0  0  0  0  0  0  0  0  0  0  0
    5.8800   -2.6271   -0.5870 C   0  0  0  0  0  0  0  0  0  0  0  0
    6.7941   -1.5975   -0.5215 C   0  0  0  0  0  0  0  0  0  0  0  0
    6.3986   -0.3395   -0.1500 C   0  0  0  0  0  0  0  0  0  0  0  0
   -3.9770   -1.8755   -1.8383 C   0  0  0  0  0  0  0  0  0  0  0  0
   -3.9788   -1.6510   -3.3271 C   0  0  0  0  0  0  0  0  0  0  0  0
   -4.9759   -2.6243   -1.2529 C   0  0  0  0  0  0  0  0  0  0  0  0
  1  2  1  0
  2  3  2  0
  3  4  1  0
  4  5  2  0
  5  6  1  0
  6  7  1  0
  7  8  2  0
  7  9  1  0
  9 10  1  1
 10 11  1  0
 11 12  2  0
 12 13  1  0
 13 14  2  0
 14 15  1  0
 15 16  2  0
  9 17  1  0
 17 18  1  0
 18 19  2  0
 18 20  1  0
 20 21  1  0
 21 22  1  0
 22 23  2  0
 23 24  1  0
 24 25  2  0
 25 26  1  0
 26 27  2  0
  5 28  1  0
 28 29  1  0
 28 30  2  0
 30  2  1  0
 16 11  1  0
 27 22  1  0
M  END
>  <zinc_id>  (1) 
ZINC000001056072

>  <smiles>  (1) 
Cc1ccc(NC(=O)[C@@H](Cc2ccccc2)NC(=O)OCc2ccccc2)c(C)c1

$$$$
