
     RDKit          3D

 32 35  0  0  0  0  0  0  0  0999 V2000
   -6.0586    3.3962   -1.0443 C   0  0  0  0  0  0  0  0  0  0  0  0
   -5.4512    2.4962   -2.0795 C   0  0  0  0  0  0  0  0  0  0  0  0
   -4.2812    1.8650   -1.6489 O   0  0  0  0  0  0  0  0  0  0  0  0
   -4.2398    1.0211   -0.5522 C   0  0  0  0  0  0  0  0  0  0  0  0
   -5.4148    0.8052    0.1343 C   0  0  0  0  0  0  0  0  0  0  0  0
   -5.4389   -0.0246    1.2353 C   0  0  0  0  0  0  0  0  0  0  0  0
   -4.2386   -0.6206    1.6087 C   0  0  0  0  0  0  0  0  0  0  0  0
   -3.0617   -0.4057    0.9227 C   0  0  0  0  0  0  0  0  0  0  0  0
   -3.0569    0.4262   -0.1737 C   0  0  0  0  0  0  0  0  0  0  0  0
   -1.8634    0.6825   -0.9224 N   0  0  0  0  0  0  0  0  0  0  0  0
   -0.6208    0.0824   -0.5613 C   0  0  0  0  0  0  0  0  0  0  0  0
    0.4953    0.7816   -0.3249 C   0  0  0  0  0  0  0  0  0  0  0  0
    0.5210    2.5448   -0.4438 S   0  0  0  0  0  0  0  0  0  0  0  0
    2.1031    3.2390   -0.1186 C   0  0  0  0  0  0  0  0  0  0  0  0
    2.2296    4.6410   -0.1825 C   0  0  0  0  0  0  0  0  0  0  0  0
    3.4002    5.2987    0.0467 C   0  0  0  0  0  0  0  0  0  0  0  0
    4.5260    4.5411    0.3602 C   0  0  0  0  0  0  0  0  0  0  0  0
    4.4364    3.1636    0.4313 C   0  0  0  0  0  0  0  0  0  0  0  0
    3.2474    2.5753    0.1929 C   0  0  0  0  0  0  0  0  0  0  0  0
    1.5126   -0.1937    0.0029 C   0  0  0  0  0  0  0  0  0  0  0  0
    2.7054    0.0379    0.2913 O   0  0  0  0  0  0  0  0  0  0  0  0
    0.9770   -1.5366   -0.0405 N   0  0  0  0  0  0  0  0  0  0  0  0
    1.6885   -2.7466    0.2238 C   0  0  0  0  0  0  0  0  0  0  0  0
    2.7028   -3.1343   -0.6292 C   0  0  0  0  0  0  0  0  0  0  0  0
    3.4168   -4.2932   -0.4139 C   0  0  0  0  0  0  0  0  0  0  0  0
    4.4849   -4.6541   -1.3565 C   0  0  0  0  0  0  0  0  0  0  0  0
    3.1244   -5.0924    0.6700 C   0  0  0  0  0  0  0  0  0  0  0  0
    2.0964   -4.6792    1.5159 C   0  0  0  0  0  0  0  0  0  0  0  0
    1.3821   -3.5334    1.3132 C   0  0  0  0  0  0  0  0  0  0  0  0
    0.2869   -3.0716    2.1950 C   0  0  0  0  0  0  0  0  0  0  0  0
   -0.3763   -1.3413   -0.3998 C   0  0  0  0  0  0  0  0  0  0  0  0
   -1.2343   -2.2705   -0.5543 O   0  0  0  0  0  0  0  0  0  0  0  0
  1  2  1  0
  2  3  1  0
  3  4  1  0
  4  5  2  0
  5  6  1  0
  6  7  2  0
  7  8  1  0
  8  9  2  0
  9 10  1  0
 10 11  1  0
 11 12  2  0
 12 13  1  0
 13 14  1  0
 14 15  2  0
 15 16  1  0
 16 17  2  0
 17 18  1  0
 18 19  2  0
 12 20  1  0
 20 21  2  0
 20 22  1  0
 22 23  1  0
 23 24  2  0
 24 25  1  0
 25 26  1  0
 25 27  2  0
 27 28  1  0
 28 29  2  0
 29 30  1  0
 22 31  1  0
 31 32  2  0
  9  4  1  0
 31 11  1  0
 19 14  1  0
 29 23  1  0
M  END
>  <zinc_id>  (1) 
ZINC000001930352

>  <smiles>  (1) 
CCOc1ccccc1NC1=C(Sc2ccccc2)C(=O)N(c2cc(C)ccc2C)C1=O

$$$$
