
     RDKit          3D

 30 32  0  0  0  0  0  0  0  0999 V2000
   -5.9387   -0.9551    4.1872 C   0  0  0  0  0  0  0  0  0  0  0  0
   -7.0978    0.0087    3.9559 C   0  0  0  0  0  0  0  0  0  0  0  0
   -6.6206    1.2484    3.4701 O   0  0  0  0  0  0  0  0  0  0  0  0
   -5.9124    1.2907    2.2647 C   0  0  0  0  0  0  0  0  0  0  0  0
   -5.6795    0.1497    1.5572 C   0  0  0  0  0  0  0  0  0  0  0  0
   -4.9889    0.1867    0.3806 C   0  0  0  0  0  0  0  0  0  0  0  0
   -4.5141    1.3869   -0.1119 C   0  0  0  0  0  0  0  0  0  0  0  0
   -3.8077    1.4921   -1.2972 O   0  0  0  0  0  0  0  0  0  0  0  0
   -3.4811    0.4263   -2.1453 C   0  0  0  0  0  0  0  0  0  0  0  0
   -2.6500   -0.6146   -1.5062 C   0  0  0  0  0  0  0  0  0  0  0  0
   -3.2006   -1.7058   -0.8663 C   0  0  0  0  0  0  0  0  0  0  0  0
   -2.4640   -2.6880   -0.2644 C   0  0  0  0  0  0  0  0  0  0  0  0
   -1.0900   -2.5885   -0.2950 C   0  0  0  0  0  0  0  0  0  0  0  0
   -0.5088   -1.5151   -0.9237 C   0  0  0  0  0  0  0  0  0  0  0  0
    0.9324   -1.3754   -0.9773 C   0  0  0  0  0  0  0  0  0  0  0  0
    1.6535   -2.2545   -0.4385 O   0  0  0  0  0  0  0  0  0  0  0  0
    1.5949   -0.2985   -1.6054 N   0  0  0  0  0  0  0  0  0  0  0  0
    2.9921   -0.2360   -1.6139 N   0  0  0  0  0  0  0  0  0  0  0  0
    3.6947    0.2384   -0.6690 C   0  0  0  0  0  0  0  0  0  0  0  0
    5.1421    0.3096   -0.6639 C   0  0  0  0  0  0  0  0  0  0  0  0
    5.9018   -0.1449   -1.7149 C   0  0  0  0  0  0  0  0  0  0  0  0
    7.2812   -0.0802   -1.7164 C   0  0  0  0  0  0  0  0  0  0  0  0
    7.9435    0.4569   -0.6327 C   0  0  0  0  0  0  0  0  0  0  0  0
    9.3499    0.5341   -0.6102 O   0  0  0  0  0  0  0  0  0  0  0  0
    9.9470    1.0995    0.5406 C   0  0  0  0  0  0  0  0  0  0  0  0
    7.1824    0.9126    0.4209 C   0  0  0  0  0  0  0  0  0  0  0  0
    5.7911    0.8473    0.4222 C   0  0  0  0  0  0  0  0  0  0  0  0
   -1.2650   -0.5372   -1.5235 C   0  0  0  0  0  0  0  0  0  0  0  0
   -4.7436    2.5570    0.5978 C   0  0  0  0  0  0  0  0  0  0  0  0
   -5.4437    2.4749    1.7784 C   0  0  0  0  0  0  0  0  0  0  0  0
  1  2  1  0
  2  3  1  0
  3  4  1  0
  4  5  2  0
  5  6  1  0
  6  7  2  0
  7  8  1  0
  8  9  1  0
  9 10  1  0
 10 11  2  0
 11 12  1  0
 12 13  2  0
 13 14  1  0
 14 15  1  0
 15 16  2  0
 15 17  1  0
 17 18  1  0
 18 19  2  0
 19 20  1  0
 20 21  2  0
 21 22  1  0
 22 23  2  0
 23 24  1  0
 24 25  1  0
 23 26  1  0
 26 27  2  0
 14 28  2  0
  7 29  1  0
 29 30  2  0
 30  4  1  0
 28 10  1  0
 27 20  1  0
M  END
>  <zinc_id>  (1) 
ZINC000000662780

>  <smiles>  (1) 
CCOc1ccc(OCc2cccc(C(=O)N/N=C/c3ccc(OC)cc3)c2)cc1

$$$$
