
     RDKit          3D

 32 36  0  0  0  0  0  0  0  0999 V2000
   -0.7115    0.8600   -0.4660 C   0  0  0  0  0  0  0  0  0  0  0  0
   -2.1264    0.3256   -0.9461 C   0  0  2  0  0  0  0  0  0  0  0  0
   -2.9498    0.9069    0.3369 C   0  0  0  0  0  0  0  0  0  0  0  0
   -2.7907    2.3127    0.3686 N   0  0  0  0  0  0  0  0  0  0  0  0
   -3.4139    3.0531   -0.6855 C   0  0  0  0  0  0  0  0  0  0  0  0
   -2.6393    4.3506   -0.7845 C   0  0  0  0  0  0  0  0  0  0  0  0
   -1.2566    4.0257   -0.2623 C   0  0  0  0  0  0  0  0  0  0  0  0
   -1.4926    2.8268    0.6069 C   0  0  0  0  0  0  0  0  0  0  0  0
   -2.0632   -1.1065   -0.4450 N   0  0  0  0  0  0  0  0  0  0  0  0
   -3.2265   -1.9128   -0.7122 C   0  0  0  0  0  0  0  0  0  0  0  0
   -4.2598   -1.2671   -1.3941 C   0  0  0  0  0  0  0  0  0  0  0  0
   -5.4105   -1.9506   -1.6933 C   0  0  0  0  0  0  0  0  0  0  0  0
   -5.5649   -3.2753   -1.3293 C   0  0  0  0  0  0  0  0  0  0  0  0
   -4.5283   -3.8818   -0.6589 C   0  0  0  0  0  0  0  0  0  0  0  0
   -3.3899   -3.2111   -0.3607 C   0  0  0  0  0  0  0  0  0  0  0  0
   -2.0563   -4.0530    0.5216 S   0  0  0  0  0  0  0  0  0  0  0  0
   -0.7756   -2.8524    0.7170 C   0  0  0  0  0  0  0  0  0  0  0  0
    0.3617   -3.2201    1.3591 C   0  0  0  0  0  0  0  0  0  0  0  0
    1.4174   -2.3608    1.5612 C   0  0  0  0  0  0  0  0  0  0  0  0
    1.2592   -1.0646    1.0633 C   0  0  0  0  0  0  0  0  0  0  0  0
    2.3704   -0.1447    1.2722 C   0  0  0  0  0  0  0  0  0  0  0  0
    3.3823   -0.4463    1.9461 O   0  0  0  0  0  0  0  0  0  0  0  0
    2.4137    1.1696    0.7376 N   0  0  0  0  0  0  0  0  0  0  0  0
    3.4456    2.1062    0.8976 C   0  0  0  0  0  0  0  0  0  0  0  0
    4.6694    1.9462    0.1393 C   0  0  0  0  0  0  0  0  0  0  0  0
    4.7167    2.5009   -1.1290 C   0  0  0  0  0  0  0  0  0  0  0  0
    5.8252    2.4116   -1.9354 C   0  0  0  0  0  0  0  0  0  0  0  0
    6.9250    1.7526   -1.4746 C   0  0  0  0  0  0  0  0  0  0  0  0
    6.9019    1.1841   -0.1971 C   0  0  0  0  0  0  0  0  0  0  0  0
    5.7864    1.2829    0.5946 C   0  0  0  0  0  0  0  0  0  0  0  0
    0.1173   -0.7011    0.4206 C   0  0  0  0  0  0  0  0  0  0  0  0
   -0.9365   -1.5671    0.2217 C   0  0  0  0  0  0  0  0  0  0  0  0
  2  1  1  1
  2  3  1  0
  3  4  1  0
  4  5  1  0
  5  6  1  0
  6  7  1  0
  7  8  1  0
  2  9  1  0
  9 10  1  0
 10 11  2  0
 11 12  1  0
 12 13  2  0
 13 14  1  0
 14 15  2  0
 15 16  1  0
 16 17  1  0
 17 18  2  0
 18 19  1  0
 19 20  2  0
 20 21  1  0
 21 22  2  0
 21 23  1  0
 23 24  1  0
 24 25  1  0
 25 26  2  0
 26 27  1  0
 27 28  2  0
 28 29  1  0
 29 30  2  0
 20 31  1  0
 31 32  2  0
  8  4  1  0
 32  9  1  0
 15 10  1  0
 32 17  1  0
 30 25  1  0
M  END
>  <zinc_id>  (1) 
ZINC000002012802

>  <smiles>  (1) 
C[C@H](CN1CCCC1)N1c2ccccc2Sc2ccc(C(=O)NCc3ccccc3)cc21

$$$$
