
     RDKit          3D

 32 35  0  0  0  0  0  0  0  0999 V2000
    6.0938   -1.0606   -0.3338 C   0  0  0  0  0  0  0  0  0  0  0  0
    6.1425   -1.1511    1.1823 C   0  0  0  0  0  0  0  0  0  0  0  0
    5.5821   -0.0313    1.7986 O   0  0  0  0  0  0  0  0  0  0  0  0
    4.2434    0.3530    1.6101 C   0  0  0  0  0  0  0  0  0  0  0  0
    3.3831   -0.3611    0.7964 C   0  0  0  0  0  0  0  0  0  0  0  0
    2.0598    0.0420    0.6251 C   0  0  0  0  0  0  0  0  0  0  0  0
    1.5620    1.1658    1.2605 C   0  0  0  0  0  0  0  0  0  0  0  0
    0.1997    1.4931    1.0181 N   0  0  0  0  0  0  0  0  0  0  0  0
   -0.6533    0.7403    0.1997 C   0  0  0  0  0  0  0  0  0  0  0  0
   -1.2026    1.1848   -0.9172 C   0  0  0  0  0  0  0  0  0  0  0  0
   -0.9905    2.8127   -1.6275 S   0  0  0  0  0  0  0  0  0  0  0  0
    0.0940    3.8035   -0.6216 C   0  0  0  0  0  0  0  0  0  0  0  0
    1.4572    3.8178   -0.8463 C   0  0  0  0  0  0  0  0  0  0  0  0
    2.2333    4.6032   -0.0340 C   0  0  0  0  0  0  0  0  0  0  0  0
    1.7126    5.3674    0.9827 C   0  0  0  0  0  0  0  0  0  0  0  0
    0.3396    5.3278    1.1784 C   0  0  0  0  0  0  0  0  0  0  0  0
   -0.4731    4.5561    0.3894 C   0  0  0  0  0  0  0  0  0  0  0  0
   -2.0280    0.1069   -1.4911 C   0  0  0  0  0  0  0  0  0  0  0  0
   -2.6947    0.1914   -2.5585 O   0  0  0  0  0  0  0  0  0  0  0  0
   -1.9403   -1.0153   -0.6474 N   0  0  0  0  0  0  0  0  0  0  0  0
   -2.5825   -2.2989   -0.8214 C   0  0  0  0  0  0  0  0  0  0  0  0
   -2.4200   -3.2893    0.1167 C   0  0  0  0  0  0  0  0  0  0  0  0
   -3.0449   -4.4987   -0.0964 C   0  0  0  0  0  0  0  0  0  0  0  0
   -3.8149   -4.7568   -1.1926 C   0  0  0  0  0  0  0  0  0  0  0  0
   -4.4434   -6.0927   -1.3294 C   0  0  0  0  0  0  0  0  0  0  0  0
   -5.8195   -6.1068   -0.6808 C   0  0  0  0  0  0  0  0  0  0  0  0
   -3.9828   -3.7519   -2.1486 C   0  0  0  0  0  0  0  0  0  0  0  0
   -3.3570   -2.5425   -1.9338 C   0  0  0  0  0  0  0  0  0  0  0  0
   -1.0815   -0.6342    0.4186 C   0  0  0  0  0  0  0  0  0  0  0  0
   -0.7176   -1.3149    1.4039 O   0  0  0  0  0  0  0  0  0  0  0  0
    2.4118    1.8736    2.0664 C   0  0  0  0  0  0  0  0  0  0  0  0
    3.7315    1.4667    2.2336 C   0  0  0  0  0  0  0  0  0  0  0  0
  1  2  1  0
  2  3  1  0
  3  4  1  0
  4  5  2  0
  5  6  1  0
  6  7  2  0
  7  8  1  0
  8  9  1  0
  9 10  2  0
 10 11  1  0
 11 12  1  0
 12 13  2  0
 13 14  1  0
 14 15  2  0
 15 16  1  0
 16 17  2  0
 10 18  1  0
 18 19  2  0
 18 20  1  0
 20 21  1  0
 21 22  2  0
 22 23  1  0
 23 24  2  0
 24 25  1  0
 25 26  1  0
 24 27  1  0
 27 28  2  0
 20 29  1  0
 29 30  2  0
  7 31  1  0
 31 32  2  0
 32  4  1  0
 29  9  1  0
 17 12  1  0
 28 21  1  0
M  END
>  <zinc_id>  (1) 
ZINC000001928892

>  <smiles>  (1) 
CCOc1ccc(NC2=C(Sc3ccccc3)C(=O)N(c3ccc(CC)cc3)C2=O)cc1

$$$$
