
     RDKit          3D

 32 35  0  0  0  0  0  0  0  0999 V2000
    7.5372    1.5228    2.5202 C   0  0  0  0  0  0  0  0  0  0  0  0
    6.2453    1.9455    2.1842 O   0  0  0  0  0  0  0  0  0  0  0  0
    5.3962    1.1417    1.4116 C   0  0  0  0  0  0  0  0  0  0  0  0
    4.1196    1.5901    1.0937 C   0  0  0  0  0  0  0  0  0  0  0  0
    3.2643    0.8184    0.3358 C   0  0  0  0  0  0  0  0  0  0  0  0
    3.6266   -0.4252   -0.1428 C   0  0  0  0  0  0  0  0  0  0  0  0
    2.7346   -1.2109   -0.9261 N   0  0  0  0  0  0  0  0  0  0  0  0
    1.4169   -0.6647   -1.2038 C   0  0  0  0  0  0  0  0  0  0  0  0
    1.1652    0.4602   -0.7326 O   0  0  0  0  0  0  0  0  0  0  0  0
    0.4818   -1.4350   -1.9946 C   0  0  0  0  0  0  0  0  0  0  0  0
   -1.1406   -0.8072   -2.2054 S   0  0  0  0  0  0  0  0  0  0  0  0
   -2.0973   -0.8153   -0.7307 C   0  0  0  0  0  0  0  0  0  0  0  0
   -2.7247   -1.9929   -0.4152 N   0  0  0  0  0  0  0  0  0  0  0  0
   -3.4940   -2.1306    0.6551 C   0  0  0  0  0  0  0  0  0  0  0  0
   -4.1270   -3.3077    0.9860 C   0  0  0  0  0  0  0  0  0  0  0  0
   -4.9266   -3.4422    2.1080 C   0  0  0  0  0  0  0  0  0  0  0  0
   -5.1208   -2.3749    2.9530 C   0  0  0  0  0  0  0  0  0  0  0  0
   -4.4964   -1.1917    2.6379 C   0  0  0  0  0  0  0  0  0  0  0  0
   -3.7060   -1.0678    1.5240 C   0  0  0  0  0  0  0  0  0  0  0  0
   -3.0734    0.1200    1.2044 C   0  0  0  0  0  0  0  0  0  0  0  0
   -2.2772    0.2569    0.0937 C   0  0  0  0  0  0  0  0  0  0  0  0
   -1.6788    1.5611   -0.2160 C   0  0  0  0  0  0  0  0  0  0  0  0
   -2.4793    2.2217   -1.2805 C   0  0  0  0  0  0  0  0  0  0  0  0
   -3.5271    3.0510   -0.9113 C   0  0  0  0  0  0  0  0  0  0  0  0
   -4.2966    3.6852   -1.8584 C   0  0  0  0  0  0  0  0  0  0  0  0
   -4.0508    3.5174   -3.2070 C   0  0  0  0  0  0  0  0  0  0  0  0
   -3.0090    2.6928   -3.5786 C   0  0  0  0  0  0  0  0  0  0  0  0
   -2.2408    2.0589   -2.6278 C   0  0  0  0  0  0  0  0  0  0  0  0
    4.8936   -0.8702    0.1727 C   0  0  0  0  0  0  0  0  0  0  0  0
    5.2682   -2.1297   -0.3071 O   0  0  0  0  0  0  0  0  0  0  0  0
    6.5543   -2.6845   -0.0385 C   0  0  0  0  0  0  0  0  0  0  0  0
    5.7628   -0.0934    0.9405 C   0  0  0  0  0  0  0  0  0  0  0  0
  1  2  1  0
  2  3  1  0
  3  4  2  0
  4  5  1  0
  5  6  2  0
  6  7  1  0
  7  8  1  0
  8  9  2  0
  8 10  1  0
 10 11  1  0
 11 12  1  0
 12 13  2  0
 13 14  1  0
 14 15  2  0
 15 16  1  0
 16 17  2  0
 17 18  1  0
 18 19  2  0
 19 20  1  0
 20 21  2  0
 21 22  1  0
 22 23  1  0
 23 24  2  0
 24 25  1  0
 25 26  2  0
 26 27  1  0
 27 28  2  0
  6 29  1  0
 29 30  1  0
 30 31  1  0
 29 32  2  0
 32  3  1  0
 21 12  1  0
 28 23  1  0
 19 14  1  0
M  END
>  <zinc_id>  (1) 
ZINC000001339859

>  <smiles>  (1) 
COc1ccc(NC(=O)CSc2nc3ccccc3cc2Cc2ccccc2)c(OC)c1

$$$$
