
     RDKit          3D

 32 35  0  0  0  0  0  0  0  0999 V2000
   -5.8071   -3.8407   -1.3779 C   0  0  0  0  0  0  0  0  0  0  0  0
   -4.6275   -3.0532   -1.2666 O   0  0  0  0  0  0  0  0  0  0  0  0
   -4.0038   -3.0265   -0.0219 C   0  0  0  0  0  0  0  0  0  0  0  0
   -4.5097   -3.7379    1.0658 C   0  0  0  0  0  0  0  0  0  0  0  0
   -3.8849   -3.7033    2.2900 C   0  0  0  0  0  0  0  0  0  0  0  0
   -2.7444   -2.9455    2.4110 C   0  0  0  0  0  0  0  0  0  0  0  0
   -2.2276   -2.2369    1.3523 C   0  0  0  0  0  0  0  0  0  0  0  0
   -2.8592   -2.2724    0.1171 C   0  0  0  0  0  0  0  0  0  0  0  0
   -2.3323   -1.5418   -0.9847 N   0  0  0  0  0  0  0  0  0  0  0  0
   -1.1284   -0.7708   -0.7548 C   0  0  0  0  0  0  0  0  0  0  0  0
   -1.0779    0.5455   -0.6564 C   0  0  0  0  0  0  0  0  0  0  0  0
   -2.4725    1.6686   -0.7839 S   0  0  0  0  0  0  0  0  0  0  0  0
   -1.9958    3.3545   -0.5345 C   0  0  0  0  0  0  0  0  0  0  0  0
   -1.6155    4.2229   -1.5378 C   0  0  0  0  0  0  0  0  0  0  0  0
   -1.2571    5.5256   -1.2481 C   0  0  0  0  0  0  0  0  0  0  0  0
   -1.2849    5.9509    0.0744 C   0  0  0  0  0  0  0  0  0  0  0  0
   -1.6659    5.0859    1.0946 C   0  0  0  0  0  0  0  0  0  0  0  0
   -2.0142    3.8103    0.7853 C   0  0  0  0  0  0  0  0  0  0  0  0
    0.3041    0.9670   -0.4081 C   0  0  0  0  0  0  0  0  0  0  0  0
    0.7413    2.1588   -0.2567 O   0  0  0  0  0  0  0  0  0  0  0  0
    1.1187   -0.1909   -0.3577 N   0  0  0  0  0  0  0  0  0  0  0  0
    2.5166   -0.2696   -0.1298 C   0  0  0  0  0  0  0  0  0  0  0  0
    3.1896    0.8119    0.3923 C   0  0  0  0  0  0  0  0  0  0  0  0
    4.5475    0.7339    0.6256 C   0  0  0  0  0  0  0  0  0  0  0  0
    5.2453   -0.4130    0.3435 C   0  0  0  0  0  0  0  0  0  0  0  0
    6.7005   -0.4591    0.6095 C   0  0  0  0  0  0  0  0  0  0  0  0
    7.0812    0.6286    1.5903 C   0  0  0  0  0  0  0  0  0  0  0  0
    7.4703   -0.3176   -0.6670 C   0  0  0  0  0  0  0  0  0  0  0  0
    4.5889   -1.4866   -0.1730 C   0  0  0  0  0  0  0  0  0  0  0  0
    3.2275   -1.4224   -0.4116 C   0  0  0  0  0  0  0  0  0  0  0  0
    0.2121   -1.2922   -0.5778 C   0  0  0  0  0  0  0  0  0  0  0  0
    0.5654   -2.4840   -0.6033 O   0  0  0  0  0  0  0  0  0  0  0  0
  1  2  1  0
  2  3  1  0
  3  4  2  0
  4  5  1  0
  5  6  2  0
  6  7  1  0
  7  8  2  0
  8  9  1  0
  9 10  1  0
 10 11  2  0
 11 12  1  0
 12 13  1  0
 13 14  2  0
 14 15  1  0
 15 16  2  0
 16 17  1  0
 17 18  2  0
 11 19  1  0
 19 20  2  0
 19 21  1  0
 21 22  1  0
 22 23  2  0
 23 24  1  0
 24 25  2  0
 25 26  1  0
 26 27  1  0
 26 28  1  0
 25 29  1  0
 29 30  2  0
 21 31  1  0
 31 32  2  0
  8  3  1  0
 31 10  1  0
 18 13  1  0
 30 22  1  0
M  END
>  <zinc_id>  (1) 
ZINC000001954927

>  <smiles>  (1) 
COc1ccccc1NC1=C(Sc2ccccc2)C(=O)N(c2ccc(C(C)C)cc2)C1=O

$$$$
