
     RDKit          3D

 32 35  0  0  0  0  0  0  0  0999 V2000
    7.9397    0.8196    0.1653 C   0  0  0  0  0  0  0  0  0  0  0  0
    7.7356   -0.6692    0.0759 C   0  0  0  0  0  0  0  0  0  0  0  0
    6.5120   -1.0652    0.6196 O   0  0  0  0  0  0  0  0  0  0  0  0
    5.2926   -0.6106    0.1415 C   0  0  0  0  0  0  0  0  0  0  0  0
    5.2012    0.2787   -0.9206 C   0  0  0  0  0  0  0  0  0  0  0  0
    3.9653    0.7024   -1.3608 C   0  0  0  0  0  0  0  0  0  0  0  0
    2.7834    0.2822   -0.7915 C   0  0  0  0  0  0  0  0  0  0  0  0
    1.5522    0.7548   -1.2919 N   0  0  0  0  0  0  0  0  0  0  0  0
    0.2963    0.3475   -0.7360 C   0  0  0  0  0  0  0  0  0  0  0  0
   -0.7375    1.1435   -0.4278 C   0  0  0  0  0  0  0  0  0  0  0  0
   -0.6341    2.8771   -0.6979 S   0  0  0  0  0  0  0  0  0  0  0  0
   -2.0667    3.8077   -0.2686 C   0  0  0  0  0  0  0  0  0  0  0  0
   -3.2142    3.2889    0.2430 C   0  0  0  0  0  0  0  0  0  0  0  0
   -4.2805    4.0721    0.5495 C   0  0  0  0  0  0  0  0  0  0  0  0
   -4.2693    5.4514    0.3612 C   0  0  0  0  0  0  0  0  0  0  0  0
   -3.0914    5.9765   -0.1629 C   0  0  0  0  0  0  0  0  0  0  0  0
   -2.0244    5.1935   -0.4697 C   0  0  0  0  0  0  0  0  0  0  0  0
   -1.7994    0.3090    0.1047 C   0  0  0  0  0  0  0  0  0  0  0  0
   -2.9208    0.7148    0.4990 O   0  0  0  0  0  0  0  0  0  0  0  0
   -1.3439   -1.0554    0.1013 N   0  0  0  0  0  0  0  0  0  0  0  0
   -2.1232   -2.1535    0.5557 C   0  0  0  0  0  0  0  0  0  0  0  0
   -2.6071   -2.2582    1.8307 C   0  0  0  0  0  0  0  0  0  0  0  0
   -3.3607   -3.3419    2.2334 C   0  0  0  0  0  0  0  0  0  0  0  0
   -3.6156   -4.3233    1.3126 C   0  0  0  0  0  0  0  0  0  0  0  0
   -3.1435   -4.2446    0.0286 C   0  0  0  0  0  0  0  0  0  0  0  0
   -3.4386   -5.3356   -0.9598 C   0  0  0  0  0  0  0  0  0  0  0  0
   -2.3945   -3.1511   -0.3436 C   0  0  0  0  0  0  0  0  0  0  0  0
   -1.8831   -3.0796   -1.7582 C   0  0  0  0  0  0  0  0  0  0  0  0
   -0.0320   -1.0291   -0.4253 C   0  0  0  0  0  0  0  0  0  0  0  0
    0.7006   -2.0600   -0.5830 O   0  0  0  0  0  0  0  0  0  0  0  0
    2.8832   -0.6009    0.2629 C   0  0  0  0  0  0  0  0  0  0  0  0
    4.1185   -1.0413    0.7233 C   0  0  0  0  0  0  0  0  0  0  0  0
  1  2  1  0
  2  3  1  0
  3  4  1  0
  4  5  2  0
  5  6  1  0
  6  7  2  0
  7  8  1  0
  8  9  1  0
  9 10  2  0
 10 11  1  0
 11 12  1  0
 12 13  2  0
 13 14  1  0
 14 15  2  0
 15 16  1  0
 16 17  2  0
 10 18  1  0
 18 19  2  0
 18 20  1  0
 20 21  1  0
 21 22  2  0
 22 23  1  0
 23 24  2  0
 24 25  1  0
 25 26  1  0
 25 27  2  0
 27 28  1  0
 20 29  1  0
 29 30  2  0
  7 31  1  0
 31 32  2  0
 32  4  1  0
 29  9  1  0
 17 12  1  0
 27 21  1  0
M  END
>  <zinc_id>  (1) 
ZINC000001929951

>  <smiles>  (1) 
CCOc1ccc(NC2=C(Sc3ccccc3)C(=O)N(c3cccc(C)c3C)C2=O)cc1

$$$$
