
     RDKit          3D

 33 36  0  0  0  0  0  0  0  0999 V2000
   -1.9929    1.7550    1.9011 C   0  0  0  0  0  0  0  0  0  0  0  0
   -2.0054    1.7233    0.3982 C   0  0  0  0  0  0  0  0  0  0  0  0
   -2.5231    0.3996   -0.1044 C   0  0  0  0  0  0  0  0  0  0  0  0
   -3.8500    0.0721   -0.1330 C   0  0  0  0  0  0  0  0  0  0  0  0
   -4.8447    1.0276    0.3069 C   0  0  0  0  0  0  0  0  0  0  0  0
   -4.7915    1.7695    1.4535 C   0  0  0  0  0  0  0  0  0  0  0  0
   -5.7517    2.6701    1.8440 C   0  0  0  0  0  0  0  0  0  0  0  0
   -6.8518    2.8302    1.0052 C   0  0  0  0  0  0  0  0  0  0  0  0
   -6.9503    2.1098   -0.1540 C   0  0  0  0  0  0  0  0  0  0  0  0
   -5.9699    1.2251   -0.5012 C   0  0  0  0  0  0  0  0  0  0  0  0
   -4.2819   -1.1159   -0.5753 N   0  0  0  0  0  0  0  0  0  0  0  0
   -3.4249   -2.0438   -1.0135 C   0  0  0  0  0  0  0  0  0  0  0  0
   -3.8444   -3.2729   -1.4733 C   0  0  0  0  0  0  0  0  0  0  0  0
   -2.9504   -4.2192   -1.9218 C   0  0  0  0  0  0  0  0  0  0  0  0
   -1.6070   -3.9170   -1.9050 C   0  0  0  0  0  0  0  0  0  0  0  0
   -1.1805   -2.6919   -1.4473 C   0  0  0  0  0  0  0  0  0  0  0  0
   -2.0631   -1.7445   -0.9993 C   0  0  0  0  0  0  0  0  0  0  0  0
   -1.5967   -0.5368   -0.5515 C   0  0  0  0  0  0  0  0  0  0  0  0
   -0.2009   -0.1961   -0.5236 C   0  0  0  0  0  0  0  0  0  0  0  0
    0.6237   -1.0651   -0.9348 O   0  0  0  0  0  0  0  0  0  0  0  0
    0.3149    1.0370   -0.0707 N   0  0  0  0  0  0  0  0  0  0  0  0
    1.7491    1.2549   -0.0949 C   0  0  0  0  0  0  0  0  0  0  0  0
    2.3919    0.1932    0.7874 C   0  0  0  0  0  0  0  0  0  0  0  0
    3.8690    0.3434    0.8171 C   0  0  0  0  0  0  0  0  0  0  0  0
    4.5007    1.1270    1.7592 C   0  0  0  0  0  0  0  0  0  0  0  0
    5.8724    1.2590    1.7763 C   0  0  0  0  0  0  0  0  0  0  0  0
    6.6740    0.6167    0.8568 C   0  0  0  0  0  0  0  0  0  0  0  0
    8.0683    0.7512    0.8749 O   0  0  0  0  0  0  0  0  0  0  0  0
    8.6375    1.5627    1.8595 C   0  0  0  0  0  0  0  0  0  0  0  0
    6.0438   -0.1724   -0.0925 C   0  0  0  0  0  0  0  0  0  0  0  0
    6.8626   -0.8105   -1.0088 O   0  0  0  0  0  0  0  0  0  0  0  0
    6.4018   -1.6425   -2.0329 C   0  0  0  0  0  0  0  0  0  0  0  0
    4.6714   -0.2986   -0.1022 C   0  0  0  0  0  0  0  0  0  0  0  0
  1  2  1  0
  2  3  1  0
  3  4  2  0
  4  5  1  0
  5  6  2  0
  6  7  1  0
  7  8  2  0
  8  9  1  0
  9 10  2  0
  4 11  1  0
 11 12  2  0
 12 13  1  0
 13 14  2  0
 14 15  1  0
 15 16  2  0
 16 17  1  0
 17 18  2  0
 18 19  1  0
 19 20  2  0
 19 21  1  0
 21 22  1  0
 22 23  1  0
 23 24  1  0
 24 25  2  0
 25 26  1  0
 26 27  2  0
 27 28  1  0
 28 29  1  0
 27 30  1  0
 30 31  1  0
 31 32  1  0
 30 33  2  0
 18  3  1  0
 33 24  1  0
 10  5  1  0
 17 12  1  0
M  END
>  <zinc_id>  (1) 
ZINC000003040549

>  <smiles>  (1) 
CCc1c(-c2ccccc2)nc2ccccc2c1C(=O)NCCc1ccc(OC)c(OC)c1

$$$$
