
     RDKit          3D

 30 32  0  0  0  0  0  0  0  0999 V2000
   -6.0050   -1.0768   -3.0369 C   0  0  0  0  0  0  0  0  0  0  0  0
   -5.0946   -0.1801   -2.4731 O   0  0  0  0  0  0  0  0  0  0  0  0
   -4.0606   -0.4624   -1.6340 C   0  0  0  0  0  0  0  0  0  0  0  0
   -3.7628   -1.7541   -1.2004 C   0  0  0  0  0  0  0  0  0  0  0  0
   -2.7152   -1.9999   -0.3511 C   0  0  0  0  0  0  0  0  0  0  0  0
   -2.4020   -3.3924    0.1050 C   0  0  0  0  0  0  0  0  0  0  0  0
   -1.8931   -0.9749    0.1264 C   0  0  0  0  0  0  0  0  0  0  0  0
   -0.8157   -1.2939    0.9901 N   0  0  0  0  0  0  0  0  0  0  0  0
    0.0080   -0.3121    1.5960 C   0  0  0  0  0  0  0  0  0  0  0  0
   -0.2242    0.8943    1.3930 O   0  0  0  0  0  0  0  0  0  0  0  0
    1.1280   -0.7820    2.4697 C   0  0  0  0  0  0  0  0  0  0  0  0
    1.0047   -0.9165    3.8280 C   0  0  0  0  0  0  0  0  0  0  0  0
    2.0217   -1.4203    4.6194 C   0  0  0  0  0  0  0  0  0  0  0  0
    3.1969   -1.8005    4.0262 C   0  0  0  0  0  0  0  0  0  0  0  0
    3.3506   -1.6768    2.6610 C   0  0  0  0  0  0  0  0  0  0  0  0
    2.3181   -1.1710    1.9048 C   0  0  0  0  0  0  0  0  0  0  0  0
    2.5151   -0.9475    0.1607 S   0  0  0  0  0  0  0  0  0  0  0  0
    3.2276    0.6802   -0.1908 C   0  0  0  0  0  0  0  0  0  0  0  0
    3.6354    1.5524    0.7582 C   0  0  0  0  0  0  0  0  0  0  0  0
    4.1567    2.7862    0.4588 C   0  0  0  0  0  0  0  0  0  0  0  0
    4.2898    3.2069   -0.8780 C   0  0  0  0  0  0  0  0  0  0  0  0
    3.8744    2.3140   -1.8360 C   0  0  0  0  0  0  0  0  0  0  0  0
    3.3530    1.0757   -1.5280 C   0  0  0  0  0  0  0  0  0  0  0  0
    2.9319    0.2008   -2.5580 C   0  0  0  0  0  0  0  0  0  0  0  0
    2.5943   -0.5360   -3.4039 N   0  0  0  0  0  0  0  0  0  0  0  0
   -2.1800    0.2953   -0.2950 C   0  0  0  0  0  0  0  0  0  0  0  0
   -3.2245    0.5587   -1.1461 C   0  0  0  0  0  0  0  0  0  0  0  0
   -3.5283    1.9131   -1.6423 C   0  0  0  0  0  0  0  0  0  0  0  0
   -2.7581    3.0111   -0.9985 C   0  0  0  0  0  0  0  0  0  0  0  0
   -4.9421    2.2084   -1.9253 C   0  0  0  0  0  0  0  0  0  0  0  0
  1  2  1  0
  2  3  1  0
  3  4  2  0
  4  5  1  0
  5  6  1  0
  5  7  2  0
  7  8  1  0
  8  9  1  0
  9 10  2  0
  9 11  1  0
 11 12  2  0
 12 13  1  0
 13 14  2  0
 14 15  1  0
 15 16  2  0
 16 17  1  0
 17 18  1  0
 18 19  2  0
 19 20  1  0
 20 21  2  0
 21 22  1  0
 22 23  2  0
 23 24  1  0
 24 25  3  0
  7 26  1  0
 26 27  2  0
 27 28  1  0
 28 29  1  0
 28 30  1  0
 27  3  1  0
 16 11  1  0
 23 18  1  0
M  END
>  <zinc_id>  (1) 
ZINC000002998347

>  <smiles>  (1) 
COc1cc(C)c(NC(=O)c2ccccc2Sc2ccccc2C#N)cc1C(C)C

$$$$
