
     RDKit          3D

 29 32  0  0  0  0  0  0  0  0999 V2000
   -8.7374   -0.2134   -1.0746 C   0  0  0  0  0  0  0  0  0  0  0  0
   -7.5149   -1.0514   -0.6184 C   0  0  0  0  0  0  0  0  0  0  0  0
   -7.2362   -2.0148   -1.7386 C   0  0  0  0  0  0  0  0  0  0  0  0
   -7.8044   -1.7243    0.6885 C   0  0  0  0  0  0  0  0  0  0  0  0
   -6.3668   -0.1187   -0.5172 C   0  0  0  0  0  0  0  0  0  0  0  0
   -6.3632    0.9888   -1.3709 C   0  0  0  0  0  0  0  0  0  0  0  0
   -5.3224    1.8513   -1.2606 C   0  0  0  0  0  0  0  0  0  0  0  0
   -4.3087    1.6689   -0.3629 C   0  0  0  0  0  0  0  0  0  0  0  0
   -3.2638    2.5293   -0.2124 O   0  0  0  0  0  0  0  0  0  0  0  0
   -2.1975    2.5267    0.5606 C   0  0  0  0  0  0  0  0  0  0  0  0
   -1.1007    1.5672    0.4802 C   0  0  0  0  0  0  0  0  0  0  0  0
   -0.4915    1.0098    1.6053 C   0  0  0  0  0  0  0  0  0  0  0  0
    0.6228    0.1941    1.5039 C   0  0  0  0  0  0  0  0  0  0  0  0
    1.2047   -0.1238    0.2881 C   0  0  0  0  0  0  0  0  0  0  0  0
    2.4361   -0.8973    0.1642 C   0  0  0  0  0  0  0  0  0  0  0  0
    2.3740   -2.1462    0.1214 O   0  0  0  0  0  0  0  0  0  0  0  0
    3.6920   -0.3402    0.0978 N   0  0  0  0  0  0  0  0  0  0  0  0
    4.8876   -0.2561    0.0112 N   0  0  0  0  0  0  0  0  0  0  0  0
    6.2446   -0.2744   -0.0824 C   0  0  0  0  0  0  0  0  0  0  0  0
    7.0976   -1.2786   -0.0708 C   0  0  0  0  0  0  0  0  0  0  0  0
    8.0896   -2.3476   -0.0655 C   0  0  0  0  0  0  0  0  0  0  0  0
    9.2736   -1.8491    0.3395 C   0  0  0  0  0  0  0  0  0  0  0  0
    9.1009   -0.3612    0.6204 C   0  0  0  0  0  0  0  0  0  0  0  0
    8.1094   -0.1589   -0.6980 C   0  0  2  0  0  0  0  0  0  0  0  0
    7.1721    0.9455   -0.0606 C   0  0  0  0  0  0  0  0  0  0  0  0
    0.6015    0.4165   -0.8304 C   0  0  0  0  0  0  0  0  0  0  0  0
   -0.5098    1.2313   -0.7348 C   0  0  0  0  0  0  0  0  0  0  0  0
   -4.3191    0.5422    0.4991 C   0  0  0  0  0  0  0  0  0  0  0  0
   -5.3701   -0.3154    0.3773 C   0  0  0  0  0  0  0  0  0  0  0  0
  1  2  1  0
  2  3  1  0
  2  4  1  0
  2  5  1  0
  5  6  2  0
  6  7  1  0
  7  8  2  0
  8  9  1  0
  9 10  1  0
 10 11  1  0
 11 12  2  0
 12 13  1  0
 13 14  2  0
 14 15  1  0
 15 16  2  0
 15 17  1  0
 17 18  1  0
 18 19  1  0
 19 20  2  0
 20 21  1  0
 21 22  2  0
 22 23  1  0
 24 23  1  1
 24 25  1  0
 14 26  1  0
 26 27  2  0
  8 28  1  0
 28 29  2  0
 29  5  1  0
 27 11  1  0
 25 19  1  0
 24 20  1  0
M  END
>  <zinc_id>  (1) 
ZINC000003370987

>  <smiles>  (1) 
CC(C)(C)c1ccc(OCc2ccc(C(=O)NNC3=C4C=CC[C@@H]4C3)cc2)cc1

$$$$
