
     RDKit          3D

 30 33  0  0  0  0  0  0  0  0999 V2000
    6.9931    0.1276   -1.3429 C   0  0  0  0  0  0  0  0  0  0  0  0
    5.7432    0.8353   -0.9645 C   0  0  0  0  0  0  0  0  0  0  0  0
    5.0337    0.3092    0.1032 C   0  0  0  0  0  0  0  0  0  0  0  0
    3.8543    0.9109    0.5203 C   0  0  0  0  0  0  0  0  0  0  0  0
    3.3574    2.0330   -0.1031 C   0  0  0  0  0  0  0  0  0  0  0  0
    2.0991    2.6708    0.3463 C   0  0  0  0  0  0  0  0  0  0  0  0
    0.6515    2.0125   -0.4824 S   0  0  0  0  0  0  0  0  0  0  0  0
    0.3523    0.3042   -0.0610 C   0  0  0  0  0  0  0  0  0  0  0  0
    0.8570   -0.7549   -0.7186 N   0  0  0  0  0  0  0  0  0  0  0  0
    0.4442   -1.8989   -0.1534 C   0  0  0  0  0  0  0  0  0  0  0  0
   -0.3619   -1.5340    0.9148 C   0  0  0  0  0  0  0  0  0  0  0  0
   -0.9304   -2.5339    1.6857 C   0  0  0  0  0  0  0  0  0  0  0  0
   -1.6585   -2.1885    2.6506 O   0  0  0  0  0  0  0  0  0  0  0  0
   -0.6831   -3.8225    1.3743 N   0  0  0  0  0  0  0  0  0  0  0  0
    0.1002   -4.1697    0.3363 C   0  0  0  0  0  0  0  0  0  0  0  0
    0.3026   -5.3654    0.0832 O   0  0  0  0  0  0  0  0  0  0  0  0
    0.6523   -3.1975   -0.4124 N   0  0  0  0  0  0  0  0  0  0  0  0
    1.5093   -3.5451   -1.5488 C   0  0  0  0  0  0  0  0  0  0  0  0
   -0.3980   -0.1767    0.9444 N   0  0  0  0  0  0  0  0  0  0  0  0
   -1.1404    0.5997    1.9227 C   0  0  0  0  0  0  0  0  0  0  0  0
   -2.5314    0.8447    1.3868 C   0  0  0  0  0  0  0  0  0  0  0  0
   -2.4954    1.6085    0.0784 C   0  0  0  0  0  0  0  0  0  0  0  0
   -3.8895    1.8256   -0.4118 C   0  0  0  0  0  0  0  0  0  0  0  0
   -4.5327    0.9403   -1.2326 C   0  0  0  0  0  0  0  0  0  0  0  0
   -5.8162    1.1911   -1.6539 C   0  0  0  0  0  0  0  0  0  0  0  0
   -6.5014    2.3264   -1.2750 C   0  0  0  0  0  0  0  0  0  0  0  0
   -5.8149    3.1913   -0.4472 C   0  0  0  0  0  0  0  0  0  0  0  0
   -4.5314    2.9661   -0.0104 C   0  0  0  0  0  0  0  0  0  0  0  0
    4.0733    2.5454   -1.1633 C   0  0  0  0  0  0  0  0  0  0  0  0
    5.2622    1.9443   -1.5888 C   0  0  0  0  0  0  0  0  0  0  0  0
  1  2  1  0
  2  3  2  0
  3  4  1  0
  4  5  2  0
  5  6  1  0
  6  7  1  0
  7  8  1  0
  8  9  2  0
  9 10  1  0
 10 11  2  0
 11 12  1  0
 12 13  2  0
 12 14  1  0
 14 15  1  0
 15 16  2  0
 15 17  1  0
 17 18  1  0
 11 19  1  0
 19 20  1  0
 20 21  1  0
 21 22  1  0
 22 23  1  0
 23 24  2  0
 24 25  1  0
 25 26  2  0
 26 27  1  0
 27 28  2  0
  5 29  1  0
 29 30  2  0
 30  2  1  0
 19  8  1  0
 28 23  1  0
 17 10  1  0
M  END
>  <zinc_id>  (1) 
ZINC000000637414

>  <smiles>  (1) 
Cc1ccc(CSc2nc3c(c(=O)[nH]c(=O)n3C)n2CCCc2ccccc2)cc1

$$$$
