
     RDKit          3D

 31 34  0  0  0  0  0  0  0  0999 V2000
   -5.2236   -0.6900   -1.5854 C   0  0  0  0  0  0  0  0  0  0  0  0
   -4.1712   -1.3784   -0.7826 C   0  0  0  0  0  0  0  0  0  0  0  0
   -3.5949   -0.6369    0.2550 N   0  0  0  0  0  0  0  0  0  0  0  0
   -2.7778    0.4677   -0.0214 C   0  0  0  0  0  0  0  0  0  0  0  0
   -1.4710   -0.0290   -0.6636 C   0  0  0  0  0  0  0  0  0  0  0  0
   -1.8293   -0.7530   -1.9207 C   0  0  0  0  0  0  0  0  0  0  0  0
   -0.6975   -1.3188   -2.6773 C   0  0  0  0  0  0  0  0  0  0  0  0
    0.3411   -0.4347   -3.2069 C   0  0  0  0  0  0  0  0  0  0  0  0
    1.0630    0.3872   -2.2705 N   0  0  0  0  0  0  0  0  0  0  0  0
    0.7010    1.7012   -1.8941 C   0  0  0  0  0  0  0  0  0  0  0  0
   -0.2663    2.4379   -2.2869 O   0  0  0  0  0  0  0  0  0  0  0  0
    1.6734    2.1642   -0.8949 C   0  0  0  0  0  0  0  0  0  0  0  0
    2.6329    1.0505   -0.7426 C   0  0  0  0  0  0  0  0  0  0  0  0
    3.7761    0.9452    0.0677 C   0  0  0  0  0  0  0  0  0  0  0  0
    4.5535   -0.1879    0.0862 C   0  0  0  0  0  0  0  0  0  0  0  0
    5.7374   -0.3092    0.9318 C   0  0  0  0  0  0  0  0  0  0  0  0
    6.8477   -1.0570    0.5839 C   0  0  0  0  0  0  0  0  0  0  0  0
    7.9652   -1.1700    1.3990 C   0  0  0  0  0  0  0  0  0  0  0  0
    7.9989   -0.5198    2.6137 C   0  0  0  0  0  0  0  0  0  0  0  0
    6.9002    0.2329    2.9800 C   0  0  0  0  0  0  0  0  0  0  0  0
    5.7991    0.3337    2.1580 C   0  0  0  0  0  0  0  0  0  0  0  0
    4.1476   -1.2236   -0.7407 C   0  0  0  0  0  0  0  0  0  0  0  0
    3.0284   -1.1291   -1.5380 C   0  0  0  0  0  0  0  0  0  0  0  0
    2.2478    0.0145   -1.5533 C   0  0  0  0  0  0  0  0  0  0  0  0
   -4.1057   -0.7627    1.5416 C   0  0  0  0  0  0  0  0  0  0  0  0
   -5.5494   -0.3740    1.6221 C   0  0  0  0  0  0  0  0  0  0  0  0
   -6.4857   -1.2968    1.2488 C   0  0  0  0  0  0  0  0  0  0  0  0
   -7.8215   -0.9881    1.3178 C   0  0  0  0  0  0  0  0  0  0  0  0
   -8.2151    0.2555    1.7647 C   0  0  0  0  0  0  0  0  0  0  0  0
   -7.2582    1.1894    2.1425 C   0  0  0  0  0  0  0  0  0  0  0  0
   -5.9460    0.8618    2.0659 C   0  0  0  0  0  0  0  0  0  0  0  0
  1  2  1  0
  2  3  1  0
  3  4  1  0
  4  5  1  0
  5  6  1  0
  6  7  1  0
  7  8  1  0
  8  9  1  0
  9 10  1  0
 10 11  2  0
 10 12  1  0
 12 13  1  0
 13 14  2  0
 14 15  1  0
 15 16  1  0
 16 17  2  0
 17 18  1  0
 18 19  2  0
 19 20  1  0
 20 21  2  0
 15 22  2  0
 22 23  1  0
 23 24  2  0
  3 25  1  0
 25 26  1  0
 26 27  2  0
 27 28  1  0
 28 29  2  0
 29 30  1  0
 30 31  2  0
 24  9  1  0
 31 26  1  0
 24 13  1  0
 21 16  1  0
M  END
>  <zinc_id>  (1) 
ZINC000001540485

>  <smiles>  (1) 
CCN(CCCCCN1C(=O)Cc2cc(-c3ccccc3)ccc21)Cc1ccccc1

$$$$
