
     RDKit          3D

 30 32  0  0  0  0  0  0  0  0999 V2000
   -6.1083   -3.0058   -0.9660 C   0  0  0  0  0  0  0  0  0  0  0  0
   -5.0431   -2.0463   -0.4155 C   0  0  0  0  0  0  0  0  0  0  0  0
   -5.7190   -0.8953    0.2240 C   0  0  0  0  0  0  0  0  0  0  0  0
   -6.9964   -1.0108    0.7598 C   0  0  0  0  0  0  0  0  0  0  0  0
   -7.6414    0.0575    1.3536 C   0  0  0  0  0  0  0  0  0  0  0  0
   -6.9443    1.2759    1.3902 C   0  0  0  0  0  0  0  0  0  0  0  0
   -5.6673    1.3771    0.8520 C   0  0  0  0  0  0  0  0  0  0  0  0
   -4.9054    2.6668    0.9055 C   0  0  0  0  0  0  0  0  0  0  0  0
   -3.8624    2.6486    2.0061 C   0  0  0  0  0  0  0  0  0  0  0  0
   -5.0207    0.3206    0.2624 C   0  0  0  0  0  0  0  0  0  0  0  0
   -3.7838    0.3822   -0.3179 N   0  0  0  0  0  0  0  0  0  0  0  0
   -2.4749    0.2653    0.0580 C   0  0  0  0  0  0  0  0  0  0  0  0
   -2.1267    0.0610    1.1726 O   0  0  0  0  0  0  0  0  0  0  0  0
   -1.4347    0.4311   -1.1700 C   0  0  1  0  0  0  0  0  0  0  0  0
   -1.3529    2.1145   -1.0744 C   0  0  0  0  0  0  0  0  0  0  0  0
   -0.1349    0.2538   -0.3283 O   0  0  0  0  0  0  0  0  0  0  0  0
    0.9150    0.2563   -1.2560 C   0  0  0  0  0  0  0  0  0  0  0  0
    0.7228    0.3805   -2.5069 O   0  0  0  0  0  0  0  0  0  0  0  0
    2.2855    0.1086   -0.8163 C   0  0  0  0  0  0  0  0  0  0  0  0
    2.6301    0.0792    0.5051 C   0  0  0  0  0  0  0  0  0  0  0  0
    3.9636   -0.1162    0.8734 C   0  0  0  0  0  0  0  0  0  0  0  0
    4.9431   -0.2829   -0.0599 C   0  0  0  0  0  0  0  0  0  0  0  0
    6.3429   -0.5144    0.3421 C   0  0  0  0  0  0  0  0  0  0  0  0
    6.9420   -0.0271    1.4323 C   0  0  0  0  0  0  0  0  0  0  0  0
    8.2667   -0.3420    1.6929 C   0  0  0  0  0  0  0  0  0  0  0  0
    8.9730   -1.1373    0.8602 C   0  0  0  0  0  0  0  0  0  0  0  0
    8.3485   -1.6595   -0.3055 C   0  0  0  0  0  0  0  0  0  0  0  0
    7.0354   -1.3404   -0.5522 C   0  0  0  0  0  0  0  0  0  0  0  0
    4.5665   -0.2456   -1.3809 C   0  0  0  0  0  0  0  0  0  0  0  0
    3.2810   -0.0555   -1.8017 C   0  0  0  0  0  0  0  0  0  0  0  0
  1  2  1  0
  2  3  1  0
  3  4  2  0
  4  5  1  0
  5  6  2  0
  6  7  1  0
  7  8  1  0
  8  9  1  0
  7 10  2  0
 10 11  1  0
 11 12  1  0
 12 13  2  0
 12 14  1  0
 14 15  1  1
 14 16  1  0
 16 17  1  0
 17 18  2  0
 17 19  1  0
 19 20  2  0
 20 21  1  0
 21 22  2  0
 22 23  1  0
 23 24  2  0
 24 25  1  0
 25 26  2  0
 26 27  1  0
 27 28  2  0
 22 29  1  0
 29 30  2  0
 10  3  1  0
 30 19  1  0
 28 23  1  0
M  END
>  <zinc_id>  (1) 
ZINC000001984572

>  <smiles>  (1) 
CCc1cccc(CC)c1NC(=O)[C@@H](C)OC(=O)c1ccc(-c2ccccc2)cc1

$$$$
