
     RDKit          3D

 34 38  0  0  0  0  0  0  0  0999 V2000
   -0.4716    1.3523    2.6007 C   0  0  0  0  0  0  0  0  0  0  0  0
   -0.6951    0.1357    1.8150 C   0  0  0  0  0  0  0  0  0  0  0  0
    0.2842   -0.5945    1.1816 C   0  0  0  0  0  0  0  0  0  0  0  0
    1.7287   -0.3470    1.1438 C   0  0  0  0  0  0  0  0  0  0  0  0
    2.2050    0.6401    1.7551 O   0  0  0  0  0  0  0  0  0  0  0  0
    2.5553   -1.2384    0.4113 N   0  0  0  0  0  0  0  0  0  0  0  0
    4.0925   -0.9067    0.4238 C   0  0  1  0  0  0  0  0  0  0  0  0
    4.5340   -2.4842    0.6289 C   0  0  0  0  0  0  0  0  0  0  0  0
    4.2242   -1.0060   -1.2192 C   0  0  0  0  0  0  0  0  0  0  0  0
    5.6971   -0.7103   -1.4284 C   0  0  0  0  0  0  0  0  0  0  0  0
    6.0705    0.6159   -0.9174 C   0  0  0  0  0  0  0  0  0  0  0  0
    6.4744    0.7401    0.3789 C   0  0  0  0  0  0  0  0  0  0  0  0
    6.8311    1.9590    0.8901 C   0  0  0  0  0  0  0  0  0  0  0  0
    6.7880    3.0805    0.1041 C   0  0  0  0  0  0  0  0  0  0  0  0
    6.3779    2.9496   -1.2086 C   0  0  0  0  0  0  0  0  0  0  0  0
    6.0236    1.7350   -1.7148 C   0  0  0  0  0  0  0  0  0  0  0  0
   -0.3704   -1.6667    0.5579 C   0  0  0  0  0  0  0  0  0  0  0  0
    0.1160   -2.7047   -0.2106 C   0  0  0  0  0  0  0  0  0  0  0  0
   -0.7383   -3.6497   -0.7193 C   0  0  0  0  0  0  0  0  0  0  0  0
   -0.2688   -4.7203   -1.5075 O   0  0  0  0  0  0  0  0  0  0  0  0
   -2.0802   -3.5220   -0.4360 C   0  0  0  0  0  0  0  0  0  0  0  0
   -2.5520   -2.4827    0.3311 C   0  0  0  0  0  0  0  0  0  0  0  0
   -1.6983   -1.5113    0.8575 C   0  0  0  0  0  0  0  0  0  0  0  0
   -1.9068   -0.4153    1.6235 N   0  0  0  0  0  0  0  0  0  0  0  0
   -3.2022   -0.0520    2.0654 C   0  0  0  0  0  0  0  0  0  0  0  0
   -4.0279    0.7999    1.2746 C   0  0  0  0  0  0  0  0  0  0  0  0
   -3.9759    2.1569    1.3739 C   0  0  0  0  0  0  0  0  0  0  0  0
   -4.8052    2.9458    0.5856 C   0  0  0  0  0  0  0  0  0  0  0  0
   -5.6935    2.3669   -0.3090 C   0  0  0  0  0  0  0  0  0  0  0  0
   -5.7530    0.9943   -0.4164 C   0  0  0  0  0  0  0  0  0  0  0  0
   -4.9129    0.2628    0.3844 C   0  0  0  0  0  0  0  0  0  0  0  0
   -6.7128    0.6223   -1.3737 O   0  0  0  0  0  0  0  0  0  0  0  0
   -7.5045    1.7921   -1.6183 C   0  0  0  0  0  0  0  0  0  0  0  0
   -6.6333    2.8626   -1.2158 O   0  0  0  0  0  0  0  0  0  0  0  0
  1  2  1  0
  2  3  2  0
  3  4  1  0
  4  5  2  0
  4  6  1  0
  6  7  1  0
  7  8  1  1
  7  9  1  0
  9 10  1  0
 10 11  1  0
 11 12  2  0
 12 13  1  0
 13 14  2  0
 14 15  1  0
 15 16  2  0
  3 17  1  0
 17 18  2  0
 18 19  1  0
 19 20  1  0
 19 21  2  0
 21 22  1  0
 22 23  2  0
 23 24  1  0
 24 25  1  0
 25 26  1  0
 26 27  2  0
 27 28  1  0
 28 29  2  0
 29 30  1  0
 30 31  2  0
 30 32  1  0
 32 33  1  0
 33 34  1  0
 24  2  1  0
 31 26  1  0
 16 11  1  0
 23 17  1  0
 34 29  1  0
M  END
>  <zinc_id>  (1) 
ZINC000000763754

>  <smiles>  (1) 
Cc1c(C(=O)N[C@@H](C)CCc2ccccc2)c2cc(O)ccc2n1Cc1ccc2c(c1)OCO2

$$$$
