
     RDKit          3D

 30 34  0  0  0  0  0  0  0  0999 V2000
   -4.8168   -3.5791    1.2884 C   0  0  0  0  0  0  0  0  0  0  0  0
   -4.8569   -3.0226   -0.1174 C   0  0  0  0  0  0  0  0  0  0  0  0
   -4.6394   -1.5940   -0.1164 N   0  0  0  0  0  0  0  0  0  0  0  0
   -5.5935   -0.6431   -0.0217 C   0  0  0  0  0  0  0  0  0  0  0  0
   -6.9734   -0.6778    0.0980 C   0  0  0  0  0  0  0  0  0  0  0  0
   -7.7168    0.4984    0.1770 C   0  0  0  0  0  0  0  0  0  0  0  0
   -7.0538    1.6936    0.1339 C   0  0  0  0  0  0  0  0  0  0  0  0
   -5.6711    1.7589    0.0144 C   0  0  0  0  0  0  0  0  0  0  0  0
   -4.9516    0.5763   -0.0627 C   0  0  0  0  0  0  0  0  0  0  0  0
   -3.5948    0.3215   -0.1839 C   0  0  0  0  0  0  0  0  0  0  0  0
   -2.4677    1.1029   -0.2731 C   0  0  0  0  0  0  0  0  0  0  0  0
   -1.1793    0.6135   -0.3916 C   0  0  0  0  0  0  0  0  0  0  0  0
   -0.0509    1.4842   -0.4858 N   0  0  0  0  0  0  0  0  0  0  0  0
    1.2358    0.8927   -0.5621 C   0  0  0  0  0  0  0  0  0  0  0  0
    1.3043   -0.3584   -0.5392 O   0  0  0  0  0  0  0  0  0  0  0  0
    2.4783    1.7471   -0.6668 C   0  0  0  0  0  0  0  0  0  0  0  0
    3.6553    0.9033   -0.7229 N   0  0  0  0  0  0  0  0  0  0  0  0
    3.7218    0.2537    0.7477 C   0  0  2  0  0  0  0  0  0  0  0  0
    3.9305    1.7205    1.4636 C   0  0  0  0  0  0  0  0  0  0  0  0
    4.9342    2.4872    0.7107 C   0  0  0  0  0  0  0  0  0  0  0  0
    6.2718    1.9383    1.1592 C   0  0  0  0  0  0  0  0  0  0  0  0
    6.2915    0.5344    0.7705 C   0  0  0  0  0  0  0  0  0  0  0  0
    7.5378   -0.0257    0.5899 C   0  0  0  0  0  0  0  0  0  0  0  0
    7.6956   -1.3553    0.2226 C   0  0  0  0  0  0  0  0  0  0  0  0
    6.5710   -2.1287    0.0357 C   0  0  0  0  0  0  0  0  0  0  0  0
    5.3150   -1.5346    0.2257 C   0  0  0  0  0  0  0  0  0  0  0  0
    5.2211   -0.2122    0.5896 C   0  0  0  0  0  0  0  0  0  0  0  0
   -1.0401   -0.7638   -0.4201 C   0  0  0  0  0  0  0  0  0  0  0  0
   -2.1448   -1.5863   -0.3333 C   0  0  0  0  0  0  0  0  0  0  0  0
   -3.4132   -1.0450   -0.2163 C   0  0  0  0  0  0  0  0  0  0  0  0
  1  2  1  0
  2  3  1  0
  3  4  1  0
  4  5  2  0
  5  6  1  0
  6  7  2  0
  7  8  1  0
  8  9  2  0
  9 10  1  0
 10 11  2  0
 11 12  1  0
 12 13  1  0
 13 14  1  0
 14 15  2  0
 14 16  1  0
 16 17  1  0
 18 17  1  6
 18 19  1  0
 19 20  1  0
 20 21  1  0
 21 22  1  0
 22 23  2  0
 23 24  1  0
 24 25  2  0
 25 26  1  0
 26 27  2  0
 12 28  2  0
 28 29  1  0
 29 30  2  0
 30  3  1  0
  9  4  1  0
 30 10  1  0
 27 18  1  0
 27 22  1  0
M  END
>  <zinc_id>  (1) 
ZINC000003288681

>  <smiles>  (1) 
CCn1c2ccccc2c2cc(NC(=O)CN[C@@H]3CCCc4ccccc43)ccc21

$$$$
