
     RDKit          3D

 31 34  0  0  0  0  0  0  0  0999 V2000
    8.1697    2.7433    0.4434 C   0  0  0  0  0  0  0  0  0  0  0  0
    6.7346    2.3156    0.3492 C   0  0  0  0  0  0  0  0  0  0  0  0
    6.6632    0.9321    0.0578 O   0  0  0  0  0  0  0  0  0  0  0  0
    5.4173    0.3298   -0.0726 C   0  0  0  0  0  0  0  0  0  0  0  0
    4.2579    1.0554    0.0767 C   0  0  0  0  0  0  0  0  0  0  0  0
    3.0170    0.4595   -0.0524 C   0  0  0  0  0  0  0  0  0  0  0  0
    2.8752   -0.8846   -0.3357 C   0  0  0  0  0  0  0  0  0  0  0  0
    1.5653   -1.4357   -0.4555 N   0  0  0  0  0  0  0  0  0  0  0  0
    0.3842   -0.7024   -0.3042 C   0  0  0  0  0  0  0  0  0  0  0  0
    0.5466    0.5133   -0.0475 O   0  0  0  0  0  0  0  0  0  0  0  0
   -0.9773   -1.3028   -0.4346 C   0  0  0  0  0  0  0  0  0  0  0  0
   -2.1006   -0.5305   -0.2749 C   0  0  0  0  0  0  0  0  0  0  0  0
   -2.1543    0.8687    0.0201 N   0  0  0  0  0  0  0  0  0  0  0  0
   -3.3791    1.5621    0.1629 C   0  0  0  0  0  0  0  0  0  0  0  0
   -4.4265    0.8910    0.0183 O   0  0  0  0  0  0  0  0  0  0  0  0
   -3.5035    2.9780    0.4613 C   0  0  0  0  0  0  0  0  0  0  0  0
   -2.3741    3.7379    0.6245 C   0  0  0  0  0  0  0  0  0  0  0  0
   -2.4547    5.0852    0.9085 C   0  0  0  0  0  0  0  0  0  0  0  0
   -3.6831    5.6751    1.0297 C   0  0  0  0  0  0  0  0  0  0  0  0
   -4.8301    4.9533    0.8745 C   0  0  0  0  0  0  0  0  0  0  0  0
   -4.7200    3.6133    0.5921 C   0  0  0  0  0  0  0  0  0  0  0  0
   -3.3877   -1.6418   -0.5130 S   0  0  0  0  0  0  0  0  0  0  0  0
   -2.4552   -3.0658   -0.8107 C   0  0  0  0  0  0  0  0  0  0  0  0
   -1.1933   -2.5928   -0.7073 C   0  0  0  0  0  0  0  0  0  0  0  0
   -0.2003   -3.6894   -0.9326 C   0  0  0  0  0  0  0  0  0  0  0  0
   -0.3934   -4.9034   -0.3343 C   0  0  0  0  0  0  0  0  0  0  0  0
   -1.8936   -5.4134   -0.0515 C   0  0  1  0  0  0  0  0  0  0  0  0
   -2.1154   -4.4514    1.2402 C   0  0  0  0  0  0  0  0  0  0  0  0
   -2.6802   -4.4829   -1.1100 C   0  0  0  0  0  0  0  0  0  0  0  0
    4.0238   -1.6037   -0.4836 C   0  0  0  0  0  0  0  0  0  0  0  0
    5.2676   -1.0131   -0.3556 C   0  0  0  0  0  0  0  0  0  0  0  0
  1  2  1  0
  2  3  1  0
  3  4  1  0
  4  5  2  0
  5  6  1  0
  6  7  2  0
  7  8  1  0
  8  9  1  0
  9 10  2  0
  9 11  1  0
 11 12  2  0
 12 13  1  0
 13 14  1  0
 14 15  2  0
 14 16  1  0
 16 17  2  0
 17 18  1  0
 18 19  2  0
 19 20  1  0
 20 21  2  0
 12 22  1  0
 22 23  1  0
 23 24  2  0
 24 25  1  0
 25 26  1  0
 26 27  1  0
 27 28  1  1
 27 29  1  0
  7 30  1  0
 30 31  2  0
 31  4  1  0
 24 11  1  0
 21 16  1  0
 29 23  1  0
M  END
>  <zinc_id>  (1) 
ZINC000000659388

>  <smiles>  (1) 
CCOc1ccc(NC(=O)c2c(NC(=O)c3ccccc3)sc3c2CC[C@@H](C)C3)cc1

$$$$
