
     RDKit          3D

 31 34  0  0  0  0  0  0  0  0999 V2000
    7.9277   -0.7109    0.8429 C   0  0  0  0  0  0  0  0  0  0  0  0
    7.2637   -1.2230   -0.4099 C   0  0  0  0  0  0  0  0  0  0  0  0
    5.7702   -1.0579   -0.3403 C   0  0  0  0  0  0  0  0  0  0  0  0
    5.1586    0.0924   -0.7919 C   0  0  0  0  0  0  0  0  0  0  0  0
    3.7894    0.2156   -0.7182 C   0  0  0  0  0  0  0  0  0  0  0  0
    2.9748   -0.7692   -0.2061 C   0  0  0  0  0  0  0  0  0  0  0  0
    1.5606   -0.5994   -0.1630 N   0  0  0  0  0  0  0  0  0  0  0  0
    0.5715   -1.5737   -0.2177 C   0  0  0  0  0  0  0  0  0  0  0  0
    0.7502   -2.8243   -0.3094 O   0  0  0  0  0  0  0  0  0  0  0  0
   -0.7626   -0.9138   -0.1520 C   0  0  0  0  0  0  0  0  0  0  0  0
   -1.9223   -1.6528   -0.2025 N   0  0  0  0  0  0  0  0  0  0  0  0
   -3.2487   -1.5299    0.0632 C   0  0  0  0  0  0  0  0  0  0  0  0
   -3.8346   -0.4015    0.5601 C   0  0  0  0  0  0  0  0  0  0  0  0
   -5.2058   -0.3409    0.8041 C   0  0  0  0  0  0  0  0  0  0  0  0
   -6.0263   -1.4194    0.5527 C   0  0  0  0  0  0  0  0  0  0  0  0
   -5.4472   -2.5495    0.0566 C   0  0  0  0  0  0  0  0  0  0  0  0
   -4.1061   -2.6186   -0.1857 C   0  0  0  0  0  0  0  0  0  0  0  0
   -3.4811   -3.8498   -0.7177 C   0  0  0  0  0  0  0  0  0  0  0  0
   -2.7492   -4.6059    0.3872 C   0  0  0  0  0  0  0  0  0  0  0  0
   -0.5501    0.4059   -0.0595 C   0  0  0  0  0  0  0  0  0  0  0  0
   -1.8695    1.5614    0.0414 S   0  0  0  0  0  0  0  0  0  0  0  0
   -1.4112    3.2513    0.1083 C   0  0  0  0  0  0  0  0  0  0  0  0
   -2.4863    4.1613    0.2207 C   0  0  0  0  0  0  0  0  0  0  0  0
   -2.3165    5.5013    0.2813 C   0  0  0  0  0  0  0  0  0  0  0  0
   -1.0557    6.0411    0.2335 C   0  0  0  0  0  0  0  0  0  0  0  0
    0.0166    5.1641    0.1235 C   0  0  0  0  0  0  0  0  0  0  0  0
   -0.1791    3.8061    0.0642 C   0  0  0  0  0  0  0  0  0  0  0  0
    0.8713    0.6434   -0.0633 C   0  0  0  0  0  0  0  0  0  0  0  0
    1.4542    1.7653    0.0095 O   0  0  0  0  0  0  0  0  0  0  0  0
    3.5863   -1.9213    0.2464 C   0  0  0  0  0  0  0  0  0  0  0  0
    4.9572   -2.0474    0.1736 C   0  0  0  0  0  0  0  0  0  0  0  0
  1  2  1  0
  2  3  1  0
  3  4  2  0
  4  5  1  0
  5  6  2  0
  6  7  1  0
  7  8  1  0
  8  9  2  0
  8 10  1  0
 10 11  1  0
 11 12  1  0
 12 13  2  0
 13 14  1  0
 14 15  2  0
 15 16  1  0
 16 17  2  0
 17 18  1  0
 18 19  1  0
 10 20  2  0
 20 21  1  0
 21 22  1  0
 22 23  2  0
 23 24  1  0
 24 25  2  0
 25 26  1  0
 26 27  2  0
 20 28  1  0
 28 29  2  0
  6 30  1  0
 30 31  2  0
 31  3  1  0
 28  7  1  0
 17 12  1  0
 27 22  1  0
M  END
>  <zinc_id>  (1) 
ZINC000001931875

>  <smiles>  (1) 
CCc1ccc(N2C(=O)C(Nc3ccccc3CC)=C(Sc3ccccc3)C2=O)cc1

$$$$
