
     RDKit          3D

 30 33  0  0  0  0  0  0  0  0999 V2000
   -5.8409   -0.4751    2.2622 C   0  0  0  0  0  0  0  0  0  0  0  0
   -4.6386   -0.3056    1.5682 O   0  0  0  0  0  0  0  0  0  0  0  0
   -4.3228   -1.2087    0.5505 C   0  0  0  0  0  0  0  0  0  0  0  0
   -5.1419   -2.2490    0.2078 C   0  0  0  0  0  0  0  0  0  0  0  0
   -4.8228   -3.1296   -0.7911 C   0  0  0  0  0  0  0  0  0  0  0  0
   -3.6460   -2.9745   -1.4790 C   0  0  0  0  0  0  0  0  0  0  0  0
   -2.8272   -1.9260   -1.1284 C   0  0  0  0  0  0  0  0  0  0  0  0
   -3.1099   -1.0236   -0.1361 C   0  0  0  0  0  0  0  0  0  0  0  0
   -2.3003    0.0782    0.2227 N   0  0  0  0  0  0  0  0  0  0  0  0
   -1.0298    0.2534   -0.3943 C   0  0  0  0  0  0  0  0  0  0  0  0
   -0.7089   -0.6010   -1.2214 O   0  0  0  0  0  0  0  0  0  0  0  0
   -0.1499    1.3998   -0.0509 C   0  0  0  0  0  0  0  0  0  0  0  0
    1.1021    1.4977   -0.5082 C   0  0  0  0  0  0  0  0  0  0  0  0
    2.1072    0.7211   -1.0391 N   0  0  0  0  0  0  0  0  0  0  0  0
    2.4844   -0.5632   -1.1971 C   0  0  0  0  0  0  0  0  0  0  0  0
    1.7935   -1.4886   -0.7442 O   0  0  0  0  0  0  0  0  0  0  0  0
    3.7453   -1.0058   -1.9123 C   0  0  0  0  0  0  0  0  0  0  0  0
    4.7001   -1.5654   -0.9114 C   0  0  0  0  0  0  0  0  0  0  0  0
    4.5922   -2.8844   -0.5128 C   0  0  0  0  0  0  0  0  0  0  0  0
    5.4673   -3.4023    0.4275 C   0  0  0  0  0  0  0  0  0  0  0  0
    6.4463   -2.6464    0.9835 C   0  0  0  0  0  0  0  0  0  0  0  0
    6.5786   -1.3133    0.6005 C   0  0  0  0  0  0  0  0  0  0  0  0
    5.7018   -0.8080   -0.3383 C   0  0  0  0  0  0  0  0  0  0  0  0
    1.5276    3.1583   -0.0169 S   0  0  0  0  0  0  0  0  0  0  0  0
    0.0738    3.5742    0.7350 C   0  0  0  0  0  0  0  0  0  0  0  0
   -0.6864    2.4686    0.5966 C   0  0  0  0  0  0  0  0  0  0  0  0
   -2.0518    2.6460    1.2202 C   0  0  0  0  0  0  0  0  0  0  0  0
   -2.6942    3.8786    0.6686 C   0  0  0  0  0  0  0  0  0  0  0  0
   -1.8559    5.1124    0.8919 C   0  0  0  0  0  0  0  0  0  0  0  0
   -0.4929    4.7824    1.4462 C   0  0  0  0  0  0  0  0  0  0  0  0
  1  2  1  0
  2  3  1  0
  3  4  2  0
  4  5  1  0
  5  6  2  0
  6  7  1  0
  7  8  2  0
  8  9  1  0
  9 10  1  0
 10 11  2  0
 10 12  1  0
 12 13  2  0
 13 14  1  0
 14 15  1  0
 15 16  2  0
 15 17  1  0
 17 18  1  0
 18 19  2  0
 19 20  1  0
 20 21  2  0
 21 22  1  0
 22 23  2  0
 13 24  1  0
 24 25  1  0
 25 26  2  0
 26 27  1  0
 27 28  1  0
 28 29  1  0
 29 30  1  0
  8  3  1  0
 26 12  1  0
 23 18  1  0
 30 25  1  0
M  END
>  <zinc_id>  (1) 
ZINC000000722330

>  <smiles>  (1) 
COc1ccccc1NC(=O)c1c(NC(=O)Cc2ccccc2)sc2c1CCCC2

$$$$
