
     RDKit          3D

 31 34  0  0  0  0  0  0  0  0999 V2000
    4.8395   -0.4151   -2.4397 C   0  0  0  0  0  0  0  0  0  0  0  0
    5.4638   -0.2423   -1.1059 C   0  0  0  0  0  0  0  0  0  0  0  0
    6.8477   -0.2537   -1.0756 C   0  0  0  0  0  0  0  0  0  0  0  0
    7.5682   -0.1063    0.0698 C   0  0  0  0  0  0  0  0  0  0  0  0
    6.8346    0.0600    1.2270 C   0  0  0  0  0  0  0  0  0  0  0  0
    5.4845    0.0761    1.2303 C   0  0  0  0  0  0  0  0  0  0  0  0
    4.7573    0.2615    2.5227 C   0  0  0  0  0  0  0  0  0  0  0  0
    4.7515   -0.0792    0.0299 C   0  0  0  0  0  0  0  0  0  0  0  0
    3.3957   -0.0522    0.1827 N   0  0  0  0  0  0  0  0  0  0  0  0
    2.2828   -0.1900   -0.6067 C   0  0  0  0  0  0  0  0  0  0  0  0
    2.4356   -0.4020   -1.8261 O   0  0  0  0  0  0  0  0  0  0  0  0
    0.9156   -0.0905   -0.0377 C   0  0  0  0  0  0  0  0  0  0  0  0
    0.5230    0.2091    1.5834 S   0  0  0  0  0  0  0  0  0  0  0  0
   -1.1802    0.1902    1.4608 C   0  0  0  0  0  0  0  0  0  0  0  0
   -2.1427    0.3600    2.3990 N   0  0  0  0  0  0  0  0  0  0  0  0
   -3.4579    0.2945    2.0627 C   0  0  0  0  0  0  0  0  0  0  0  0
   -4.4615    0.4861    3.1266 C   0  0  0  0  0  0  0  0  0  0  0  0
   -4.7367    1.9808    3.2596 C   0  0  0  0  0  0  0  0  0  0  0  0
   -3.8475    0.0425    4.4330 C   0  0  0  0  0  0  0  0  0  0  0  0
   -5.7273   -0.2662    2.8170 C   0  0  0  0  0  0  0  0  0  0  0  0
   -3.7163    0.0541    0.7575 C   0  0  0  0  0  0  0  0  0  0  0  0
   -2.7467   -0.1234   -0.2282 C   0  0  0  0  0  0  0  0  0  0  0  0
   -3.2193   -0.3492   -1.5790 C   0  0  0  0  0  0  0  0  0  0  0  0
   -4.1182   -1.3384   -1.8580 C   0  0  0  0  0  0  0  0  0  0  0  0
   -4.5767   -1.5255   -3.1359 C   0  0  0  0  0  0  0  0  0  0  0  0
   -4.1441   -0.7226   -4.1698 C   0  0  0  0  0  0  0  0  0  0  0  0
   -3.2426    0.2712   -3.8945 C   0  0  0  0  0  0  0  0  0  0  0  0
   -2.7851    0.4543   -2.6059 C   0  0  0  0  0  0  0  0  0  0  0  0
   -1.3947   -0.0536    0.1328 C   0  0  0  0  0  0  0  0  0  0  0  0
   -0.2986   -0.2008   -0.6482 C   0  0  0  0  0  0  0  0  0  0  0  0
   -0.3036   -0.4819   -2.0837 N   0  0  0  0  0  0  0  0  0  0  0  0
  1  2  1  0
  2  3  2  0
  3  4  1  0
  4  5  2  0
  5  6  1  0
  6  7  1  0
  6  8  2  0
  8  9  1  0
  9 10  1  0
 10 11  2  0
 10 12  1  0
 12 13  1  0
 13 14  1  0
 14 15  2  0
 15 16  1  0
 16 17  1  0
 17 18  1  0
 17 19  1  0
 17 20  1  0
 16 21  2  0
 21 22  1  0
 22 23  1  0
 23 24  2  0
 24 25  1  0
 25 26  2  0
 26 27  1  0
 27 28  2  0
 22 29  2  0
 29 30  1  0
 30 31  1  0
  8  2  1  0
 30 12  2  0
 29 14  1  0
 28 23  1  0
M  END
>  <zinc_id>  (1) 
ZINC000004046141

>  <smiles>  (1) 
Cc1cccc(C)c1NC(=O)c1sc2nc(C(C)(C)C)cc(-c3ccccc3)c2c1N

$$$$
