
     RDKit          3D

 32 35  0  0  0  0  0  0  0  0999 V2000
    2.3777   -1.3630    2.3053 C   0  0  0  0  0  0  0  0  0  0  0  0
    2.8996   -1.2063    0.7525 C   0  0  1  0  0  0  0  0  0  0  0  0
    1.7520   -0.2224    0.3520 N   0  0  0  0  0  0  0  0  0  0  0  0
    0.6052   -0.9451   -0.0441 C   0  0  0  0  0  0  0  0  0  0  0  0
    0.6694   -2.1614   -0.0188 O   0  0  0  0  0  0  0  0  0  0  0  0
   -0.6515   -0.2274   -0.4813 C   0  0  0  0  0  0  0  0  0  0  0  0
   -1.8089   -0.8793   -0.7843 C   0  0  0  0  0  0  0  0  0  0  0  0
   -2.3757   -2.1229   -0.6208 N   0  0  0  0  0  0  0  0  0  0  0  0
   -2.3221   -3.3079   -0.0116 C   0  0  0  0  0  0  0  0  0  0  0  0
   -1.4320   -3.5348    0.8199 O   0  0  0  0  0  0  0  0  0  0  0  0
   -3.2731   -4.4440   -0.2415 C   0  0  0  0  0  0  0  0  0  0  0  0
   -3.2510   -5.6562    0.3694 C   0  0  0  0  0  0  0  0  0  0  0  0
   -4.2899   -6.3950   -0.1274 C   0  0  0  0  0  0  0  0  0  0  0  0
   -4.8871   -5.5540   -1.0320 C   0  0  0  0  0  0  0  0  0  0  0  0
   -4.2666   -4.4155   -1.0761 O   0  0  0  0  0  0  0  0  0  0  0  0
   -2.8144    0.4628   -1.4060 S   0  0  0  0  0  0  0  0  0  0  0  0
   -1.7259    1.7160   -1.2335 C   0  0  0  0  0  0  0  0  0  0  0  0
   -0.6160    1.1107   -0.7123 C   0  0  0  0  0  0  0  0  0  0  0  0
    0.4818    2.1703   -0.4916 C   0  0  0  0  0  0  0  0  0  0  0  0
   -0.1079    3.1145    0.4472 C   0  0  0  0  0  0  0  0  0  0  0  0
   -1.3732    3.9050   -0.0585 C   0  0  1  0  0  0  0  0  0  0  0  0
   -0.5655    5.1884   -0.6455 C   0  0  0  0  0  0  0  0  0  0  0  0
    0.1676    5.7761    0.5346 C   0  0  0  0  0  0  0  0  0  0  0  0
   -1.5699    6.1138   -1.2451 C   0  0  0  0  0  0  0  0  0  0  0  0
    0.3662    4.7042   -1.7213 C   0  0  0  0  0  0  0  0  0  0  0  0
   -1.6269    3.2259   -1.4765 C   0  0  0  0  0  0  0  0  0  0  0  0
    3.9795   -0.0762    1.0789 C   0  0  0  0  0  0  0  0  0  0  0  0
    3.6847    1.0015    1.7951 C   0  0  0  0  0  0  0  0  0  0  0  0
    4.6414    1.9480    2.0514 C   0  0  0  0  0  0  0  0  0  0  0  0
    5.8984    1.7549    1.5542 C   0  0  0  0  0  0  0  0  0  0  0  0
    6.2085    0.6409    0.8127 C   0  0  0  0  0  0  0  0  0  0  0  0
    5.2255   -0.3215    0.5550 C   0  0  0  0  0  0  0  0  0  0  0  0
  2  1  1  1
  2  3  1  0
  3  4  1  0
  4  5  2  0
  4  6  1  0
  6  7  2  0
  7  8  1  0
  8  9  1  0
  9 10  2  0
  9 11  1  0
 11 12  2  0
 12 13  1  0
 13 14  2  0
 14 15  1  0
  7 16  1  0
 16 17  1  0
 17 18  2  0
 18 19  1  0
 19 20  1  0
 20 21  1  0
 21 22  1  6
 22 23  1  0
 22 24  1  0
 22 25  1  0
 21 26  1  0
  2 27  1  0
 27 28  2  0
 28 29  1  0
 29 30  2  0
 30 31  1  0
 31 32  2  0
 18  6  1  0
 32 27  1  0
 15 11  1  0
 26 17  1  0
M  END
>  <zinc_id>  (1) 
ZINC000000643909

>  <smiles>  (1) 
C[C@@H](NC(=O)c1c(NC(=O)c2ccco2)sc2c1CC[C@@H](C(C)(C)C)C2)c1ccccc1

$$$$
