
     RDKit          3D

 30 33  0  0  0  0  0  0  0  0999 V2000
    7.4650    1.4951   -1.1926 C   0  0  0  0  0  0  0  0  0  0  0  0
    7.1451    1.1357    0.2577 C   0  0  0  0  0  0  0  0  0  0  0  0
    7.9831    1.9607    1.1952 C   0  0  0  0  0  0  0  0  0  0  0  0
    7.3375   -0.3253    0.4120 C   0  0  0  0  0  0  0  0  0  0  0  0
    6.4965   -1.2029   -0.3861 C   0  0  0  0  0  0  0  0  0  0  0  0
    5.1145   -1.2658   -0.2231 N   0  0  0  0  0  0  0  0  0  0  0  0
    4.1566   -0.2748   -0.3583 C   0  0  0  0  0  0  0  0  0  0  0  0
    4.4748    0.8915   -0.6704 O   0  0  0  0  0  0  0  0  0  0  0  0
    2.7375   -0.6294   -0.1245 C   0  0  0  0  0  0  0  0  0  0  0  0
    2.4025   -1.8975    0.2937 C   0  0  0  0  0  0  0  0  0  0  0  0
    1.1057   -2.2873    0.5228 C   0  0  0  0  0  0  0  0  0  0  0  0
    0.0898   -1.3814    0.3296 C   0  0  0  0  0  0  0  0  0  0  0  0
   -1.2032   -1.7064    0.5374 N   0  0  0  0  0  0  0  0  0  0  0  0
   -2.1678   -0.7902    0.3358 C   0  0  0  0  0  0  0  0  0  0  0  0
   -3.5376   -1.2352    0.5864 C   0  0  0  0  0  0  0  0  0  0  0  0
   -4.4345   -1.3059   -0.4460 C   0  0  0  0  0  0  0  0  0  0  0  0
   -5.7472   -1.7292   -0.2386 C   0  0  0  0  0  0  0  0  0  0  0  0
   -6.1932   -2.0924    1.0138 C   0  0  0  0  0  0  0  0  0  0  0  0
   -5.2951   -2.0224    2.0563 C   0  0  0  0  0  0  0  0  0  0  0  0
   -3.9917   -1.5998    1.8360 C   0  0  0  0  0  0  0  0  0  0  0  0
   -1.9024    0.4925   -0.0811 C   0  0  0  0  0  0  0  0  0  0  0  0
   -2.9531    1.4910   -0.3009 C   0  0  0  0  0  0  0  0  0  0  0  0
   -3.8705    1.3626   -1.2884 C   0  0  0  0  0  0  0  0  0  0  0  0
   -4.8354    2.3189   -1.4626 C   0  0  0  0  0  0  0  0  0  0  0  0
   -4.8928    3.4394   -0.6308 C   0  0  0  0  0  0  0  0  0  0  0  0
   -3.9629    3.5791    0.3775 C   0  0  0  0  0  0  0  0  0  0  0  0
   -3.0150    2.6097    0.5249 C   0  0  0  0  0  0  0  0  0  0  0  0
   -0.6102    0.8000   -0.2835 N   0  0  0  0  0  0  0  0  0  0  0  0
    0.3897   -0.1048   -0.0883 C   0  0  0  0  0  0  0  0  0  0  0  0
    1.7145    0.2743   -0.3163 C   0  0  0  0  0  0  0  0  0  0  0  0
  1  2  1  0
  2  3  1  0
  2  4  1  0
  4  5  1  0
  5  6  1  0
  6  7  1  0
  7  8  2  0
  7  9  1  0
  9 10  2  0
 10 11  1  0
 11 12  2  0
 12 13  1  0
 13 14  2  0
 14 15  1  0
 15 16  2  0
 16 17  1  0
 17 18  2  0
 18 19  1  0
 19 20  2  0
 14 21  1  0
 21 22  1  0
 22 23  2  0
 23 24  1  0
 24 25  2  0
 25 26  1  0
 26 27  2  0
 21 28  2  0
 28 29  1  0
 29 30  2  0
 30  9  1  0
 29 12  1  0
 20 15  1  0
 27 22  1  0
M  END
>  <zinc_id>  (1) 
ZINC000003033244

>  <smiles>  (1) 
CC(C)CCNC(=O)c1ccc2nc(-c3ccccc3)c(-c3ccccc3)nc2c1

$$$$
