
     RDKit          3D

 34 38  0  0  0  0  0  0  0  0999 V2000
   -1.5720    2.0292    2.4183 C   0  0  0  0  0  0  0  0  0  0  0  0
   -1.6233    0.5828    2.0272 C   0  0  0  0  0  0  0  0  0  0  0  0
   -1.0292    0.3266    0.7062 C   0  0  1  0  0  0  0  0  0  0  0  0
   -1.0669   -1.1408    0.3110 C   0  0  0  0  0  0  0  0  0  0  0  0
   -2.3016   -1.4387   -0.5125 C   0  0  1  0  0  0  0  0  0  0  0  0
   -2.1540   -0.9793   -1.9451 C   0  0  0  0  0  0  0  0  0  0  0  0
   -2.5639   -2.8026   -0.5532 O   0  0  0  0  0  0  0  0  0  0  0  0
   -3.4931   -0.7720    0.1509 C   0  0  2  0  0  0  0  0  0  0  0  0
   -3.5676   -1.2889    1.4414 O   0  0  0  0  0  0  0  0  0  0  0  0
   -4.6973   -1.1426   -0.6269 C   0  0  0  0  0  0  0  0  0  0  0  0
   -4.6384   -1.1648   -2.0086 C   0  0  0  0  0  0  0  0  0  0  0  0
   -5.7365   -1.5103   -2.7604 C   0  0  0  0  0  0  0  0  0  0  0  0
   -6.9020   -1.8349   -2.1322 C   0  0  0  0  0  0  0  0  0  0  0  0
   -6.9185   -1.7995   -0.7522 C   0  0  0  0  0  0  0  0  0  0  0  0
   -5.8498   -1.4654   -0.0259 N   0  0  0  0  0  0  0  0  0  0  0  0
   -3.3487    0.7327    0.2361 C   0  0  0  0  0  0  0  0  0  0  0  0
   -1.9041    1.0761   -0.4546 C   0  0  1  0  0  0  0  0  0  0  0  0
   -1.7957    2.5648    0.2076 C   0  0  0  0  0  0  0  0  0  0  0  0
   -0.5152    3.0536   -0.4261 C   0  0  0  0  0  0  0  0  0  0  0  0
    0.6010    2.1535    0.0552 C   0  0  0  0  0  0  0  0  0  0  0  0
    1.8946    2.5843   -0.0240 C   0  0  0  0  0  0  0  0  0  0  0  0
    2.9773    1.8013    0.3975 C   0  0  0  0  0  0  0  0  0  0  0  0
    4.2581    2.2788    0.2934 O   0  0  0  0  0  0  0  0  0  0  0  0
    5.3905    1.5903    0.6576 C   0  0  0  0  0  0  0  0  0  0  0  0
    5.5180    0.3477   -0.1300 C   0  0  0  0  0  0  0  0  0  0  0  0
    4.6466   -0.1005   -1.0754 C   0  0  0  0  0  0  0  0  0  0  0  0
    4.8669   -1.2701   -1.7414 C   0  0  0  0  0  0  0  0  0  0  0  0
    5.9960   -2.0193   -1.4532 C   0  0  0  0  0  0  0  0  0  0  0  0
    6.8369   -1.5675   -0.5248 N   0  0  0  0  0  0  0  0  0  0  0  0
    6.6419   -0.4329    0.1343 C   0  0  0  0  0  0  0  0  0  0  0  0
    7.6398    0.0201    1.1734 C   0  0  0  0  0  0  0  0  0  0  0  0
    2.6982    0.5705    0.9015 C   0  0  0  0  0  0  0  0  0  0  0  0
    1.3842    0.1217    0.9889 C   0  0  0  0  0  0  0  0  0  0  0  0
    0.3274    0.8960    0.5722 C   0  0  0  0  0  0  0  0  0  0  0  0
  1  2  1  0
  3  2  1  1
  3  4  1  0
  4  5  1  0
  5  6  1  6
  5  7  1  0
  5  8  1  0
  8  9  1  1
  8 10  1  0
 10 11  2  0
 11 12  1  0
 12 13  2  0
 13 14  1  0
 14 15  2  0
  8 16  1  0
 17 16  1  1
 17 18  1  0
 18 19  1  0
 19 20  1  0
 20 21  2  0
 21 22  1  0
 22 23  1  0
 23 24  1  0
 24 25  1  0
 25 26  2  0
 26 27  1  0
 27 28  2  0
 28 29  1  0
 29 30  2  0
 30 31  1  0
 22 32  2  0
 32 33  1  0
 33 34  2  0
 17  3  1  0
 34 20  1  0
 34  3  1  0
 15 10  1  0
 30 25  1  0
M  END
>  <zinc_id>  (1) 
ZINC000003937476

>  <smiles>  (1) 
CC[C@@]12C[C@@](C)(O)[C@](O)(c3ccccn3)C[C@H]1CCc1cc(OCc3cccnc3C)ccc12

$$$$
