
     RDKit          3D

 31 35  0  0  0  0  0  0  0  0999 V2000
    3.4232   -4.9233   -1.4815 C   0  0  0  0  0  0  0  0  0  0  0  0
    3.0176   -3.6315   -1.0752 O   0  0  0  0  0  0  0  0  0  0  0  0
    3.8838   -2.8268   -0.3155 C   0  0  0  0  0  0  0  0  0  0  0  0
    5.1362   -3.2922    0.0371 C   0  0  0  0  0  0  0  0  0  0  0  0
    5.9434   -2.4459    0.7892 C   0  0  0  0  0  0  0  0  0  0  0  0
    5.5309   -1.2032    1.1719 C   0  0  0  0  0  0  0  0  0  0  0  0
    4.2964   -0.7407    0.8261 C   0  0  0  0  0  0  0  0  0  0  0  0
    3.4578   -1.5635    0.0709 C   0  0  0  0  0  0  0  0  0  0  0  0
    2.1976   -1.1484   -0.3072 O   0  0  0  0  0  0  0  0  0  0  0  0
    1.7720    0.1396    0.0927 C   0  0  0  0  0  0  0  0  0  0  0  0
    0.3568    0.4468   -0.4037 C   0  0  0  0  0  0  0  0  0  0  0  0
    0.0460    1.7920    0.0792 N   0  0  0  0  0  0  0  0  0  0  0  0
   -0.5266    2.1299    1.2346 C   0  0  0  0  0  0  0  0  0  0  0  0
   -1.1951    1.0870    2.5198 S   0  0  0  0  0  0  0  0  0  0  0  0
   -1.2189   -0.6247    1.9913 C   0  0  0  0  0  0  0  0  0  0  0  0
   -2.3275   -0.8426    1.0527 C   0  0  0  0  0  0  0  0  0  0  0  0
   -2.4985   -0.7912   -0.2596 N   0  0  0  0  0  0  0  0  0  0  0  0
   -3.7600   -1.0886   -0.6148 C   0  0  0  0  0  0  0  0  0  0  0  0
   -4.4759   -1.1858   -1.7909 C   0  0  0  0  0  0  0  0  0  0  0  0
   -5.8138   -1.5241   -1.8527 C   0  0  0  0  0  0  0  0  0  0  0  0
   -6.4763   -1.7804   -0.6634 C   0  0  0  0  0  0  0  0  0  0  0  0
   -5.7928   -1.6940    0.5414 C   0  0  0  0  0  0  0  0  0  0  0  0
   -4.4458   -1.3499    0.5599 C   0  0  0  0  0  0  0  0  0  0  0  0
   -3.5689   -1.1957    1.5320 N   0  0  0  0  0  0  0  0  0  0  0  0
   -0.5564    3.4983    1.2527 N   0  0  0  0  0  0  0  0  0  0  0  0
   -0.0110    3.9508    0.1251 C   0  0  0  0  0  0  0  0  0  0  0  0
    0.2180    5.2238   -0.3828 C   0  0  0  0  0  0  0  0  0  0  0  0
    0.8165    5.3720   -1.6087 C   0  0  0  0  0  0  0  0  0  0  0  0
    1.2037    4.2983   -2.3659 C   0  0  0  0  0  0  0  0  0  0  0  0
    0.9892    3.0376   -1.8882 C   0  0  0  0  0  0  0  0  0  0  0  0
    0.3788    2.8763   -0.6369 C   0  0  0  0  0  0  0  0  0  0  0  0
  1  2  1  0
  2  3  1  0
  3  4  2  0
  4  5  1  0
  5  6  2  0
  6  7  1  0
  7  8  2  0
  8  9  1  0
  9 10  1  0
 10 11  1  0
 11 12  1  0
 12 13  1  0
 13 14  1  0
 14 15  1  0
 15 16  1  0
 16 17  2  0
 17 18  1  0
 18 19  2  0
 19 20  1  0
 20 21  2  0
 21 22  1  0
 22 23  2  0
 23 24  1  0
 13 25  2  0
 25 26  1  0
 26 27  2  0
 27 28  1  0
 28 29  2  0
 29 30  1  0
 30 31  2  0
  8  3  1  0
 31 12  1  0
 24 16  1  0
 31 26  1  0
 23 18  1  0
M  END
>  <zinc_id>  (1) 
ZINC000000805569

>  <smiles>  (1) 
COc1ccccc1OCCn1c(SCc2nc3ccccc3[nH]2)nc2ccccc21

$$$$
