
     RDKit          3D

 33 37  0  0  0  0  0  0  0  0999 V2000
   -2.3885    5.5826   -0.0753 C   0  0  0  0  0  0  0  0  0  0  0  0
   -1.7088    4.3266    0.3203 C   0  0  0  0  0  0  0  0  0  0  0  0
   -0.6022    4.3033    1.1235 C   0  0  0  0  0  0  0  0  0  0  0  0
    0.0305    3.1320    1.4934 C   0  0  0  0  0  0  0  0  0  0  0  0
   -0.4792    1.9317    1.0294 C   0  0  0  0  0  0  0  0  0  0  0  0
   -1.5950    1.9071    0.2152 C   0  0  0  0  0  0  0  0  0  0  0  0
   -2.1972    3.1101   -0.1295 C   0  0  0  0  0  0  0  0  0  0  0  0
   -1.8570    0.5980   -0.0759 C   0  0  0  0  0  0  0  0  0  0  0  0
   -2.9153    0.0636   -0.9011 C   0  0  0  0  0  0  0  0  0  0  0  0
   -3.9417   -0.7440   -0.4066 C   0  0  0  0  0  0  0  0  0  0  0  0
   -4.8950   -1.2194   -1.2499 C   0  0  0  0  0  0  0  0  0  0  0  0
   -4.8891   -0.9322   -2.5934 C   0  0  0  0  0  0  0  0  0  0  0  0
   -3.8825   -0.1374   -3.0919 C   0  0  0  0  0  0  0  0  0  0  0  0
   -2.9097    0.3504   -2.2426 C   0  0  0  0  0  0  0  0  0  0  0  0
   -0.8820   -0.1613    0.5774 C   0  0  0  0  0  0  0  0  0  0  0  0
   -0.8584   -1.5946    0.5449 C   0  0  0  0  0  0  0  0  0  0  0  0
   -0.8080   -2.2857   -0.6233 C   0  0  0  0  0  0  0  0  0  0  0  0
   -0.7958   -3.6456   -0.6401 C   0  0  0  0  0  0  0  0  0  0  0  0
   -0.8338   -4.3586    0.5484 C   0  0  0  0  0  0  0  0  0  0  0  0
   -0.8853   -3.6804    1.7386 C   0  0  0  0  0  0  0  0  0  0  0  0
   -0.8983   -2.3012    1.7533 C   0  0  0  0  0  0  0  0  0  0  0  0
   -0.0514    0.6572    1.2424 N   0  0  0  0  0  0  0  0  0  0  0  0
    1.1183    0.3214    2.0288 C   0  0  0  0  0  0  0  0  0  0  0  0
    2.3421    0.5102    0.9202 C   0  0  2  0  0  0  0  0  0  0  0  0
    1.7798   -0.5288   -0.0394 O   0  0  0  0  0  0  0  0  0  0  0  0
    3.3332   -0.5842    1.6834 C   0  0  0  0  0  0  0  0  0  0  0  0
    4.2412   -1.0551    0.6601 N   0  0  0  0  0  0  0  0  0  0  0  0
    5.1553   -0.0035    0.2425 C   0  0  0  0  0  0  0  0  0  0  0  0
    4.5221    0.9135   -0.7714 C   0  0  0  0  0  0  0  0  0  0  0  0
    4.2682    0.2231   -2.0901 C   0  0  0  0  0  0  0  0  0  0  0  0
    5.1461   -0.9531   -2.3204 C   0  0  0  0  0  0  0  0  0  0  0  0
    4.7022   -2.1019   -1.4404 C   0  0  0  0  0  0  0  0  0  0  0  0
    3.6351   -1.6439   -0.4812 C   0  0  0  0  0  0  0  0  0  0  0  0
  1  2  1  0
  2  3  2  0
  3  4  1  0
  4  5  2  0
  5  6  1  0
  6  7  2  0
  6  8  1  0
  8  9  1  0
  9 10  2  0
 10 11  1  0
 11 12  2  0
 12 13  1  0
 13 14  2  0
  8 15  2  0
 15 16  1  0
 16 17  2  0
 17 18  1  0
 18 19  2  0
 19 20  1  0
 20 21  2  0
 15 22  1  0
 22 23  1  0
 23 24  1  0
 24 25  1  6
 24 26  1  0
 26 27  1  0
 27 28  1  0
 28 29  1  0
 29 30  1  0
 30 31  1  0
 31 32  1  0
 32 33  1  0
  7  2  1  0
 14  9  1  0
 21 16  1  0
 33 27  1  0
 22  5  1  0
M  END
>  <zinc_id>  (1) 
ZINC000002182535

>  <smiles>  (1) 
Cc1ccc2c(c1)c(-c1ccccc1)c(-c1ccccc1)n2C[C@H](O)CN1CCCCCC1

$$$$
