
     RDKit          3D

 35 39  0  0  0  0  0  0  0  0999 V2000
   -5.2236   -0.3966    4.2160 C   0  0  0  0  0  0  0  0  0  0  0  0
   -3.9443   -0.5859    3.6396 O   0  0  0  0  0  0  0  0  0  0  0  0
   -3.5287    0.2161    2.5512 C   0  0  0  0  0  0  0  0  0  0  0  0
   -4.3581    1.1868    2.0401 C   0  0  0  0  0  0  0  0  0  0  0  0
   -3.9269    1.9762    0.9554 C   0  0  0  0  0  0  0  0  0  0  0  0
   -2.6786    1.7743    0.4110 C   0  0  0  0  0  0  0  0  0  0  0  0
   -2.3851    2.7475   -0.7817 C   0  0  1  0  0  0  0  0  0  0  0  0
   -1.0280    3.3756   -0.2429 C   0  0  0  0  0  0  0  0  0  0  0  0
    0.0246    2.5773   -0.0023 N   0  0  0  0  0  0  0  0  0  0  0  0
    0.9131    1.7295   -0.6476 C   0  0  0  0  0  0  0  0  0  0  0  0
    0.7789    1.5987   -1.8849 O   0  0  0  0  0  0  0  0  0  0  0  0
    1.9897    0.9806    0.0030 C   0  0  0  0  0  0  0  0  0  0  0  0
    2.3174    1.0909    1.3323 C   0  0  0  0  0  0  0  0  0  0  0  0
    3.3470    0.3580    1.9010 C   0  0  0  0  0  0  0  0  0  0  0  0
    4.0885   -0.5252    1.1231 C   0  0  0  0  0  0  0  0  0  0  0  0
    5.0826   -1.3317    1.3420 O   0  0  0  0  0  0  0  0  0  0  0  0
    5.4461   -1.9757    0.2557 C   0  0  0  0  0  0  0  0  0  0  0  0
    6.4129   -2.9129   -0.0425 C   0  0  0  0  0  0  0  0  0  0  0  0
    6.5756   -3.4345   -1.3085 C   0  0  0  0  0  0  0  0  0  0  0  0
    5.7572   -3.0265   -2.3444 C   0  0  0  0  0  0  0  0  0  0  0  0
    4.7896   -2.0882   -2.0448 C   0  0  0  0  0  0  0  0  0  0  0  0
    4.6167   -1.5587   -0.7826 C   0  0  0  0  0  0  0  0  0  0  0  0
    3.7737   -0.6448   -0.1993 C   0  0  0  0  0  0  0  0  0  0  0  0
    2.7553    0.0889   -0.7329 C   0  0  0  0  0  0  0  0  0  0  0  0
   -1.7755    1.7456   -1.8932 C   0  0  0  0  0  0  0  0  0  0  0  0
   -2.9054    0.7909   -2.1085 C   0  0  0  0  0  0  0  0  0  0  0  0
   -3.0726   -0.3717   -1.4032 C   0  0  0  0  0  0  0  0  0  0  0  0
   -4.1348   -1.2246   -1.6378 C   0  0  0  0  0  0  0  0  0  0  0  0
   -5.0877   -0.9514   -2.5978 C   0  0  0  0  0  0  0  0  0  0  0  0
   -4.9376    0.2114   -3.3170 C   0  0  0  0  0  0  0  0  0  0  0  0
   -3.8775    1.0607   -3.0815 C   0  0  0  0  0  0  0  0  0  0  0  0
   -1.9001    0.8428    0.9122 C   0  0  0  0  0  0  0  0  0  0  0  0
   -2.2958    0.0510    1.9776 C   0  0  0  0  0  0  0  0  0  0  0  0
   -1.4461   -0.9133    2.4685 O   0  0  0  0  0  0  0  0  0  0  0  0
   -0.1626   -1.1399    1.9248 C   0  0  0  0  0  0  0  0  0  0  0  0
  1  2  1  0
  2  3  1  0
  3  4  2  0
  4  5  1  0
  5  6  2  0
  6  7  1  0
  7  8  1  1
  8  9  1  0
  9 10  1  0
 10 11  2  0
 10 12  1  0
 12 13  2  0
 13 14  1  0
 14 15  2  0
 15 16  1  0
 16 17  1  0
 17 18  2  0
 18 19  1  0
 19 20  2  0
 20 21  1  0
 21 22  2  0
 22 23  1  0
 23 24  2  0
  7 25  1  0
 25 26  1  0
 26 27  2  0
 27 28  1  0
 28 29  2  0
 29 30  1  0
 30 31  2  0
  6 32  1  0
 32 33  2  0
 33 34  1  0
 34 35  1  0
 33  3  1  0
 24 12  1  0
 31 26  1  0
 23 15  1  0
 22 17  1  0
M  END
>  <zinc_id>  (1) 
ZINC000001428269

>  <smiles>  (1) 
COc1ccc([C@@H](CNC(=O)c2ccc3oc4ccccc4c3c2)Cc2ccccc2)cc1OC

$$$$
