
     RDKit          3D

 32 37  0  0  0  0  0  0  0  0999 V2000
   -7.5279   -0.3017   -0.9661 O   0  0  0  0  0  0  0  0  0  0  0  0
   -6.1617   -0.5538   -0.8047 C   0  0  0  0  0  0  0  0  0  0  0  0
   -5.7377   -1.3400    0.2274 C   0  0  0  0  0  0  0  0  0  0  0  0
   -4.4008   -1.5968    0.4003 C   0  0  0  0  0  0  0  0  0  0  0  0
   -3.4496   -1.0608   -0.4756 C   0  0  0  0  0  0  0  0  0  0  0  0
   -3.8743   -0.2982   -1.4730 C   0  0  0  0  0  0  0  0  0  0  0  0
   -5.2032   -0.0187   -1.6785 C   0  0  0  0  0  0  0  0  0  0  0  0
   -2.4271    0.2608   -2.3616 S   0  0  0  0  0  0  0  0  0  0  0  0
   -1.2969    0.1128   -0.8343 C   0  0  1  0  0  0  0  0  0  0  0  0
   -2.0954    0.9759    0.1299 C   0  0  0  0  0  0  0  0  0  0  0  0
   -2.5793    2.2745   -0.0388 C   0  0  0  0  0  0  0  0  0  0  0  0
   -3.2867    2.8851    1.0059 C   0  0  0  0  0  0  0  0  0  0  0  0
   -3.4960    2.1977    2.1833 C   0  0  0  0  0  0  0  0  0  0  0  0
   -3.0042    0.9072    2.3250 C   0  0  0  0  0  0  0  0  0  0  0  0
   -2.3213    0.3745    1.2608 C   0  0  0  0  0  0  0  0  0  0  0  0
   -1.7029   -1.0982    1.2612 C   0  0  2  0  0  0  0  0  0  0  0  0
   -0.1926   -0.6801    1.2382 C   0  0  0  0  0  0  0  0  0  0  0  0
    0.5810   -0.8630    0.1541 C   0  0  0  0  0  0  0  0  0  0  0  0
    1.9285   -0.4690    0.2143 C   0  0  0  0  0  0  0  0  0  0  0  0
    2.4705    0.0941    1.3465 C   0  0  0  0  0  0  0  0  0  0  0  0
    3.7980    0.4971    1.4451 O   0  0  0  0  0  0  0  0  0  0  0  0
    4.7518    0.3844    0.4327 C   0  0  0  0  0  0  0  0  0  0  0  0
    4.3700    1.1239   -0.8313 C   0  0  0  0  0  0  0  0  0  0  0  0
    5.4824    0.9020   -1.7634 N   0  0  0  0  0  0  0  0  0  0  0  0
    6.5938    1.6661   -1.1685 C   0  0  0  0  0  0  0  0  0  0  0  0
    7.5307    0.7792   -0.4158 C   0  0  0  0  0  0  0  0  0  0  0  0
    8.2347   -0.0988   -1.4099 C   0  0  0  0  0  0  0  0  0  0  0  0
    7.1738   -0.8457   -2.1955 C   0  0  0  0  0  0  0  0  0  0  0  0
    5.8196   -0.5238   -1.5970 C   0  0  0  0  0  0  0  0  0  0  0  0
    1.6532    0.2685    2.4423 C   0  0  0  0  0  0  0  0  0  0  0  0
    0.3074   -0.1283    2.3700 C   0  0  0  0  0  0  0  0  0  0  0  0
   -1.9377   -1.3201   -0.4231 C   0  0  1  0  0  0  0  0  0  0  0  0
  1  2  1  0
  2  3  2  0
  3  4  1  0
  4  5  2  0
  5  6  1  0
  6  7  2  0
  6  8  1  0
  9  8  1  6
  9 10  1  0
 10 11  2  0
 11 12  1  0
 12 13  2  0
 13 14  1  0
 14 15  2  0
 15 16  1  0
 16 17  1  6
 17 18  2  0
 18 19  1  0
 19 20  2  0
 20 21  1  0
 21 22  1  0
 22 23  1  0
 23 24  1  0
 24 25  1  0
 25 26  1  0
 26 27  1  0
 27 28  1  0
 28 29  1  0
 20 30  1  0
 30 31  2  0
 16 32  1  0
  7  2  1  0
 32  9  1  0
 32  5  1  1
 15 10  1  0
 31 17  1  0
 29 24  1  0
M  END
>  <zinc_id>  (1) 
ZINC000001903743

>  <smiles>  (1) 
Oc1ccc2c(c1)S[C@H]1c3ccccc3[C@H](c3ccc(OCCN4CCCCC4)cc3)[C@@H]21

$$$$
