
     RDKit          3D

 30 32  0  0  0  0  0  0  0  0999 V2000
    6.6828   -1.7638    4.1823 C   0  0  0  0  0  0  0  0  0  0  0  0
    5.6029   -1.1800    3.2825 C   0  0  0  0  0  0  0  0  0  0  0  0
    5.1567    0.1866    3.7577 C   0  0  0  0  0  0  0  0  0  0  0  0
    6.0840   -1.0965    1.9583 O   0  0  0  0  0  0  0  0  0  0  0  0
    5.2612   -0.5880    0.9488 C   0  0  0  0  0  0  0  0  0  0  0  0
    5.6897   -0.4887   -0.3549 C   0  0  0  0  0  0  0  0  0  0  0  0
    4.8754    0.0134   -1.3489 C   0  0  0  0  0  0  0  0  0  0  0  0
    3.5834    0.4385   -1.0571 C   0  0  0  0  0  0  0  0  0  0  0  0
    2.8179    0.9367   -2.1222 N   0  0  0  0  0  0  0  0  0  0  0  0
    1.4874    1.4135   -2.0119 C   0  0  0  0  0  0  0  0  0  0  0  0
    0.9357    1.3973   -0.8890 O   0  0  0  0  0  0  0  0  0  0  0  0
    0.7247    1.9300   -3.1732 C   0  0  0  0  0  0  0  0  0  0  0  0
   -0.5632    2.3403   -2.8995 O   0  0  0  0  0  0  0  0  0  0  0  0
   -1.5092    1.4848   -2.3765 C   0  0  0  0  0  0  0  0  0  0  0  0
   -1.1923    0.1856   -2.1100 C   0  0  0  0  0  0  0  0  0  0  0  0
   -2.0933   -0.6916   -1.5916 C   0  0  0  0  0  0  0  0  0  0  0  0
   -3.3708   -0.2845   -1.3176 C   0  0  0  0  0  0  0  0  0  0  0  0
   -4.3893   -1.2306   -0.7252 C   0  0  0  0  0  0  0  0  0  0  0  0
   -5.7081   -0.9366   -1.3632 C   0  0  0  0  0  0  0  0  0  0  0  0
   -3.9976   -2.6520   -1.0069 C   0  0  0  0  0  0  0  0  0  0  0  0
   -4.4107   -0.9320    0.7309 C   0  0  0  0  0  0  0  0  0  0  0  0
   -4.1028   -1.8441    1.7069 C   0  0  0  0  0  0  0  0  0  0  0  0
   -4.1525   -1.4456    3.0331 C   0  0  0  0  0  0  0  0  0  0  0  0
   -4.4978   -0.1763    3.3900 C   0  0  0  0  0  0  0  0  0  0  0  0
   -4.8125    0.7616    2.4245 C   0  0  0  0  0  0  0  0  0  0  0  0
   -4.7587    0.3496    1.1080 C   0  0  0  0  0  0  0  0  0  0  0  0
   -3.7115    1.0273   -1.5818 C   0  0  0  0  0  0  0  0  0  0  0  0
   -2.8041    1.9145   -2.1047 C   0  0  0  0  0  0  0  0  0  0  0  0
    3.1892    0.3256    0.2523 C   0  0  0  0  0  0  0  0  0  0  0  0
    3.9837   -0.1719    1.2586 C   0  0  0  0  0  0  0  0  0  0  0  0
  1  2  1  0
  2  3  1  0
  2  4  1  0
  4  5  1  0
  5  6  2  0
  6  7  1  0
  7  8  2  0
  8  9  1  0
  9 10  1  0
 10 11  2  0
 10 12  1  0
 12 13  1  0
 13 14  1  0
 14 15  2  0
 15 16  1  0
 16 17  2  0
 17 18  1  0
 18 19  1  0
 18 20  1  0
 18 21  1  0
 21 22  2  0
 22 23  1  0
 23 24  2  0
 24 25  1  0
 25 26  2  0
 17 27  1  0
 27 28  2  0
  8 29  1  0
 29 30  2  0
 30  5  1  0
 28 14  1  0
 26 21  1  0
M  END
>  <zinc_id>  (1) 
ZINC000001775686

>  <smiles>  (1) 
CC(C)Oc1ccc(NC(=O)COc2ccc(C(C)(C)c3ccccc3)cc2)cc1

$$$$
