
     RDKit          3D

 30 33  0  0  0  0  0  0  0  0999 V2000
   -6.1816    2.9471   -0.7613 C   0  0  0  0  0  0  0  0  0  0  0  0
   -5.1214    1.9207   -1.0154 C   0  0  0  0  0  0  0  0  0  0  0  0
   -3.9038    2.1973   -0.1958 C   0  0  0  0  0  0  0  0  0  0  0  0
   -3.2973    3.5654   -0.5081 C   0  0  0  0  0  0  0  0  0  0  0  0
   -2.0746    3.6957    0.4013 C   0  0  0  0  0  0  0  0  0  0  0  0
   -1.1949    2.5776    0.0325 N   0  0  0  0  0  0  0  0  0  0  0  0
   -0.2327    2.5634   -0.8946 C   0  0  0  0  0  0  0  0  0  0  0  0
    0.1519    3.6593   -1.7425 N   0  0  0  0  0  0  0  0  0  0  0  0
    0.3674    1.3312   -0.9427 C   0  0  0  0  0  0  0  0  0  0  0  0
    1.4501    0.8621   -1.7896 C   0  0  0  0  0  0  0  0  0  0  0  0
    1.9929    1.6101   -2.6403 O   0  0  0  0  0  0  0  0  0  0  0  0
    1.9002   -0.4723   -1.6480 N   0  0  0  0  0  0  0  0  0  0  0  0
    2.9936   -0.9453   -2.5036 C   0  0  0  0  0  0  0  0  0  0  0  0
    3.2537   -2.3824   -2.1332 C   0  0  0  0  0  0  0  0  0  0  0  0
    3.6384   -2.4418   -0.6842 C   0  0  0  0  0  0  0  0  0  0  0  0
    2.6852   -2.5995    0.3020 C   0  0  0  0  0  0  0  0  0  0  0  0
    3.0268   -2.6556    1.6395 C   0  0  0  0  0  0  0  0  0  0  0  0
    4.3476   -2.5548    2.0396 C   0  0  0  0  0  0  0  0  0  0  0  0
    5.2969   -2.3974    1.0512 C   0  0  0  0  0  0  0  0  0  0  0  0
    4.9526   -2.3417   -0.2833 C   0  0  0  0  0  0  0  0  0  0  0  0
   -0.2827    0.5624    0.0209 C   0  0  0  0  0  0  0  0  0  0  0  0
   -0.1107   -0.7255    0.4122 N   0  0  0  0  0  0  0  0  0  0  0  0
   -0.9253   -1.1936    1.4051 C   0  0  0  0  0  0  0  0  0  0  0  0
   -0.7578   -2.5102    1.8131 C   0  0  0  0  0  0  0  0  0  0  0  0
   -1.5741   -2.9813    2.8089 C   0  0  0  0  0  0  0  0  0  0  0  0
   -2.5429   -2.2131    3.4157 C   0  0  0  0  0  0  0  0  0  0  0  0
   -2.6930   -0.9190    3.0006 C   0  0  0  0  0  0  0  0  0  0  0  0
   -1.8820   -0.3969    1.9879 C   0  0  0  0  0  0  0  0  0  0  0  0
   -2.0485    0.8863    1.5933 N   0  0  0  0  0  0  0  0  0  0  0  0
   -1.2337    1.3518    0.6013 C   0  0  0  0  0  0  0  0  0  0  0  0
  1  2  1  0
  2  3  1  0
  3  4  1  0
  4  5  1  0
  5  6  1  0
  6  7  1  0
  7  8  1  0
  7  9  2  0
  9 10  1  0
 10 11  2  0
 10 12  1  0
 12 13  1  0
 13 14  1  0
 14 15  1  0
 15 16  2  0
 16 17  1  0
 17 18  2  0
 18 19  1  0
 19 20  2  0
  9 21  1  0
 21 22  2  0
 22 23  1  0
 23 24  2  0
 24 25  1  0
 25 26  2  0
 26 27  1  0
 27 28  2  0
 28 29  1  0
 29 30  2  0
 30  6  1  0
 20 15  1  0
 30 21  1  0
 28 23  1  0
M  END
>  <zinc_id>  (1) 
ZINC000002292934

>  <smiles>  (1) 
CCCCCn1c(N)c(C(=O)NCCc2ccccc2)c2nc3ccccc3nc21

$$$$
