
     RDKit          3D

 33 37  0  0  0  0  0  0  0  0999 V2000
   -9.5707    1.4703    0.5770 C   0  0  0  0  0  0  0  0  0  0  0  0
   -8.5976    2.4654    0.3123 O   0  0  0  0  0  0  0  0  0  0  0  0
   -7.2553    2.1684    0.1440 C   0  0  0  0  0  0  0  0  0  0  0  0
   -6.3830    3.2034   -0.1101 C   0  0  0  0  0  0  0  0  0  0  0  0
   -5.0300    2.9280   -0.2824 C   0  0  0  0  0  0  0  0  0  0  0  0
   -4.5346    1.6453   -0.2063 C   0  0  0  0  0  0  0  0  0  0  0  0
   -3.1548    1.3441   -0.3800 N   0  0  0  0  0  0  0  0  0  0  0  0
   -2.6100    0.0580   -0.3094 C   0  0  0  0  0  0  0  0  0  0  0  0
   -3.3639   -0.9224   -0.0777 O   0  0  0  0  0  0  0  0  0  0  0  0
   -1.1861   -0.1790   -0.4980 C   0  0  0  0  0  0  0  0  0  0  0  0
   -0.0266    1.0194   -0.8189 S   0  0  0  0  0  0  0  0  0  0  0  0
    1.3748    0.0349   -0.9146 C   0  0  0  0  0  0  0  0  0  0  0  0
    2.6991    0.2976   -1.1483 N   0  0  0  0  0  0  0  0  0  0  0  0
    3.6143   -0.6861   -1.1699 C   0  0  0  0  0  0  0  0  0  0  0  0
    5.0459   -0.4245   -1.4198 C   0  0  0  0  0  0  0  0  0  0  0  0
    5.8447   -0.4981   -0.1332 C   0  0  0  0  0  0  0  0  0  0  0  0
    5.3196    0.5261    0.8093 C   0  0  0  0  0  0  0  0  0  0  0  0
    4.3050    0.2643    1.7044 C   0  0  0  0  0  0  0  0  0  0  0  0
    3.8377    1.2437    2.5706 C   0  0  0  0  0  0  0  0  0  0  0  0
    4.4092    2.4829    2.5170 C   0  0  0  0  0  0  0  0  0  0  0  0
    5.4280    2.7553    1.6223 C   0  0  0  0  0  0  0  0  0  0  0  0
    5.8772    1.7678    0.7706 C   0  0  0  0  0  0  0  0  0  0  0  0
    3.1514   -1.9429   -0.9484 C   0  0  0  0  0  0  0  0  0  0  0  0
    1.8367   -2.2459   -0.7113 C   0  0  0  0  0  0  0  0  0  0  0  0
    0.8723   -1.2144   -0.6879 C   0  0  0  0  0  0  0  0  0  0  0  0
   -0.4467   -1.3287   -0.4728 C   0  0  0  0  0  0  0  0  0  0  0  0
   -1.1465   -2.5832   -0.2153 N   0  0  0  0  0  0  0  0  0  0  0  0
    1.5004   -3.6615   -0.4902 C   0  0  0  0  0  0  0  0  0  0  0  0
    2.4381   -4.3674    0.4290 C   0  0  0  0  0  0  0  0  0  0  0  0
    3.8779   -4.0155    0.2147 C   0  0  0  0  0  0  0  0  0  0  0  0
    4.1054   -3.1078   -0.9540 C   0  0  0  0  0  0  0  0  0  0  0  0
   -5.4322    0.6309    0.0493 C   0  0  0  0  0  0  0  0  0  0  0  0
   -6.7997    0.8714    0.2279 C   0  0  0  0  0  0  0  0  0  0  0  0
  1  2  1  0
  2  3  1  0
  3  4  2  0
  4  5  1  0
  5  6  2  0
  6  7  1  0
  7  8  1  0
  8  9  2  0
  8 10  1  0
 10 11  1  0
 11 12  1  0
 12 13  2  0
 13 14  1  0
 14 15  1  0
 15 16  1  0
 16 17  1  0
 17 18  2  0
 18 19  1  0
 19 20  2  0
 20 21  1  0
 21 22  2  0
 14 23  2  0
 23 24  1  0
 24 25  2  0
 25 26  1  0
 26 27  1  0
 24 28  1  0
 28 29  1  0
 29 30  1  0
 30 31  1  0
  6 32  1  0
 32 33  2  0
 33  3  1  0
 26 10  2  0
 25 12  1  0
 22 17  1  0
 31 23  1  0
M  END
>  <zinc_id>  (1) 
ZINC000001472102

>  <smiles>  (1) 
COc1ccc(NC(=O)c2sc3nc(CCc4ccccc4)c4c(c3c2N)CCCC4)cc1

$$$$
