
     RDKit          3D

 31 34  0  0  0  0  0  0  0  0999 V2000
    7.8535   -0.3868   -1.1439 C   0  0  0  0  0  0  0  0  0  0  0  0
    8.8231   -0.2749   -0.0372 C   0  0  0  0  0  0  0  0  0  0  0  0
    8.4865    1.0832    0.8254 C   0  0  1  0  0  0  0  0  0  0  0  0
    8.7018    2.0953   -0.4603 C   0  0  0  0  0  0  0  0  0  0  0  0
    6.9179    0.9883    0.6902 C   0  0  0  0  0  0  0  0  0  0  0  0
    6.1828    2.0877    0.4211 C   0  0  0  0  0  0  0  0  0  0  0  0
    4.7882    1.9705    0.3099 C   0  0  0  0  0  0  0  0  0  0  0  0
    4.1436    0.7651    0.4672 C   0  0  0  0  0  0  0  0  0  0  0  0
    2.7233    0.7077    0.3427 N   0  0  0  0  0  0  0  0  0  0  0  0
    2.0300   -0.4992    0.4956 C   0  0  0  0  0  0  0  0  0  0  0  0
    2.6908   -1.5350    0.7461 O   0  0  0  0  0  0  0  0  0  0  0  0
    0.5550   -0.5806    0.3702 C   0  0  0  0  0  0  0  0  0  0  0  0
   -0.5540    0.6701    0.0381 S   0  0  0  0  0  0  0  0  0  0  0  0
   -1.9990   -0.2401    0.0658 C   0  0  0  0  0  0  0  0  0  0  0  0
   -3.3149    0.0981   -0.1205 N   0  0  0  0  0  0  0  0  0  0  0  0
   -4.3039   -0.8064   -0.0505 C   0  0  0  0  0  0  0  0  0  0  0  0
   -5.6925   -0.4368   -0.2495 C   0  0  0  0  0  0  0  0  0  0  0  0
   -6.6643   -1.4084   -0.1657 C   0  0  0  0  0  0  0  0  0  0  0  0
   -8.0101   -1.1184   -0.3462 C   0  0  0  0  0  0  0  0  0  0  0  0
   -8.3923    0.1704   -0.6162 C   0  0  0  0  0  0  0  0  0  0  0  0
   -7.4458    1.1698   -0.7074 C   0  0  0  0  0  0  0  0  0  0  0  0
   -7.8480    2.4723   -0.9818 O   0  0  0  0  0  0  0  0  0  0  0  0
   -6.8388    3.4610   -1.0651 C   0  0  0  0  0  0  0  0  0  0  0  0
   -6.1132    0.8421   -0.5213 C   0  0  0  0  0  0  0  0  0  0  0  0
   -3.8938   -2.0899    0.2211 C   0  0  0  0  0  0  0  0  0  0  0  0
   -2.6055   -2.4635    0.4113 C   0  0  0  0  0  0  0  0  0  0  0  0
   -1.5661   -1.5027    0.3359 C   0  0  0  0  0  0  0  0  0  0  0  0
   -0.2407   -1.6849    0.4948 C   0  0  0  0  0  0  0  0  0  0  0  0
    0.3700   -2.9824    0.7881 N   0  0  0  0  0  0  0  0  0  0  0  0
    4.9102   -0.3444    0.7410 C   0  0  0  0  0  0  0  0  0  0  0  0
    6.3064   -0.2273    0.8524 C   0  0  0  0  0  0  0  0  0  0  0  0
  1  2  1  0
  2  3  1  0
  3  4  1  6
  3  5  1  0
  5  6  2  0
  6  7  1  0
  7  8  2  0
  8  9  1  0
  9 10  1  0
 10 11  2  0
 10 12  1  0
 12 13  1  0
 13 14  1  0
 14 15  2  0
 15 16  1  0
 16 17  1  0
 17 18  2  0
 18 19  1  0
 19 20  2  0
 20 21  1  0
 21 22  1  0
 22 23  1  0
 21 24  2  0
 16 25  2  0
 25 26  1  0
 26 27  2  0
 27 28  1  0
 28 29  1  0
  8 30  1  0
 30 31  2  0
 31  5  1  0
 28 12  2  0
 27 14  1  0
 24 17  1  0
M  END
>  <zinc_id>  (1) 
ZINC000000661256

>  <smiles>  (1) 
CC[C@@H](C)c1ccc(NC(=O)c2sc3nc(-c4cccc(OC)c4)ccc3c2N)cc1

$$$$
