
     RDKit          3D

 31 34  0  0  0  0  0  0  0  0999 V2000
    7.3372    1.6884   -0.9946 C   0  0  0  0  0  0  0  0  0  0  0  0
    7.7839    0.6007   -0.0703 C   0  0  0  0  0  0  0  0  0  0  0  0
    6.8955    0.5309    1.0262 O   0  0  0  0  0  0  0  0  0  0  0  0
    5.5476    0.2632    0.7899 C   0  0  0  0  0  0  0  0  0  0  0  0
    4.6411    0.1842    1.8205 C   0  0  0  0  0  0  0  0  0  0  0  0
    3.2987   -0.0796    1.6189 C   0  0  0  0  0  0  0  0  0  0  0  0
    2.8286   -0.2740    0.3497 C   0  0  0  0  0  0  0  0  0  0  0  0
    1.4360   -0.5532    0.0930 N   0  0  0  0  0  0  0  0  0  0  0  0
    0.3338   -0.0450    0.8233 C   0  0  0  0  0  0  0  0  0  0  0  0
    0.3933    0.7299    1.8105 O   0  0  0  0  0  0  0  0  0  0  0  0
   -0.8676   -0.6042    0.1953 C   0  0  0  0  0  0  0  0  0  0  0  0
   -2.1496   -0.2502    0.7169 N   0  0  0  0  0  0  0  0  0  0  0  0
   -2.5004    1.1155    0.8525 C   0  0  0  0  0  0  0  0  0  0  0  0
   -3.7343    1.4639    1.3453 C   0  0  0  0  0  0  0  0  0  0  0  0
   -4.0639    2.7780    1.4725 C   0  0  0  0  0  0  0  0  0  0  0  0
   -3.1754    3.7693    1.1133 C   0  0  0  0  0  0  0  0  0  0  0  0
   -1.9330    3.4420    0.6171 C   0  0  0  0  0  0  0  0  0  0  0  0
   -0.9140    4.4225    0.2058 C   0  0  0  0  0  0  0  0  0  0  0  0
   -1.6151    2.0905    0.4946 C   0  0  0  0  0  0  0  0  0  0  0  0
   -0.6065   -1.3766   -0.8093 C   0  0  0  0  0  0  0  0  0  0  0  0
   -1.6640   -2.2822   -1.8920 S   0  0  0  0  0  0  0  0  0  0  0  0
   -3.3556   -2.2636   -1.4708 C   0  0  0  0  0  0  0  0  0  0  0  0
   -3.9561   -1.6759   -0.4133 C   0  0  0  0  0  0  0  0  0  0  0  0
   -5.2986   -1.7458   -0.2094 C   0  0  0  0  0  0  0  0  0  0  0  0
   -6.1230   -2.4249   -1.0775 C   0  0  0  0  0  0  0  0  0  0  0  0
   -5.5344   -3.0326   -2.1638 C   0  0  0  0  0  0  0  0  0  0  0  0
   -4.1954   -2.9622   -2.3661 C   0  0  0  0  0  0  0  0  0  0  0  0
    0.8855   -1.3663   -0.9065 C   0  0  0  0  0  0  0  0  0  0  0  0
    1.4998   -2.0128   -1.7791 O   0  0  0  0  0  0  0  0  0  0  0  0
    3.7256   -0.1982   -0.6978 C   0  0  0  0  0  0  0  0  0  0  0  0
    5.0803    0.0681   -0.4948 C   0  0  0  0  0  0  0  0  0  0  0  0
  1  2  1  0
  2  3  1  0
  3  4  1  0
  4  5  2  0
  5  6  1  0
  6  7  2  0
  7  8  1  0
  8  9  1  0
  9 10  2  0
  9 11  1  0
 11 12  1  0
 12 13  1  0
 13 14  2  0
 14 15  1  0
 15 16  2  0
 16 17  1  0
 17 18  1  0
 17 19  2  0
 11 20  2  0
 20 21  1  0
 21 22  1  0
 22 23  2  0
 23 24  1  0
 24 25  2  0
 25 26  1  0
 26 27  2  0
 20 28  1  0
 28 29  2  0
  7 30  1  0
 30 31  2  0
 31  4  1  0
 28  8  1  0
 19 13  1  0
 27 22  1  0
M  END
>  <zinc_id>  (1) 
ZINC000001928661

>  <smiles>  (1) 
CCOc1ccc(N2C(=O)C(Nc3cccc(C)c3)=C(Sc3ccccc3)C2=O)cc1

$$$$
