
     RDKit          3D

 30 33  0  0  0  0  0  0  0  0999 V2000
   -6.0959    2.6052   -1.6167 C   0  0  0  0  0  0  0  0  0  0  0  0
   -6.2899    2.9583   -0.1409 C   0  0  0  0  0  0  0  0  0  0  0  0
   -6.3533    1.7196    0.5832 O   0  0  0  0  0  0  0  0  0  0  0  0
   -5.1936    0.9272    0.4739 C   0  0  0  0  0  0  0  0  0  0  0  0
   -4.0932    1.2909   -0.2312 C   0  0  0  0  0  0  0  0  0  0  0  0
   -2.9729    0.5176   -0.3396 C   0  0  0  0  0  0  0  0  0  0  0  0
   -2.9390   -0.7271    0.3069 C   0  0  0  0  0  0  0  0  0  0  0  0
   -1.7597   -1.5013    0.1159 N   0  0  0  0  0  0  0  0  0  0  0  0
   -0.6253   -0.9337   -0.5377 C   0  0  0  0  0  0  0  0  0  0  0  0
   -0.7318    0.2346   -0.8953 O   0  0  0  0  0  0  0  0  0  0  0  0
    0.6222   -1.7402   -0.7699 C   0  0  0  0  0  0  0  0  0  0  0  0
    1.7140   -1.1127   -1.2773 C   0  0  0  0  0  0  0  0  0  0  0  0
    2.2180    0.2073   -1.3073 N   0  0  0  0  0  0  0  0  0  0  0  0
    1.9908    1.2307   -0.4290 C   0  0  0  0  0  0  0  0  0  0  0  0
    1.3210    1.1778    0.5943 O   0  0  0  0  0  0  0  0  0  0  0  0
    2.6294    2.5694   -0.7360 C   0  0  0  0  0  0  0  0  0  0  0  0
    3.7777    2.6558    0.2082 C   0  0  0  0  0  0  0  0  0  0  0  0
    4.9989    2.1532   -0.2548 C   0  0  0  0  0  0  0  0  0  0  0  0
    6.0972    2.1947    0.5672 C   0  0  0  0  0  0  0  0  0  0  0  0
    5.9605    2.7292    1.8207 C   0  0  0  0  0  0  0  0  0  0  0  0
    4.7793    3.2251    2.2930 C   0  0  0  0  0  0  0  0  0  0  0  0
    3.6529    3.1853    1.4571 C   0  0  0  0  0  0  0  0  0  0  0  0
    2.7430   -2.4767   -1.6959 S   0  0  0  0  0  0  0  0  0  0  0  0
    1.7432   -3.7401   -1.1968 C   0  0  0  0  0  0  0  0  0  0  0  0
    0.6463   -3.1105   -0.7268 C   0  0  0  0  0  0  0  0  0  0  0  0
   -0.3229   -4.1892   -0.2406 C   0  0  0  0  0  0  0  0  0  0  0  0
    0.1026   -5.4081   -1.0230 C   0  0  0  0  0  0  0  0  0  0  0  0
    1.6108   -5.2545   -1.0843 C   0  0  0  0  0  0  0  0  0  0  0  0
   -4.0436   -1.0655    1.0029 C   0  0  0  0  0  0  0  0  0  0  0  0
   -5.1866   -0.3220    1.1393 C   0  0  0  0  0  0  0  0  0  0  0  0
  1  2  1  0
  2  3  1  0
  3  4  1  0
  4  5  2  0
  5  6  1  0
  6  7  2  0
  7  8  1  0
  8  9  1  0
  9 10  2  0
  9 11  1  0
 11 12  2  0
 12 13  1  0
 13 14  1  0
 14 15  2  0
 14 16  1  0
 16 17  1  0
 17 18  2  0
 18 19  1  0
 19 20  2  0
 20 21  1  0
 21 22  2  0
 12 23  1  0
 23 24  1  0
 24 25  2  0
 25 26  1  0
 26 27  1  0
 27 28  1  0
  7 29  1  0
 29 30  2  0
 30  4  1  0
 25 11  1  0
 22 17  1  0
 28 24  1  0
M  END
>  <zinc_id>  (1) 
ZINC000000722334

>  <smiles>  (1) 
CCOc1ccc(NC(=O)c2c(NC(=O)Cc3ccccc3)sc3c2CCC3)cc1

$$$$
