
     RDKit          3D

 31 34  0  0  0  0  0  0  0  0999 V2000
    7.9002   -1.0220   -2.2287 C   0  0  0  0  0  0  0  0  0  0  0  0
    7.7160   -1.4227   -0.7760 C   0  0  0  0  0  0  0  0  0  0  0  0
    6.2414   -1.6516   -0.5589 C   0  0  0  0  0  0  0  0  0  0  0  0
    5.9997   -2.0584    0.8917 C   0  0  0  0  0  0  0  0  0  0  0  0
    4.6240   -2.2743    1.1036 O   0  0  0  0  0  0  0  0  0  0  0  0
    3.7062   -1.2777    0.9062 C   0  0  0  0  0  0  0  0  0  0  0  0
    4.1332   -0.0418    0.4933 C   0  0  0  0  0  0  0  0  0  0  0  0
    3.2817    1.0092    0.2726 C   0  0  0  0  0  0  0  0  0  0  0  0
    1.9186    0.7591    0.4933 C   0  0  0  0  0  0  0  0  0  0  0  0
    1.4572   -0.4462    0.9007 C   0  0  0  0  0  0  0  0  0  0  0  0
   -0.0386   -0.7490    1.1614 C   0  0  2  0  0  0  0  0  0  0  0  0
   -0.1565   -2.1515    0.4848 N   0  0  0  0  0  0  0  0  0  0  0  0
    0.8353   -2.2728   -0.5213 C   0  0  0  0  0  0  0  0  0  0  0  0
    0.9921   -1.1046   -1.4272 C   0  0  0  0  0  0  0  0  0  0  0  0
   -0.1755   -0.1899   -1.2005 C   0  0  0  0  0  0  0  0  0  0  0  0
   -0.7431    0.4830   -2.2990 C   0  0  0  0  0  0  0  0  0  0  0  0
   -1.8142    1.3327   -2.1374 C   0  0  0  0  0  0  0  0  0  0  0  0
   -2.3963    2.0141   -3.2177 O   0  0  0  0  0  0  0  0  0  0  0  0
   -1.9234    1.8737   -4.5372 C   0  0  0  0  0  0  0  0  0  0  0  0
   -2.3436    1.5307   -0.8771 C   0  0  0  0  0  0  0  0  0  0  0  0
   -3.4054    2.3786   -0.7461 O   0  0  0  0  0  0  0  0  0  0  0  0
   -4.0921    2.7261    0.4051 C   0  0  0  0  0  0  0  0  0  0  0  0
   -4.7283    1.5866    1.1117 C   0  0  0  0  0  0  0  0  0  0  0  0
   -5.9940    1.1432    0.8559 C   0  0  0  0  0  0  0  0  0  0  0  0
   -6.5002    0.0834    1.5584 C   0  0  0  0  0  0  0  0  0  0  0  0
   -5.7894   -0.5799    2.5342 C   0  0  0  0  0  0  0  0  0  0  0  0
   -4.5168   -0.1007    2.7610 C   0  0  0  0  0  0  0  0  0  0  0  0
   -3.9852    0.9590    2.0718 C   0  0  0  0  0  0  0  0  0  0  0  0
   -1.7849    0.8684    0.2036 C   0  0  0  0  0  0  0  0  0  0  0  0
   -0.7480    0.0552   -0.0026 C   0  0  0  0  0  0  0  0  0  0  0  0
    2.3298   -1.4601    1.1081 C   0  0  0  0  0  0  0  0  0  0  0  0
  1  2  1  0
  2  3  1  0
  3  4  1  0
  4  5  1  0
  5  6  1  0
  6  7  2  0
  7  8  1  0
  8  9  2  0
  9 10  1  0
 11 10  1  1
 11 12  1  0
 12 13  1  0
 13 14  1  0
 14 15  1  0
 15 16  2  0
 16 17  1  0
 17 18  1  0
 18 19  1  0
 17 20  2  0
 20 21  1  0
 21 22  1  0
 22 23  1  0
 23 24  2  0
 24 25  1  0
 25 26  2  0
 26 27  1  0
 27 28  2  0
 20 29  1  0
 29 30  2  0
 10 31  2  0
 31  6  1  0
 30 11  1  0
 30 15  1  0
 28 23  1  0
M  END
>  <zinc_id>  (1) 
ZINC000003702467

>  <smiles>  (1) 
CCCCOc1cccc([C@H]2NCCc3cc(OC)c(OCc4ccccc4)cc32)c1

$$$$
