
     RDKit          3D

 31 34  0  0  0  0  0  0  0  0999 V2000
   -2.6444    0.2541    0.9479 C   0  0  0  0  0  0  0  0  0  0  0  0
   -2.7571    1.0677   -0.5840 C   0  0  2  0  0  0  0  0  0  0  0  0
   -2.0556    2.2668    0.0118 O   0  0  0  0  0  0  0  0  0  0  0  0
   -0.7479    2.4253   -0.5326 C   0  0  0  0  0  0  0  0  0  0  0  0
   -0.3938    1.5612   -1.4002 O   0  0  0  0  0  0  0  0  0  0  0  0
    0.0996    3.5292   -0.0743 C   0  0  0  0  0  0  0  0  0  0  0  0
    1.4100    3.4025   -0.4075 O   0  0  0  0  0  0  0  0  0  0  0  0
    2.2815    2.4071    0.0066 C   0  0  0  0  0  0  0  0  0  0  0  0
    3.6104    2.3813   -0.3951 C   0  0  0  0  0  0  0  0  0  0  0  0
    4.4186    1.3812    0.0412 C   0  0  0  0  0  0  0  0  0  0  0  0
    3.9762    0.3589    0.8988 C   0  0  0  0  0  0  0  0  0  0  0  0
    4.7944   -0.7085    1.2982 N   0  0  0  0  0  0  0  0  0  0  0  0
    5.9289   -0.9703    0.4369 C   0  0  0  0  0  0  0  0  0  0  0  0
    6.3128   -0.0486   -0.5473 C   0  0  0  0  0  0  0  0  0  0  0  0
    7.2909   -0.3833   -1.4351 C   0  0  0  0  0  0  0  0  0  0  0  0
    7.9645   -1.6032   -1.4596 C   0  0  0  0  0  0  0  0  0  0  0  0
    7.5503   -2.4903   -0.4717 C   0  0  0  0  0  0  0  0  0  0  0  0
    6.5587   -2.1881    0.4550 C   0  0  0  0  0  0  0  0  0  0  0  0
    2.6497    0.3906    1.3017 C   0  0  0  0  0  0  0  0  0  0  0  0
    1.8215    1.4152    0.8450 C   0  0  0  0  0  0  0  0  0  0  0  0
   -4.3108    1.4226   -0.1508 C   0  0  0  0  0  0  0  0  0  0  0  0
   -4.6989    2.4717    0.2002 O   0  0  0  0  0  0  0  0  0  0  0  0
   -4.9848    0.1860   -0.3054 C   0  0  0  0  0  0  0  0  0  0  0  0
   -5.7693   -0.2296   -1.3345 C   0  0  0  0  0  0  0  0  0  0  0  0
   -6.2317   -1.5064   -1.3958 C   0  0  0  0  0  0  0  0  0  0  0  0
   -5.9523   -2.4515   -0.4312 C   0  0  0  0  0  0  0  0  0  0  0  0
   -5.1400   -2.0695    0.6589 C   0  0  0  0  0  0  0  0  0  0  0  0
   -4.6937   -0.7844    0.6801 C   0  0  0  0  0  0  0  0  0  0  0  0
   -4.9444   -3.2113    1.5799 C   0  0  0  0  0  0  0  0  0  0  0  0
   -5.0726   -4.3695    0.5705 C   0  0  0  0  0  0  0  0  0  0  0  0
   -6.2709   -3.9069   -0.2435 C   0  0  0  0  0  0  0  0  0  0  0  0
  2  1  1  1
  2  3  1  0
  3  4  1  0
  4  5  2  0
  4  6  1  0
  6  7  1  0
  7  8  1  0
  8  9  2  0
  9 10  1  0
 10 11  2  0
 11 12  1  0
 12 13  1  0
 13 14  2  0
 14 15  1  0
 15 16  2  0
 16 17  1  0
 17 18  2  0
 11 19  1  0
 19 20  2  0
  2 21  1  0
 21 22  2  0
 21 23  1  0
 23 24  2  0
 24 25  1  0
 25 26  2  0
 26 27  1  0
 27 28  2  0
 27 29  1  0
 29 30  1  0
 30 31  1  0
 20  8  1  0
 28 23  1  0
 18 13  1  0
 31 26  1  0
M  END
>  <zinc_id>  (1) 
ZINC000004399803

>  <smiles>  (1) 
C[C@H](OC(=O)COc1ccc(Nc2ccccc2)cc1)C(=O)c1ccc2c(c1)CCC2

$$$$
