
     RDKit          3D

 32 36  0  0  0  0  0  0  0  0999 V2000
   -2.3313   -5.4120   -0.7693 C   0  0  0  0  0  0  0  0  0  0  0  0
   -1.5777   -4.1701   -0.4169 C   0  0  0  0  0  0  0  0  0  0  0  0
   -0.2269   -4.2165   -0.1504 C   0  0  0  0  0  0  0  0  0  0  0  0
    0.4880   -3.0637    0.1809 C   0  0  0  0  0  0  0  0  0  0  0  0
   -0.1966   -1.8649    0.2358 C   0  0  0  0  0  0  0  0  0  0  0  0
   -1.5475   -1.7611   -0.0215 C   0  0  0  0  0  0  0  0  0  0  0  0
   -2.2050   -2.9461   -0.3463 C   0  0  0  0  0  0  0  0  0  0  0  0
   -1.9563   -0.4500    0.1074 C   0  0  0  0  0  0  0  0  0  0  0  0
   -3.3244    0.0656   -0.0897 C   0  0  0  0  0  0  0  0  0  0  0  0
   -4.3447   -0.3796    0.7240 C   0  0  0  0  0  0  0  0  0  0  0  0
   -5.6255    0.0508    0.5955 C   0  0  0  0  0  0  0  0  0  0  0  0
   -5.9200    0.9669   -0.3838 C   0  0  0  0  0  0  0  0  0  0  0  0
   -4.9172    1.4482   -1.2347 C   0  0  0  0  0  0  0  0  0  0  0  0
   -3.6325    0.9718   -1.0536 C   0  0  0  0  0  0  0  0  0  0  0  0
   -0.8101    0.2522    0.4533 C   0  0  0  0  0  0  0  0  0  0  0  0
   -0.8498    1.6864    0.7084 C   0  0  0  0  0  0  0  0  0  0  0  0
   -1.3412    2.5257   -0.2561 C   0  0  0  0  0  0  0  0  0  0  0  0
   -1.4064    3.8854   -0.0821 C   0  0  0  0  0  0  0  0  0  0  0  0
   -0.9606    4.4462    1.1119 C   0  0  0  0  0  0  0  0  0  0  0  0
   -0.4671    3.5946    2.0779 C   0  0  0  0  0  0  0  0  0  0  0  0
   -0.4021    2.2292    1.9025 C   0  0  0  0  0  0  0  0  0  0  0  0
    0.2414   -0.5988    0.5289 N   0  0  0  0  0  0  0  0  0  0  0  0
    1.6200   -0.2948    0.8508 C   0  0  0  0  0  0  0  0  0  0  0  0
    2.3066   -0.0581   -0.6435 C   0  0  1  0  0  0  0  0  0  0  0  0
    1.3880    1.1065   -0.9924 O   0  0  0  0  0  0  0  0  0  0  0  0
    3.5042    0.9365   -0.0297 C   0  0  0  0  0  0  0  0  0  0  0  0
    4.4531   -0.1009    0.3378 N   0  0  0  0  0  0  0  0  0  0  0  0
    4.9976   -0.7510   -0.8179 C   0  0  0  0  0  0  0  0  0  0  0  0
    5.7827    0.2626   -1.6201 C   0  0  0  0  0  0  0  0  0  0  0  0
    6.9157    0.8523   -0.8136 C   0  0  0  0  0  0  0  0  0  0  0  0
    6.8510    0.4638    0.6333 C   0  0  0  0  0  0  0  0  0  0  0  0
    5.4946    0.3230    1.1901 C   0  0  0  0  0  0  0  0  0  0  0  0
  1  2  1  0
  2  3  2  0
  3  4  1  0
  4  5  2  0
  5  6  1  0
  6  7  2  0
  6  8  1  0
  8  9  1  0
  9 10  2  0
 10 11  1  0
 11 12  2  0
 12 13  1  0
 13 14  2  0
  8 15  2  0
 15 16  1  0
 16 17  2  0
 17 18  1  0
 18 19  2  0
 19 20  1  0
 20 21  2  0
 15 22  1  0
 22 23  1  0
 23 24  1  0
 24 25  1  6
 24 26  1  0
 26 27  1  0
 27 28  1  0
 28 29  1  0
 29 30  1  0
 30 31  1  0
 31 32  1  0
  7  2  1  0
 14  9  1  0
 21 16  1  0
 32 27  1  0
 22  5  1  0
M  END
>  <zinc_id>  (1) 
ZINC000001808744

>  <smiles>  (1) 
Cc1ccc2c(c1)c(-c1ccccc1)c(-c1ccccc1)n2C[C@@H](O)CN1CCCCC1

$$$$
