
     RDKit          3D

 33 36  0  0  0  0  0  0  0  0999 V2000
    8.8161   -1.2148    1.1519 C   0  0  0  0  0  0  0  0  0  0  0  0
    7.7469   -2.1279    0.6225 C   0  0  0  0  0  0  0  0  0  0  0  0
    6.5604   -1.3822    0.4889 O   0  0  0  0  0  0  0  0  0  0  0  0
    5.3898   -1.9763    0.0135 C   0  0  0  0  0  0  0  0  0  0  0  0
    5.4300   -3.1770   -0.2857 O   0  0  0  0  0  0  0  0  0  0  0  0
    4.1488   -1.2236   -0.1331 C   0  0  0  0  0  0  0  0  0  0  0  0
    4.0542    0.1132    0.1869 C   0  0  0  0  0  0  0  0  0  0  0  0
    2.8687    0.7840    0.0343 C   0  0  0  0  0  0  0  0  0  0  0  0
    1.7290    0.1841   -0.4347 C   0  0  0  0  0  0  0  0  0  0  0  0
    0.5166    0.9264   -0.5761 N   0  0  0  0  0  0  0  0  0  0  0  0
   -0.6871    0.0705   -1.1381 C   0  0  2  0  0  0  0  0  0  0  0  0
   -1.8033    1.2339   -1.1398 C   0  0  0  0  0  0  0  0  0  0  0  0
   -2.5677    1.2906   -2.2849 C   0  0  0  0  0  0  0  0  0  0  0  0
   -3.5389    2.2690   -2.3445 C   0  0  0  0  0  0  0  0  0  0  0  0
   -3.7313    3.1480   -1.3019 C   0  0  0  0  0  0  0  0  0  0  0  0
   -4.7088    4.1467   -1.3408 O   0  0  0  0  0  0  0  0  0  0  0  0
   -5.5580    4.3146   -2.4518 C   0  0  0  0  0  0  0  0  0  0  0  0
   -2.9337    3.0300   -0.1977 C   0  0  0  0  0  0  0  0  0  0  0  0
   -3.1144    3.9073    0.8612 O   0  0  0  0  0  0  0  0  0  0  0  0
   -2.3159    3.8336    2.0380 C   0  0  0  0  0  0  0  0  0  0  0  0
   -1.9639    2.0561   -0.1332 C   0  0  0  0  0  0  0  0  0  0  0  0
   -1.1342   -0.5438    0.2819 C   0  0  0  0  0  0  0  0  0  0  0  0
   -0.8985   -0.0682    1.4977 C   0  0  0  0  0  0  0  0  0  0  0  0
   -0.1311    1.1562    1.8432 C   0  0  0  0  0  0  0  0  0  0  0  0
   -1.4825   -0.9189    2.3700 N   0  0  0  0  0  0  0  0  0  0  0  0
   -2.0756   -1.9168    1.6773 C   0  0  0  0  0  0  0  0  0  0  0  0
   -2.8004   -3.0311    2.0775 C   0  0  0  0  0  0  0  0  0  0  0  0
   -3.3130   -3.9200    1.1676 C   0  0  0  0  0  0  0  0  0  0  0  0
   -3.0935   -3.6850   -0.1614 C   0  0  0  0  0  0  0  0  0  0  0  0
   -2.3739   -2.5834   -0.6102 C   0  0  0  0  0  0  0  0  0  0  0  0
   -1.8713   -1.7076    0.3300 C   0  0  0  0  0  0  0  0  0  0  0  0
    1.8166   -1.1504   -0.7561 C   0  0  0  0  0  0  0  0  0  0  0  0
    3.0196   -1.8370   -0.6027 C   0  0  0  0  0  0  0  0  0  0  0  0
  1  2  1  0
  2  3  1  0
  3  4  1  0
  4  5  2  0
  4  6  1  0
  6  7  2  0
  7  8  1  0
  8  9  2  0
  9 10  1  0
 11 10  1  1
 11 12  1  0
 12 13  2  0
 13 14  1  0
 14 15  2  0
 15 16  1  0
 16 17  1  0
 15 18  1  0
 18 19  1  0
 19 20  1  0
 18 21  2  0
 11 22  1  0
 22 23  2  0
 23 24  1  0
 23 25  1  0
 25 26  1  0
 26 27  2  0
 27 28  1  0
 28 29  2  0
 29 30  1  0
 30 31  2  0
  9 32  1  0
 32 33  2  0
 33  6  1  0
 21 12  1  0
 31 22  1  0
 31 26  1  0
M  END
>  <zinc_id>  (1) 
ZINC000000956923

>  <smiles>  (1) 
CCOC(=O)c1ccc(N[C@H](c2ccc(OC)c(OC)c2)c2c(C)[nH]c3ccccc23)cc1

$$$$
