
     RDKit          3D

 33 35  0  0  0  0  0  0  0  0999 V2000
   -6.0219   -5.4976    0.8116 C   0  0  0  0  0  0  0  0  0  0  0  0
   -5.7825   -4.2867    0.0966 O   0  0  0  0  0  0  0  0  0  0  0  0
   -4.5320   -3.7012    0.1283 C   0  0  0  0  0  0  0  0  0  0  0  0
   -4.2909   -2.5114   -0.5679 C   0  0  0  0  0  0  0  0  0  0  0  0
   -3.0163   -1.9677   -0.5034 C   0  0  0  0  0  0  0  0  0  0  0  0
   -1.9608   -2.4953    0.1902 C   0  0  0  0  0  0  0  0  0  0  0  0
   -0.6350   -1.9412    0.2871 C   0  0  0  0  0  0  0  0  0  0  0  0
   -0.3019   -0.7040    0.6090 C   0  0  0  0  0  0  0  0  0  0  0  0
    1.0993   -0.4643    0.6171 N   0  0  0  0  0  0  0  0  0  0  0  0
    1.7917    0.4404   -0.1990 C   0  0  0  0  0  0  0  0  0  0  0  0
    1.2323    1.1586   -1.0422 O   0  0  0  0  0  0  0  0  0  0  0  0
    3.2561    0.5060   -0.0163 C   0  0  0  0  0  0  0  0  0  0  0  0
    3.8728    0.3468    1.2022 C   0  0  0  0  0  0  0  0  0  0  0  0
    5.2579    0.3614    1.3353 C   0  0  0  0  0  0  0  0  0  0  0  0
    6.0093    0.5504    0.1705 C   0  0  0  0  0  0  0  0  0  0  0  0
    7.4782    0.5572    0.3213 C   0  0  0  0  0  0  0  0  0  0  0  0
    7.8478   -0.7758    1.0078 C   0  0  0  0  0  0  0  0  0  0  0  0
    8.1055    0.5577   -1.0550 C   0  0  0  0  0  0  0  0  0  0  0  0
    7.9234    1.7240    1.1420 C   0  0  0  0  0  0  0  0  0  0  0  0
    5.4173    0.7138   -1.0492 C   0  0  0  0  0  0  0  0  0  0  0  0
    4.0240    0.6919   -1.1455 C   0  0  0  0  0  0  0  0  0  0  0  0
   -1.3054    0.2296    1.0093 C   0  0  0  0  0  0  0  0  0  0  0  0
   -2.5359   -0.1104    1.0975 O   0  0  0  0  0  0  0  0  0  0  0  0
   -1.1097    1.6012    1.3577 N   0  0  0  0  0  0  0  0  0  0  0  0
   -2.1665    2.4691    1.7666 C   0  0  0  0  0  0  0  0  0  0  0  0
   -3.0980    2.9392    0.7626 C   0  0  0  0  0  0  0  0  0  0  0  0
   -2.7068    3.8357   -0.1925 C   0  0  0  0  0  0  0  0  0  0  0  0
   -3.5547    4.3142   -1.1594 C   0  0  0  0  0  0  0  0  0  0  0  0
   -4.8452    3.8891   -1.1908 C   0  0  0  0  0  0  0  0  0  0  0  0
   -5.2987    2.9927   -0.2665 C   0  0  0  0  0  0  0  0  0  0  0  0
   -4.4258    2.5296    0.6973 C   0  0  0  0  0  0  0  0  0  0  0  0
   -2.2377   -3.6980    0.8813 C   0  0  0  0  0  0  0  0  0  0  0  0
   -3.4901   -4.2551    0.8315 C   0  0  0  0  0  0  0  0  0  0  0  0
  1  2  1  0
  2  3  1  0
  3  4  2  0
  4  5  1  0
  5  6  2  0
  6  7  1  0
  7  8  2  0
  8  9  1  0
  9 10  1  0
 10 11  2  0
 10 12  1  0
 12 13  2  0
 13 14  1  0
 14 15  2  0
 15 16  1  0
 16 17  1  0
 16 18  1  0
 16 19  1  0
 15 20  1  0
 20 21  2  0
  8 22  1  0
 22 23  2  0
 22 24  1  0
 24 25  1  0
 25 26  1  0
 26 27  2  0
 27 28  1  0
 28 29  2  0
 29 30  1  0
 30 31  2  0
  6 32  1  0
 32 33  2  0
 33  3  1  0
 21 12  1  0
 31 26  1  0
M  END
>  <zinc_id>  (1) 
ZINC000002995771

>  <smiles>  (1) 
COc1ccc(/C=C(/NC(=O)c2ccc(C(C)(C)C)cc2)C(=O)NCc2ccccc2)cc1

$$$$
