
     RDKit          3D

 33 36  0  0  0  0  0  0  0  0999 V2000
   -8.2595   -1.3836   -3.6948 C   0  0  0  0  0  0  0  0  0  0  0  0
   -7.3255   -1.3902   -2.4989 C   0  0  0  0  0  0  0  0  0  0  0  0
   -6.0301   -2.1376   -3.1939 C   0  0  1  0  0  0  0  0  0  0  0  0
   -5.8554   -0.9866   -4.3193 C   0  0  0  0  0  0  0  0  0  0  0  0
   -4.9923   -1.6261   -2.1251 C   0  0  0  0  0  0  0  0  0  0  0  0
   -4.9707   -2.1155   -0.8693 C   0  0  0  0  0  0  0  0  0  0  0  0
   -4.0405   -1.6469    0.0430 C   0  0  0  0  0  0  0  0  0  0  0  0
   -3.1006   -0.6867   -0.2362 C   0  0  0  0  0  0  0  0  0  0  0  0
   -2.1380   -0.2023    0.6977 N   0  0  0  0  0  0  0  0  0  0  0  0
   -2.4238    0.4145    1.9386 C   0  0  0  0  0  0  0  0  0  0  0  0
   -3.6690    0.5247    2.2061 O   0  0  0  0  0  0  0  0  0  0  0  0
   -1.4580    0.8877    2.8448 N   0  0  0  0  0  0  0  0  0  0  0  0
   -0.1982    0.7637    2.5505 C   0  0  0  0  0  0  0  0  0  0  0  0
    0.7694    1.2361    3.4483 O   0  0  0  0  0  0  0  0  0  0  0  0
    0.2984    0.1588    1.3286 C   0  0  0  0  0  0  0  0  0  0  0  0
    1.5529   -0.0203    1.0170 C   0  0  0  0  0  0  0  0  0  0  0  0
    2.6267    0.3678    1.8870 C   0  0  0  0  0  0  0  0  0  0  0  0
    2.8315   -0.0936    3.1938 C   0  0  0  0  0  0  0  0  0  0  0  0
    3.9543    0.4903    3.7289 C   0  0  0  0  0  0  0  0  0  0  0  0
    4.4212    1.3093    2.7237 C   0  0  0  0  0  0  0  0  0  0  0  0
    3.6358    1.2298    1.6497 N   0  0  0  0  0  0  0  0  0  0  0  0
    3.7955    1.9332    0.4127 C   0  0  0  0  0  0  0  0  0  0  0  0
    4.6286    1.2135   -0.5846 C   0  0  0  0  0  0  0  0  0  0  0  0
    4.0494    0.5876   -1.6558 C   0  0  0  0  0  0  0  0  0  0  0  0
    4.7542   -0.0875   -2.6167 C   0  0  0  0  0  0  0  0  0  0  0  0
    6.1307   -0.1398   -2.4975 C   0  0  0  0  0  0  0  0  0  0  0  0
    6.7228    0.4868   -1.4223 C   0  0  0  0  0  0  0  0  0  0  0  0
    5.9957    1.1585   -0.4707 C   0  0  0  0  0  0  0  0  0  0  0  0
    6.6945    1.8236    0.6870 C   0  0  0  0  0  0  0  0  0  0  0  0
   -0.7664   -0.3270    0.3984 C   0  0  0  0  0  0  0  0  0  0  0  0
   -0.3821   -0.8519   -0.6634 O   0  0  0  0  0  0  0  0  0  0  0  0
   -3.1700   -0.2239   -1.5332 C   0  0  0  0  0  0  0  0  0  0  0  0
   -4.0813   -0.6663   -2.4682 C   0  0  0  0  0  0  0  0  0  0  0  0
  1  2  1  0
  2  3  1  0
  3  4  1  6
  3  5  1  0
  5  6  2  0
  6  7  1  0
  7  8  2  0
  8  9  1  0
  9 10  1  0
 10 11  2  0
 10 12  1  0
 12 13  2  0
 13 14  1  0
 13 15  1  0
 15 16  2  0
 16 17  1  0
 17 18  2  0
 18 19  1  0
 19 20  2  0
 20 21  1  0
 21 22  1  0
 22 23  1  0
 23 24  2  0
 24 25  1  0
 25 26  2  0
 26 27  1  0
 27 28  2  0
 28 29  1  0
 15 30  1  0
 30 31  2  0
  8 32  1  0
 32 33  2  0
 33  5  1  0
 30  9  1  0
 21 17  1  0
 28 23  1  0
M  END
>  <zinc_id>  (1) 
ZINC000002220011

>  <smiles>  (1) 
CC[C@@H](C)c1ccc(N2C(=O)N=C(O)/C(=C\c3cccn3Cc3ccccc3C)C2=O)cc1

$$$$
