
     RDKit          3D

 30 32  0  0  0  0  0  0  0  0999 V2000
    9.5453   -0.9820   -0.3017 C   0  0  0  0  0  0  0  0  0  0  0  0
    8.1725   -0.3325   -0.1161 C   0  0  0  0  0  0  0  0  0  0  0  0
    8.0414    0.7272   -1.1809 C   0  0  0  0  0  0  0  0  0  0  0  0
    6.7010    1.4162   -1.0641 C   0  0  0  0  0  0  0  0  0  0  0  0
    6.5998    2.0731    0.2928 C   0  0  0  0  0  0  0  0  0  0  0  0
    5.3016    2.7732    0.4989 C   0  0  0  0  0  0  0  0  0  0  0  0
    4.1308    1.8634    0.4189 C   0  0  0  0  0  0  0  0  0  0  0  0
    4.3673    0.6345    0.2877 O   0  0  0  0  0  0  0  0  0  0  0  0
    2.7991    2.2796    0.4791 N   0  0  0  0  0  0  0  0  0  0  0  0
    1.6673    1.4252    0.4101 C   0  0  0  0  0  0  0  0  0  0  0  0
    1.8280    0.0519    0.3984 C   0  0  0  0  0  0  0  0  0  0  0  0
    0.7566   -0.8057    0.3227 C   0  0  0  0  0  0  0  0  0  0  0  0
   -0.5627   -0.3362    0.2521 C   0  0  0  0  0  0  0  0  0  0  0  0
   -1.6661   -1.3000    0.1695 C   0  0  0  0  0  0  0  0  0  0  0  0
   -1.3526   -2.5482    0.1938 O   0  0  0  0  0  0  0  0  0  0  0  0
   -3.0217   -0.9928    0.0654 N   0  0  0  0  0  0  0  0  0  0  0  0
   -3.5020    0.3299    0.0200 C   0  0  0  0  0  0  0  0  0  0  0  0
   -4.3276    0.8063    1.0453 C   0  0  0  0  0  0  0  0  0  0  0  0
   -4.7894    2.0754    0.9825 C   0  0  0  0  0  0  0  0  0  0  0  0
   -4.4760    2.9058   -0.0472 C   0  0  0  0  0  0  0  0  0  0  0  0
   -3.6737    2.4377   -1.0402 C   0  0  0  0  0  0  0  0  0  0  0  0
   -3.1648    1.1580   -1.0471 C   0  0  0  0  0  0  0  0  0  0  0  0
   -3.9612   -2.0747    0.0111 C   0  0  0  0  0  0  0  0  0  0  0  0
   -4.2357   -2.6837   -1.1929 C   0  0  0  0  0  0  0  0  0  0  0  0
   -5.1423   -3.7300   -1.1496 C   0  0  0  0  0  0  0  0  0  0  0  0
   -5.7314   -4.1340    0.0230 C   0  0  0  0  0  0  0  0  0  0  0  0
   -5.4426   -3.5078    1.2212 C   0  0  0  0  0  0  0  0  0  0  0  0
   -4.5325   -2.4495    1.2127 C   0  0  0  0  0  0  0  0  0  0  0  0
   -0.7047    1.0210    0.2652 C   0  0  0  0  0  0  0  0  0  0  0  0
    0.3763    1.8988    0.3424 C   0  0  0  0  0  0  0  0  0  0  0  0
  1  2  1  0
  2  3  1  0
  3  4  1  0
  4  5  1  0
  5  6  1  0
  6  7  1  0
  7  8  2  0
  7  9  1  0
  9 10  1  0
 10 11  2  0
 11 12  1  0
 12 13  2  0
 13 14  1  0
 14 15  2  0
 14 16  1  0
 16 17  1  0
 17 18  2  0
 18 19  1  0
 19 20  2  0
 20 21  1  0
 21 22  2  0
 16 23  1  0
 23 24  2  0
 24 25  1  0
 25 26  2  0
 26 27  1  0
 27 28  2  0
 13 29  1  0
 29 30  2  0
 30 10  1  0
 22 17  1  0
 28 23  1  0
M  END
>  <zinc_id>  (1) 
ZINC000003162711

>  <smiles>  (1) 
CCCCCCC(=O)Nc1ccc(C(=O)N(c2ccccc2)c2ccccc2)cc1

$$$$
