
     RDKit          3D

 33 36  0  0  0  0  0  0  0  0999 V2000
    1.0315   -5.3638   -0.6179 C   0  0  0  0  0  0  0  0  0  0  0  0
    0.4168   -4.1056   -0.4054 O   0  0  0  0  0  0  0  0  0  0  0  0
   -0.7382   -4.0663    0.3640 C   0  0  0  0  0  0  0  0  0  0  0  0
   -1.3076   -5.1764    0.9231 C   0  0  0  0  0  0  0  0  0  0  0  0
   -2.4579   -5.1318    1.6885 C   0  0  0  0  0  0  0  0  0  0  0  0
   -3.0219   -3.8868    1.8689 C   0  0  0  0  0  0  0  0  0  0  0  0
   -2.5127   -2.7224    1.3415 C   0  0  0  0  0  0  0  0  0  0  0  0
   -1.3448   -2.8427    0.5764 C   0  0  0  0  0  0  0  0  0  0  0  0
   -0.7559   -1.6899   -0.0029 N   0  0  0  0  0  0  0  0  0  0  0  0
   -1.2815   -0.7206   -0.8937 C   0  0  0  0  0  0  0  0  0  0  0  0
   -2.4832   -0.7728   -1.3321 O   0  0  0  0  0  0  0  0  0  0  0  0
   -0.2902    0.2734   -1.2025 C   0  0  0  0  0  0  0  0  0  0  0  0
   -0.4363    1.3801   -2.0405 N   0  0  0  0  0  0  0  0  0  0  0  0
   -1.3032    2.4694   -1.7271 C   0  0  0  0  0  0  0  0  0  0  0  0
   -2.0291    2.4481   -0.5627 C   0  0  0  0  0  0  0  0  0  0  0  0
   -2.8929    3.4666   -0.1865 C   0  0  0  0  0  0  0  0  0  0  0  0
   -3.0164    4.5481   -1.0375 C   0  0  0  0  0  0  0  0  0  0  0  0
   -3.9122    5.6833   -0.7241 C   0  0  0  0  0  0  0  0  0  0  0  0
   -5.3509    5.2197   -0.6911 C   0  0  0  0  0  0  0  0  0  0  0  0
   -3.5298    6.3753    0.5641 C   0  0  0  0  0  0  0  0  0  0  0  0
   -2.2927    4.5805   -2.2092 C   0  0  0  0  0  0  0  0  0  0  0  0
   -1.4409    3.5504   -2.5554 C   0  0  0  0  0  0  0  0  0  0  0  0
    0.8399   -0.0428   -0.5328 C   0  0  0  0  0  0  0  0  0  0  0  0
    2.3073    0.9194   -0.6309 S   0  0  0  0  0  0  0  0  0  0  0  0
    3.6319    0.3070    0.3281 C   0  0  0  0  0  0  0  0  0  0  0  0
    3.6704   -0.8017    1.1308 C   0  0  0  0  0  0  0  0  0  0  0  0
    4.7426   -1.2242    1.8544 C   0  0  0  0  0  0  0  0  0  0  0  0
    5.8940   -0.4465    1.7568 C   0  0  0  0  0  0  0  0  0  0  0  0
    7.1289   -0.8070    2.4999 C   0  0  0  0  0  0  0  0  0  0  0  0
    5.9212    0.6774    0.9692 C   0  0  0  0  0  0  0  0  0  0  0  0
    4.8324    1.0598    0.2676 C   0  0  0  0  0  0  0  0  0  0  0  0
    0.6064   -1.2503    0.2259 C   0  0  0  0  0  0  0  0  0  0  0  0
    1.3754   -1.9068    0.9928 O   0  0  0  0  0  0  0  0  0  0  0  0
  1  2  1  0
  2  3  1  0
  3  4  2  0
  4  5  1  0
  5  6  2  0
  6  7  1  0
  7  8  2  0
  8  9  1  0
  9 10  1  0
 10 11  2  0
 10 12  1  0
 12 13  1  0
 13 14  1  0
 14 15  2  0
 15 16  1  0
 16 17  2  0
 17 18  1  0
 18 19  1  0
 18 20  1  0
 17 21  1  0
 21 22  2  0
 12 23  2  0
 23 24  1  0
 24 25  1  0
 25 26  2  0
 26 27  1  0
 27 28  2  0
 28 29  1  0
 28 30  1  0
 30 31  2  0
 23 32  1  0
 32 33  2  0
  8  3  1  0
 32  9  1  0
 22 14  1  0
 31 25  1  0
M  END
>  <zinc_id>  (1) 
ZINC000001954393

>  <smiles>  (1) 
COc1ccccc1N1C(=O)C(Nc2ccc(C(C)C)cc2)=C(Sc2ccc(C)cc2)C1=O

$$$$
