
     RDKit          3D

 31 35  0  0  0  0  0  0  0  0999 V2000
   -2.2118   -1.7114   -1.6159 O   0  0  0  0  0  0  0  0  0  0  0  0
   -2.0483   -0.4786   -1.5182 C   0  0  0  0  0  0  0  0  0  0  0  0
   -0.8897    0.1153   -1.9993 N   0  0  0  0  0  0  0  0  0  0  0  0
    0.2572   -0.2660   -2.5997 C   0  0  0  0  0  0  0  0  0  0  0  0
    1.3018   -1.0567   -2.1365 C   0  0  0  0  0  0  0  0  0  0  0  0
    1.1970   -2.4011   -1.6796 C   0  0  0  0  0  0  0  0  0  0  0  0
    0.4304   -2.7867   -0.4840 C   0  0  0  0  0  0  0  0  0  0  0  0
    0.9540   -2.1498    0.6991 N   0  0  0  0  0  0  0  0  0  0  0  0
    0.7417   -0.7439    0.6972 C   0  0  0  0  0  0  0  0  0  0  0  0
    1.9094   -0.1004    1.4106 C   0  0  0  0  0  0  0  0  0  0  0  0
    3.0936   -0.3970    0.7024 N   0  0  0  0  0  0  0  0  0  0  0  0
    4.1596    0.5001    0.6627 C   0  0  0  0  0  0  0  0  0  0  0  0
    4.0115    1.8704    0.9163 C   0  0  0  0  0  0  0  0  0  0  0  0
    5.0496    2.7622    0.8804 C   0  0  0  0  0  0  0  0  0  0  0  0
    6.3067    2.3219    0.5845 C   0  0  0  0  0  0  0  0  0  0  0  0
    6.4839    0.9900    0.3320 C   0  0  0  0  0  0  0  0  0  0  0  0
    5.4644    0.0993    0.3649 C   0  0  0  0  0  0  0  0  0  0  0  0
    5.7230   -1.3303    0.0823 C   0  0  0  0  0  0  0  0  0  0  0  0
    4.6325   -2.1711    0.7274 C   0  0  0  0  0  0  0  0  0  0  0  0
    3.2494   -1.7300   -0.0523 C   0  0  1  0  0  0  0  0  0  0  0  0
    2.2925   -2.5702    1.0296 C   0  0  0  0  0  0  0  0  0  0  0  0
   -3.0946    0.3125   -0.8922 C   0  0  0  0  0  0  0  0  0  0  0  0
   -2.9798    1.6770   -0.6892 C   0  0  0  0  0  0  0  0  0  0  0  0
   -3.9776    2.4260   -0.0926 C   0  0  0  0  0  0  0  0  0  0  0  0
   -5.1387    1.8212    0.3253 C   0  0  0  0  0  0  0  0  0  0  0  0
   -6.1522    2.5271    0.9217 C   0  0  0  0  0  0  0  0  0  0  0  0
   -7.2889    1.9025    1.3252 C   0  0  0  0  0  0  0  0  0  0  0  0
   -7.4659    0.5455    1.1520 C   0  0  0  0  0  0  0  0  0  0  0  0
   -6.4548   -0.1533    0.5580 C   0  0  0  0  0  0  0  0  0  0  0  0
   -5.2885    0.4490    0.1370 C   0  0  0  0  0  0  0  0  0  0  0  0
   -4.2673   -0.2736   -0.4655 C   0  0  0  0  0  0  0  0  0  0  0  0
  1  2  2  0
  2  3  1  0
  3  4  1  0
  4  5  1  0
  5  6  1  0
  6  7  1  0
  7  8  1  0
  8  9  1  0
  9 10  1  0
 10 11  1  0
 11 12  1  0
 12 13  2  0
 13 14  1  0
 14 15  2  0
 15 16  1  0
 16 17  2  0
 17 18  1  0
 18 19  1  0
 20 19  1  1
 20 21  1  0
  2 22  1  0
 22 23  2  0
 23 24  1  0
 24 25  2  0
 25 26  1  0
 26 27  2  0
 27 28  1  0
 28 29  2  0
 29 30  1  0
 30 31  2  0
 21  8  1  0
 31 22  1  0
 20 11  1  0
 30 25  1  0
 17 12  1  0
M  END
>  <zinc_id>  (1) 
ZINC000001554005

>  <smiles>  (1) 
O=C(NCCCCN1CCN2c3ccccc3CC[C@H]2C1)c1ccc2ccccc2c1

$$$$
