
     RDKit          3D

 29 32  0  0  0  0  0  0  0  0999 V2000
    7.6727   -1.4520    0.8057 C   0  0  0  0  0  0  0  0  0  0  0  0
    6.9084   -1.0905   -0.3718 N   0  0  0  0  0  0  0  0  0  0  0  0
    7.4590   -1.7821   -1.5360 C   0  0  0  0  0  0  0  0  0  0  0  0
    5.5209   -1.4381   -0.1701 C   0  0  0  0  0  0  0  0  0  0  0  0
    4.6853   -1.0832   -1.3636 C   0  0  0  0  0  0  0  0  0  0  0  0
    4.7337    0.4149   -1.6711 C   0  0  0  0  0  0  0  0  0  0  0  0
    4.2465    1.1455   -0.5596 O   0  0  0  0  0  0  0  0  0  0  0  0
    2.9610    0.9598   -0.0917 C   0  0  0  0  0  0  0  0  0  0  0  0
    2.5278    1.6946    0.9961 C   0  0  0  0  0  0  0  0  0  0  0  0
    1.2436    1.5031    1.4565 C   0  0  0  0  0  0  0  0  0  0  0  0
    0.4232    0.5879    0.8258 C   0  0  0  0  0  0  0  0  0  0  0  0
   -0.9088    0.4344    1.3560 N   0  0  0  0  0  0  0  0  0  0  0  0
   -1.7382   -0.6361    0.5367 C   0  0  1  0  0  0  0  0  0  0  0  0
   -3.0911   -0.5690    1.3299 C   0  0  0  0  0  0  0  0  0  0  0  0
   -3.0488    0.1843    2.4418 C   0  0  0  0  0  0  0  0  0  0  0  0
   -4.1665    0.3570    3.2758 C   0  0  0  0  0  0  0  0  0  0  0  0
   -5.3184   -0.2775    2.9124 C   0  0  0  0  0  0  0  0  0  0  0  0
   -5.3747   -1.0447    1.7866 C   0  0  0  0  0  0  0  0  0  0  0  0
   -4.2327   -1.2024    0.9628 C   0  0  0  0  0  0  0  0  0  0  0  0
   -4.6510   -2.0829   -0.1467 C   0  0  0  0  0  0  0  0  0  0  0  0
   -4.0896   -1.5642   -1.7599 S   0  0  0  0  0  0  0  0  0  0  0  0
   -3.1087   -0.0435   -1.6142 C   0  0  0  0  0  0  0  0  0  0  0  0
   -3.4188    0.8424   -2.6435 C   0  0  0  0  0  0  0  0  0  0  0  0
   -2.7539    2.0511   -2.6751 C   0  0  0  0  0  0  0  0  0  0  0  0
   -1.8044    2.3805   -1.7142 C   0  0  0  0  0  0  0  0  0  0  0  0
   -1.5306    1.4740   -0.7158 C   0  0  0  0  0  0  0  0  0  0  0  0
   -2.1699    0.3123   -0.6857 C   0  0  0  0  0  0  0  0  0  0  0  0
    0.8810   -0.1294   -0.2547 C   0  0  0  0  0  0  0  0  0  0  0  0
    2.1431    0.0541   -0.7126 C   0  0  0  0  0  0  0  0  0  0  0  0
  1  2  1  0
  2  3  1  0
  2  4  1  0
  4  5  1  0
  5  6  1  0
  6  7  1  0
  7  8  1  0
  8  9  2  0
  9 10  1  0
 10 11  2  0
 11 12  1  0
 13 12  1  1
 13 14  1  0
 14 15  2  0
 15 16  1  0
 16 17  2  0
 17 18  1  0
 18 19  2  0
 19 20  1  0
 20 21  1  0
 21 22  1  0
 22 23  2  0
 23 24  1  0
 24 25  2  0
 25 26  1  0
 26 27  2  0
 11 28  1  0
 28 29  2  0
 29  8  1  0
 27 13  1  0
 19 14  1  0
 27 22  1  0
M  END
>  <zinc_id>  (1) 
ZINC000002049812

>  <smiles>  (1) 
CN(C)CCCOc1ccc(N[C@H]2c3ccccc3CSc3ccccc32)cc1

$$$$
