
     RDKit          3D

 30 33  0  0  0  0  0  0  0  0999 V2000
    6.4664   -2.7014   -1.5565 C   0  0  0  0  0  0  0  0  0  0  0  0
    6.2895   -1.7429   -0.3853 C   0  0  0  0  0  0  0  0  0  0  0  0
    4.9367   -1.4973   -0.1526 O   0  0  0  0  0  0  0  0  0  0  0  0
    3.9916   -2.4493    0.1680 C   0  0  0  0  0  0  0  0  0  0  0  0
    4.3589   -3.6453    0.2637 O   0  0  0  0  0  0  0  0  0  0  0  0
    2.5854   -2.1092    0.3980 C   0  0  0  0  0  0  0  0  0  0  0  0
    1.3140   -3.1686    0.7982 S   0  0  0  0  0  0  0  0  0  0  0  0
    0.0321   -2.0474    0.8937 C   0  0  0  0  0  0  0  0  0  0  0  0
   -1.2990   -2.1712    1.1740 N   0  0  0  0  0  0  0  0  0  0  0  0
   -2.1003   -1.0725    1.1778 C   0  0  0  0  0  0  0  0  0  0  0  0
   -3.5165   -1.2752    1.4860 C   0  0  0  0  0  0  0  0  0  0  0  0
   -4.3033   -1.5383    0.2608 C   0  0  0  0  0  0  0  0  0  0  0  0
   -4.8375   -0.4297   -0.3860 C   0  0  0  0  0  0  0  0  0  0  0  0
   -5.5724   -0.5830   -1.5171 C   0  0  0  0  0  0  0  0  0  0  0  0
   -5.8025   -1.8545   -2.0472 C   0  0  0  0  0  0  0  0  0  0  0  0
   -5.2851   -2.9594   -1.4251 C   0  0  0  0  0  0  0  0  0  0  0  0
   -4.5396   -2.7660   -0.2722 C   0  0  0  0  0  0  0  0  0  0  0  0
   -1.5131    0.0762    0.9002 N   0  0  0  0  0  0  0  0  0  0  0  0
   -0.2160    0.2655    0.6173 C   0  0  0  0  0  0  0  0  0  0  0  0
    0.2661    1.5699    0.3386 N   0  0  0  0  0  0  0  0  0  0  0  0
   -0.6570    2.6704    0.3661 C   0  0  0  0  0  0  0  0  0  0  0  0
   -0.0060    3.9638    0.0556 C   0  0  0  0  0  0  0  0  0  0  0  0
    1.3419    3.9550   -0.2093 C   0  0  0  0  0  0  0  0  0  0  0  0
    2.0035    5.1236   -0.5043 C   0  0  0  0  0  0  0  0  0  0  0  0
    1.3419    6.3234   -0.5425 C   0  0  0  0  0  0  0  0  0  0  0  0
   -0.0109    6.3205   -0.2751 C   0  0  0  0  0  0  0  0  0  0  0  0
   -0.6777    5.1565    0.0204 C   0  0  0  0  0  0  0  0  0  0  0  0
    0.6422   -0.8566    0.6056 C   0  0  0  0  0  0  0  0  0  0  0  0
    1.9603   -0.8898    0.3499 C   0  0  0  0  0  0  0  0  0  0  0  0
    2.8064    0.3327    0.0108 C   0  0  0  0  0  0  0  0  0  0  0  0
  1  2  1  0
  2  3  1  0
  3  4  1  0
  4  5  2  0
  4  6  1  0
  6  7  1  0
  7  8  1  0
  8  9  2  0
  9 10  1  0
 10 11  1  0
 11 12  1  0
 12 13  2  0
 13 14  1  0
 14 15  2  0
 15 16  1  0
 16 17  2  0
 10 18  2  0
 18 19  1  0
 19 20  1  0
 20 21  1  0
 21 22  1  0
 22 23  2  0
 23 24  1  0
 24 25  2  0
 25 26  1  0
 26 27  2  0
 19 28  2  0
 28 29  1  0
 29 30  1  0
 29  6  2  0
 28  8  1  0
 17 12  1  0
 27 22  1  0
M  END
>  <zinc_id>  (1) 
ZINC000002910571

>  <smiles>  (1) 
CCOC(=O)c1sc2nc(Cc3ccccc3)nc(NCc3ccccc3)c2c1C

$$$$
