
     RDKit          3D

 30 33  0  0  0  0  0  0  0  0999 V2000
   -3.4887   -1.5185    2.3203 C   0  0  0  0  0  0  0  0  0  0  0  0
   -4.1931   -2.0811    1.1016 C   0  0  0  0  0  0  0  0  0  0  0  0
   -3.1419   -2.4739    0.0840 C   0  0  0  0  0  0  0  0  0  0  0  0
   -3.7375   -3.0395   -1.1576 C   0  0  0  0  0  0  0  0  0  0  0  0
   -2.6885   -3.4155   -2.1359 C   0  0  0  0  0  0  0  0  0  0  0  0
   -1.8753   -2.3059   -2.6115 C   0  0  0  0  0  0  0  0  0  0  0  0
   -1.1560   -1.5499   -1.6312 N   0  0  0  0  0  0  0  0  0  0  0  0
    0.0732   -1.8920   -1.1428 C   0  0  0  0  0  0  0  0  0  0  0  0
    0.7946   -3.0639   -1.5067 N   0  0  0  0  0  0  0  0  0  0  0  0
    0.4201   -0.8889   -0.2678 C   0  0  0  0  0  0  0  0  0  0  0  0
    1.6569   -0.8301    0.4947 C   0  0  0  0  0  0  0  0  0  0  0  0
    2.5246   -1.7522    0.3863 O   0  0  0  0  0  0  0  0  0  0  0  0
    1.9765    0.2212    1.3837 N   0  0  0  0  0  0  0  0  0  0  0  0
    3.2072    0.2843    2.1460 C   0  0  0  0  0  0  0  0  0  0  0  0
    4.3753    0.6786    1.3460 C   0  0  0  0  0  0  0  0  0  0  0  0
    4.7098    2.0037    1.2131 C   0  0  0  0  0  0  0  0  0  0  0  0
    5.8171    2.3971    0.4570 C   0  0  0  0  0  0  0  0  0  0  0  0
    6.5891    1.4306   -0.1688 C   0  0  0  0  0  0  0  0  0  0  0  0
    6.2600    0.1025   -0.0399 C   0  0  0  0  0  0  0  0  0  0  0  0
    5.1484   -0.2635    0.7217 C   0  0  0  0  0  0  0  0  0  0  0  0
   -0.5714    0.0729   -0.2026 C   0  0  0  0  0  0  0  0  0  0  0  0
   -0.7276    1.2309    0.4706 N   0  0  0  0  0  0  0  0  0  0  0  0
   -1.8160    2.0029    0.3392 C   0  0  0  0  0  0  0  0  0  0  0  0
   -1.9919    3.1856    1.0171 C   0  0  0  0  0  0  0  0  0  0  0  0
   -3.1255    3.9683    0.8658 C   0  0  0  0  0  0  0  0  0  0  0  0
   -4.1115    3.5374   -0.0008 C   0  0  0  0  0  0  0  0  0  0  0  0
   -3.9371    2.3495   -0.6829 C   0  0  0  0  0  0  0  0  0  0  0  0
   -2.7970    1.5702   -0.5254 C   0  0  0  0  0  0  0  0  0  0  0  0
   -2.6407    0.4171   -1.1949 N   0  0  0  0  0  0  0  0  0  0  0  0
   -1.5531   -0.3779   -1.0782 C   0  0  0  0  0  0  0  0  0  0  0  0
  1  2  1  0
  2  3  1  0
  3  4  1  0
  4  5  1  0
  5  6  1  0
  6  7  1  0
  7  8  1  0
  8  9  1  0
  8 10  2  0
 10 11  1  0
 11 12  2  0
 11 13  1  0
 13 14  1  0
 14 15  1  0
 15 16  2  0
 16 17  1  0
 17 18  2  0
 18 19  1  0
 19 20  2  0
 10 21  1  0
 21 22  2  0
 22 23  1  0
 23 24  2  0
 24 25  1  0
 25 26  2  0
 26 27  1  0
 27 28  2  0
 28 29  1  0
 29 30  2  0
 30  7  1  0
 20 15  1  0
 30 21  1  0
 28 23  1  0
M  END
>  <zinc_id>  (1) 
ZINC000002299392

>  <smiles>  (1) 
CCCCCCn1c(N)c(C(=O)NCc2ccccc2)c2nc3ccccc3nc21

$$$$
