
     RDKit          3D

 31 34  0  0  0  0  0  0  0  0999 V2000
   -3.1841   -6.2672   -0.4209 C   0  0  0  0  0  0  0  0  0  0  0  0
   -3.1553   -4.7938   -0.1541 C   0  0  0  0  0  0  0  0  0  0  0  0
   -3.2460   -3.8823   -1.1795 C   0  0  0  0  0  0  0  0  0  0  0  0
   -3.2184   -2.5109   -0.9281 C   0  0  0  0  0  0  0  0  0  0  0  0
   -3.1003   -2.0123    0.3437 C   0  0  0  0  0  0  0  0  0  0  0  0
   -3.0710   -0.2570    0.6367 S   0  0  0  0  0  0  0  0  0  0  0  0
   -1.3831    0.3085    0.5836 C   0  0  0  0  0  0  0  0  0  0  0  0
   -1.0368    1.5760    0.8092 C   0  0  0  0  0  0  0  0  0  0  0  0
   -1.9367    2.6585    1.1216 N   0  0  0  0  0  0  0  0  0  0  0  0
   -2.1177    3.7376    0.2124 C   0  0  0  0  0  0  0  0  0  0  0  0
   -1.3734    3.7360   -0.9470 C   0  0  0  0  0  0  0  0  0  0  0  0
   -1.4807    4.7350   -1.8898 C   0  0  0  0  0  0  0  0  0  0  0  0
   -2.3678    5.7693   -1.6549 C   0  0  0  0  0  0  0  0  0  0  0  0
   -3.1055    5.7600   -0.4932 C   0  0  0  0  0  0  0  0  0  0  0  0
   -2.9991    4.7640    0.4476 C   0  0  0  0  0  0  0  0  0  0  0  0
    0.4053    1.6428    0.6820 C   0  0  0  0  0  0  0  0  0  0  0  0
    1.1025    2.7011    0.8310 O   0  0  0  0  0  0  0  0  0  0  0  0
    0.9093    0.3757    0.3729 N   0  0  0  0  0  0  0  0  0  0  0  0
    2.2502   -0.0616    0.1504 C   0  0  0  0  0  0  0  0  0  0  0  0
    3.0159   -0.3447    1.2596 C   0  0  0  0  0  0  0  0  0  0  0  0
    4.3337   -0.7809    1.1559 C   0  0  0  0  0  0  0  0  0  0  0  0
    4.8510   -0.9209   -0.1130 C   0  0  0  0  0  0  0  0  0  0  0  0
    6.2412   -1.3787   -0.3451 C   0  0  0  0  0  0  0  0  0  0  0  0
    6.3539   -2.3256   -1.5149 C   0  0  0  0  0  0  0  0  0  0  0  0
    6.8875   -1.9177    0.9097 C   0  0  0  0  0  0  0  0  0  0  0  0
    4.0726   -0.6335   -1.2100 C   0  0  0  0  0  0  0  0  0  0  0  0
    2.7737   -0.2037   -1.1131 C   0  0  0  0  0  0  0  0  0  0  0  0
   -0.2207   -0.4980    0.3047 C   0  0  0  0  0  0  0  0  0  0  0  0
   -0.1574   -1.7470    0.0425 O   0  0  0  0  0  0  0  0  0  0  0  0
   -3.0074   -2.9325    1.3889 C   0  0  0  0  0  0  0  0  0  0  0  0
   -3.0356   -4.2960    1.1310 C   0  0  0  0  0  0  0  0  0  0  0  0
  1  2  1  0
  2  3  2  0
  3  4  1  0
  4  5  2  0
  5  6  1  0
  6  7  1  0
  7  8  2  0
  8  9  1  0
  9 10  1  0
 10 11  2  0
 11 12  1  0
 12 13  2  0
 13 14  1  0
 14 15  2  0
  8 16  1  0
 16 17  2  0
 16 18  1  0
 18 19  1  0
 19 20  2  0
 20 21  1  0
 21 22  2  0
 22 23  1  0
 23 24  1  0
 23 25  1  0
 22 26  1  0
 26 27  2  0
 18 28  1  0
 28 29  2  0
  5 30  1  0
 30 31  2  0
 31  2  1  0
 28  7  1  0
 15 10  1  0
 27 19  1  0
M  END
>  <zinc_id>  (1) 
ZINC000001954969

>  <smiles>  (1) 
Cc1ccc(SC2=C(Nc3ccccc3)C(=O)N(c3ccc(C(C)C)cc3)C2=O)cc1

$$$$
