
     RDKit          3D

 30 32  0  0  0  0  0  0  0  0999 V2000
   -9.2866    0.7177   -1.5444 C   0  0  0  0  0  0  0  0  0  0  0  0
   -8.3263   -0.2873   -1.0543 C   0  0  0  0  0  0  0  0  0  0  0  0
   -8.8079   -1.3933   -0.4028 C   0  0  0  0  0  0  0  0  0  0  0  0
   -7.9023   -2.3285    0.0523 C   0  0  0  0  0  0  0  0  0  0  0  0
   -8.3444   -3.5651    0.7739 C   0  0  0  0  0  0  0  0  0  0  0  0
   -6.5717   -2.1941   -0.1195 N   0  0  0  0  0  0  0  0  0  0  0  0
   -6.1132   -1.1001   -0.7626 C   0  0  0  0  0  0  0  0  0  0  0  0
   -4.3957   -0.8322   -1.0377 S   0  0  0  0  0  0  0  0  0  0  0  0
   -3.6184    0.1151    0.3970 C   0  0  2  0  0  0  0  0  0  0  0  0
   -4.3660    1.5013    0.2334 C   0  0  0  0  0  0  0  0  0  0  0  0
   -2.2970    0.5576   -0.2610 C   0  0  0  0  0  0  0  0  0  0  0  0
   -1.9648    0.3039   -1.4117 O   0  0  0  0  0  0  0  0  0  0  0  0
   -1.3833    1.3226    0.5225 N   0  0  0  0  0  0  0  0  0  0  0  0
   -0.1746    1.8069    0.1331 N   0  0  0  0  0  0  0  0  0  0  0  0
    0.9787    1.7907    0.2052 C   0  0  0  0  0  0  0  0  0  0  0  0
    2.2049    1.3132    0.7090 C   0  0  0  0  0  0  0  0  0  0  0  0
    3.4431    1.8147    0.3083 C   0  0  0  0  0  0  0  0  0  0  0  0
    4.6280    1.3409    0.8088 C   0  0  0  0  0  0  0  0  0  0  0  0
    4.6714    0.3354    1.7427 C   0  0  0  0  0  0  0  0  0  0  0  0
    5.8222   -0.1863    2.2860 O   0  0  0  0  0  0  0  0  0  0  0  0
    7.1375    0.2105    1.9860 C   0  0  0  0  0  0  0  0  0  0  0  0
    7.4065   -0.0032    0.5484 C   0  0  0  0  0  0  0  0  0  0  0  0
    7.2381    1.0209   -0.3534 C   0  0  0  0  0  0  0  0  0  0  0  0
    7.4859    0.8442   -1.7156 C   0  0  0  0  0  0  0  0  0  0  0  0
    7.9020   -0.3775   -2.1337 C   0  0  0  0  0  0  0  0  0  0  0  0
    8.0868   -1.4368   -1.2753 C   0  0  0  0  0  0  0  0  0  0  0  0
    7.8309   -1.2215    0.0664 C   0  0  0  0  0  0  0  0  0  0  0  0
    3.4446   -0.1851    2.1614 C   0  0  0  0  0  0  0  0  0  0  0  0
    2.2669    0.3024    1.6488 C   0  0  0  0  0  0  0  0  0  0  0  0
   -6.9952   -0.1871   -1.2071 N   0  0  0  0  0  0  0  0  0  0  0  0
  1  2  1  0
  2  3  2  0
  3  4  1  0
  4  5  1  0
  4  6  2  0
  6  7  1  0
  7  8  1  0
  8  9  1  0
  9 10  1  6
  9 11  1  0
 11 12  2  0
 11 13  1  0
 13 14  1  0
 14 15  2  0
 15 16  1  0
 16 17  2  0
 17 18  1  0
 18 19  2  0
 19 20  1  0
 20 21  1  0
 21 22  1  0
 22 23  2  0
 23 24  1  0
 24 25  2  0
 25 26  1  0
 26 27  2  0
 19 28  1  0
 28 29  2  0
  7 30  2  0
 30  2  1  0
 29 16  1  0
 27 22  1  0
M  END
>  <zinc_id>  (1) 
ZINC000001058696

>  <smiles>  (1) 
Cc1cc(C)nc(S[C@H](C)C(=O)N/N=C/c2ccc(OCc3ccccc3)cc2)n1

$$$$
