
     RDKit          3D

 30 32  0  0  0  0  0  0  0  0999 V2000
   -9.7741    0.4375   -1.4399 C   0  0  0  0  0  0  0  0  0  0  0  0
   -8.4746    1.2229   -1.2165 C   0  0  0  0  0  0  0  0  0  0  0  0
   -7.9567    0.4966    0.1985 C   0  0  1  0  0  0  0  0  0  0  0  0
   -7.8882   -0.9892   -0.5299 C   0  0  0  0  0  0  0  0  0  0  0  0
   -6.4489    0.9489    0.0009 C   0  0  0  0  0  0  0  0  0  0  0  0
   -5.5223   -0.0208    0.3187 C   0  0  0  0  0  0  0  0  0  0  0  0
   -4.1486    0.2505    0.1882 C   0  0  0  0  0  0  0  0  0  0  0  0
   -3.7093    1.4768   -0.2547 C   0  0  0  0  0  0  0  0  0  0  0  0
   -2.3078    1.7671   -0.3926 N   0  0  0  0  0  0  0  0  0  0  0  0
   -1.3173    0.7809   -0.0705 C   0  0  0  0  0  0  0  0  0  0  0  0
   -1.7984   -0.3211    0.3297 O   0  0  0  0  0  0  0  0  0  0  0  0
    0.1181    0.9758   -0.1757 C   0  0  0  0  0  0  0  0  0  0  0  0
    0.7649   -0.2145    0.2270 O   0  0  0  0  0  0  0  0  0  0  0  0
    2.1735   -0.3114    0.2253 C   0  0  0  0  0  0  0  0  0  0  0  0
    2.7572    0.7218   -0.1533 O   0  0  0  0  0  0  0  0  0  0  0  0
    2.8247   -1.5445    0.6428 C   0  0  0  0  0  0  0  0  0  0  0  0
    2.0209   -2.6080    1.1117 C   0  0  0  0  0  0  0  0  0  0  0  0
    2.6074   -3.7713    1.5532 C   0  0  0  0  0  0  0  0  0  0  0  0
    3.9738   -3.8870    1.5335 C   0  0  0  0  0  0  0  0  0  0  0  0
    4.7394   -2.8600    1.0805 C   0  0  0  0  0  0  0  0  0  0  0  0
    4.1765   -1.6515    0.6187 C   0  0  0  0  0  0  0  0  0  0  0  0
    5.0637   -0.6187    0.1102 C   0  0  0  0  0  0  0  0  0  0  0  0
    6.0856   -0.1313    0.9382 C   0  0  0  0  0  0  0  0  0  0  0  0
    6.9861    0.8185    0.5090 C   0  0  0  0  0  0  0  0  0  0  0  0
    6.9245    1.3395   -0.7667 C   0  0  0  0  0  0  0  0  0  0  0  0
    7.9041    2.3676   -1.2223 C   0  0  0  0  0  0  0  0  0  0  0  0
    5.9238    0.8708   -1.5968 C   0  0  0  0  0  0  0  0  0  0  0  0
    5.0288   -0.0798   -1.1556 C   0  0  0  0  0  0  0  0  0  0  0  0
   -4.6770    2.4023   -0.5560 C   0  0  0  0  0  0  0  0  0  0  0  0
   -6.0496    2.1316   -0.4257 C   0  0  0  0  0  0  0  0  0  0  0  0
  1  2  1  0
  2  3  1  0
  3  4  1  6
  3  5  1  0
  5  6  2  0
  6  7  1  0
  7  8  2  0
  8  9  1  0
  9 10  1  0
 10 11  2  0
 10 12  1  0
 12 13  1  0
 13 14  1  0
 14 15  2  0
 14 16  1  0
 16 17  2  0
 17 18  1  0
 18 19  2  0
 19 20  1  0
 20 21  2  0
 21 22  1  0
 22 23  2  0
 23 24  1  0
 24 25  2  0
 25 26  1  0
 25 27  1  0
 27 28  2  0
  8 29  1  0
 29 30  2  0
 30  5  1  0
 21 16  1  0
 28 22  1  0
M  END
>  <zinc_id>  (1) 
ZINC000003217081

>  <smiles>  (1) 
CC[C@@H](C)c1ccc(NC(=O)COC(=O)c2ccccc2-c2ccc(C)cc2)cc1

$$$$
