
     RDKit          3D

 30 32  0  0  0  0  0  0  0  0999 V2000
    4.1694    4.5701   -0.9997 C   0  0  0  0  0  0  0  0  0  0  0  0
    4.4968    3.1260   -0.9860 C   0  0  0  0  0  0  0  0  0  0  0  0
    5.1587    2.4923   -2.0102 C   0  0  0  0  0  0  0  0  0  0  0  0
    5.4527    1.1563   -1.9669 C   0  0  0  0  0  0  0  0  0  0  0  0
    5.0782    0.4227   -0.8691 C   0  0  0  0  0  0  0  0  0  0  0  0
    5.4548   -1.3320   -0.7567 S   0  0  0  0  0  0  0  0  0  0  0  0
    4.8162   -1.9505    0.7975 C   0  0  0  0  0  0  0  0  0  0  0  0
    3.3311   -1.9395    0.8516 C   0  0  0  0  0  0  0  0  0  0  0  0
    2.6445   -3.0735    0.4610 C   0  0  0  0  0  0  0  0  0  0  0  0
    1.2610   -3.1035    0.4898 C   0  0  0  0  0  0  0  0  0  0  0  0
    0.4987   -2.0134    0.9056 C   0  0  0  0  0  0  0  0  0  0  0  0
   -0.9551   -2.0632    0.9454 C   0  0  0  0  0  0  0  0  0  0  0  0
   -1.4927   -3.1147    1.4289 O   0  0  0  0  0  0  0  0  0  0  0  0
   -1.8287   -1.0692    0.5029 N   0  0  0  0  0  0  0  0  0  0  0  0
   -3.2593   -1.1801    0.5735 C   0  0  0  0  0  0  0  0  0  0  0  0
   -3.7404   -2.3184    1.1684 C   0  0  0  0  0  0  0  0  0  0  0  0
   -5.0721   -2.5583    1.3152 C   0  0  0  0  0  0  0  0  0  0  0  0
   -5.9560   -1.6079    0.8395 C   0  0  0  0  0  0  0  0  0  0  0  0
   -5.4578   -0.4599    0.2384 C   0  0  0  0  0  0  0  0  0  0  0  0
   -4.1057   -0.2319    0.0984 C   0  0  0  0  0  0  0  0  0  0  0  0
   -3.5945    0.9568   -0.5194 C   0  0  0  0  0  0  0  0  0  0  0  0
   -2.3441    1.1136   -0.6085 O   0  0  0  0  0  0  0  0  0  0  0  0
   -4.4423    1.9748   -1.0398 N   0  0  0  0  0  0  0  0  0  0  0  0
   -3.8551    3.1485   -1.6506 C   0  0  0  0  0  0  0  0  0  0  0  0
   -3.8706    3.0411   -3.1595 C   0  0  0  0  0  0  0  0  0  0  0  0
   -4.7182    4.3329   -1.2667 C   0  0  0  0  0  0  0  0  0  0  0  0
    1.2071   -0.8967    1.2891 C   0  0  0  0  0  0  0  0  0  0  0  0
    2.5824   -0.8525    1.2660 C   0  0  0  0  0  0  0  0  0  0  0  0
    4.4205    1.0454    0.1519 C   0  0  0  0  0  0  0  0  0  0  0  0
    4.1206    2.3849    0.1168 C   0  0  0  0  0  0  0  0  0  0  0  0
  1  2  1  0
  2  3  2  0
  3  4  1  0
  4  5  2  0
  5  6  1  0
  6  7  1  0
  7  8  1  0
  8  9  2  0
  9 10  1  0
 10 11  2  0
 11 12  1  0
 12 13  2  0
 12 14  1  0
 14 15  1  0
 15 16  2  0
 16 17  1  0
 17 18  2  0
 18 19  1  0
 19 20  2  0
 20 21  1  0
 21 22  2  0
 21 23  1  0
 23 24  1  0
 24 25  1  0
 24 26  1  0
 11 27  1  0
 27 28  2  0
  5 29  1  0
 29 30  2  0
 30  2  1  0
 28  8  1  0
 20 15  1  0
M  END
>  <zinc_id>  (1) 
ZINC000002886214

>  <smiles>  (1) 
Cc1ccc(SCc2ccc(C(=O)Nc3ccccc3C(=O)NC(C)C)cc2)cc1

$$$$
