
     RDKit          3D

 29 31  0  0  0  0  0  0  0  0999 V2000
    6.6299    3.5673   -1.4946 C   0  0  0  0  0  0  0  0  0  0  0  0
    5.5281    2.7272   -0.9661 C   0  0  0  0  0  0  0  0  0  0  0  0
    4.5784    2.2018   -1.8353 C   0  0  0  0  0  0  0  0  0  0  0  0
    3.5552    1.4266   -1.3626 C   0  0  0  0  0  0  0  0  0  0  0  0
    3.4446    1.1508   -0.0220 C   0  0  0  0  0  0  0  0  0  0  0  0
    2.3296    0.3052    0.4479 C   0  0  0  0  0  0  0  0  0  0  0  0
    1.8718    0.3889    1.6109 O   0  0  0  0  0  0  0  0  0  0  0  0
    1.7749   -0.6163   -0.4433 N   0  0  0  0  0  0  0  0  0  0  0  0
    0.6678   -1.4975   -0.0881 C   0  0  0  0  0  0  0  0  0  0  0  0
    0.8157   -2.7847   -0.1095 C   0  0  0  0  0  0  0  0  0  0  0  0
   -0.1605   -3.8097    0.2136 C   0  0  0  0  0  0  0  0  0  0  0  0
   -1.0343   -3.9618    1.2276 C   0  0  0  0  0  0  0  0  0  0  0  0
   -1.8246   -5.0269    1.2592 C   0  0  0  0  0  0  0  0  0  0  0  0
   -1.7080   -5.9309    0.2422 C   0  0  0  0  0  0  0  0  0  0  0  0
   -0.4841   -5.2371   -0.7189 S   0  0  0  0  0  0  0  0  0  0  0  0
   -0.6210   -0.9267    0.2557 C   0  0  0  0  0  0  0  0  0  0  0  0
   -1.6375   -1.5346    0.5659 O   0  0  0  0  0  0  0  0  0  0  0  0
   -0.7337    0.5180    0.2346 N   0  0  0  0  0  0  0  0  0  0  0  0
   -2.0351    1.1299    0.5730 C   0  0  0  0  0  0  0  0  0  0  0  0
   -3.0845    0.6366   -0.4045 C   0  0  0  0  0  0  0  0  0  0  0  0
   -4.4206    1.1857   -0.1538 C   0  0  0  0  0  0  0  0  0  0  0  0
   -4.8056    2.3528   -0.7477 C   0  0  0  0  0  0  0  0  0  0  0  0
   -6.0720    2.8740   -0.5166 C   0  0  0  0  0  0  0  0  0  0  0  0
   -6.9396    2.2029    0.3183 C   0  0  0  0  0  0  0  0  0  0  0  0
   -6.5382    1.0383    0.9032 C   0  0  0  0  0  0  0  0  0  0  0  0
   -5.2890    0.5291    0.6718 C   0  0  0  0  0  0  0  0  0  0  0  0
    4.3726    1.6569    0.8745 C   0  0  0  0  0  0  0  0  0  0  0  0
    5.3962    2.4370    0.3703 C   0  0  0  0  0  0  0  0  0  0  0  0
    6.4234    2.9972    1.3175 C   0  0  0  0  0  0  0  0  0  0  0  0
  1  2  1  0
  2  3  2  0
  3  4  1  0
  4  5  2  0
  5  6  1  0
  6  7  2  0
  6  8  1  0
  8  9  1  0
  9 10  2  0
 10 11  1  0
 11 12  2  0
 12 13  1  0
 13 14  2  0
 14 15  1  0
  9 16  1  0
 16 17  2  0
 16 18  1  0
 18 19  1  0
 19 20  1  0
 20 21  1  0
 21 22  2  0
 22 23  1  0
 23 24  2  0
 24 25  1  0
 25 26  2  0
  5 27  1  0
 27 28  2  0
 28 29  1  0
 28  2  1  0
 15 11  1  0
 26 21  1  0
M  END
>  <zinc_id>  (1) 
ZINC000002152605

>  <smiles>  (1) 
Cc1ccc(C(=O)N/C(=C/c2cccs2)C(=O)NCCc2ccccc2)cc1C

$$$$
