
     RDKit          3D

 32 35  0  0  0  0  0  0  0  0999 V2000
   -1.9335    6.6677    0.5699 C   0  0  0  0  0  0  0  0  0  0  0  0
   -2.0262    5.2137    0.2501 C   0  0  0  0  0  0  0  0  0  0  0  0
   -2.0287    4.7550   -1.0505 C   0  0  0  0  0  0  0  0  0  0  0  0
   -2.1153    3.4039   -1.3257 C   0  0  0  0  0  0  0  0  0  0  0  0
   -2.2025    2.4561   -0.3259 C   0  0  0  0  0  0  0  0  0  0  0  0
   -2.3137    0.7150   -0.6971 S   0  0  0  0  0  0  0  0  0  0  0  0
   -0.7023   -0.0269   -0.7943 C   0  0  0  0  0  0  0  0  0  0  0  0
   -0.4721   -1.2990   -1.0540 C   0  0  0  0  0  0  0  0  0  0  0  0
   -1.4866   -2.2710   -1.2961 N   0  0  0  0  0  0  0  0  0  0  0  0
   -2.5383   -2.5077   -0.3796 C   0  0  0  0  0  0  0  0  0  0  0  0
   -2.6746   -1.8296    0.8128 C   0  0  0  0  0  0  0  0  0  0  0  0
   -3.7142   -2.0858    1.6851 C   0  0  0  0  0  0  0  0  0  0  0  0
   -4.6643   -3.0564    1.3670 C   0  0  0  0  0  0  0  0  0  0  0  0
   -5.8014   -3.3520    2.2979 C   0  0  0  0  0  0  0  0  0  0  0  0
   -4.5029   -3.7185    0.1684 C   0  0  0  0  0  0  0  0  0  0  0  0
   -3.4741   -3.4702   -0.7027 C   0  0  0  0  0  0  0  0  0  0  0  0
   -3.4082   -4.2510   -1.9653 C   0  0  0  0  0  0  0  0  0  0  0  0
    0.9418   -1.5971   -1.0648 C   0  0  0  0  0  0  0  0  0  0  0  0
    1.5186   -2.7147   -1.2792 O   0  0  0  0  0  0  0  0  0  0  0  0
    1.6144   -0.3862   -0.7849 N   0  0  0  0  0  0  0  0  0  0  0  0
    3.0330   -0.1940   -0.6923 C   0  0  0  0  0  0  0  0  0  0  0  0
    3.5534   -0.4054    0.7144 C   0  0  0  0  0  0  0  0  0  0  0  0
    5.0352   -0.1783    0.6828 C   0  0  0  0  0  0  0  0  0  0  0  0
    5.9102   -1.2260    0.4306 C   0  0  0  0  0  0  0  0  0  0  0  0
    7.2672   -0.9796    0.4093 C   0  0  0  0  0  0  0  0  0  0  0  0
    7.7371    0.2999    0.6379 C   0  0  0  0  0  0  0  0  0  0  0  0
    6.8720    1.3410    0.8883 C   0  0  0  0  0  0  0  0  0  0  0  0
    5.5281    1.0826    0.9066 C   0  0  0  0  0  0  0  0  0  0  0  0
    0.6107    0.5958   -0.6148 C   0  0  0  0  0  0  0  0  0  0  0  0
    0.7493    1.8128   -0.3532 O   0  0  0  0  0  0  0  0  0  0  0  0
   -2.1991    2.9292    0.9778 C   0  0  0  0  0  0  0  0  0  0  0  0
   -2.1129    4.2766    1.2580 C   0  0  0  0  0  0  0  0  0  0  0  0
  1  2  1  0
  2  3  2  0
  3  4  1  0
  4  5  2  0
  5  6  1  0
  6  7  1  0
  7  8  2  0
  8  9  1  0
  9 10  1  0
 10 11  2  0
 11 12  1  0
 12 13  2  0
 13 14  1  0
 13 15  1  0
 15 16  2  0
 16 17  1  0
  8 18  1  0
 18 19  2  0
 18 20  1  0
 20 21  1  0
 21 22  1  0
 22 23  1  0
 23 24  2  0
 24 25  1  0
 25 26  2  0
 26 27  1  0
 27 28  2  0
 20 29  1  0
 29 30  2  0
  5 31  1  0
 31 32  2  0
 32  2  1  0
 29  7  1  0
 16 10  1  0
 28 23  1  0
M  END
>  <zinc_id>  (1) 
ZINC000001932064

>  <smiles>  (1) 
Cc1ccc(SC2=C(Nc3ccc(C)cc3C)C(=O)N(CCc3ccccc3)C2=O)cc1

$$$$
