
     RDKit          3D

 31 34  0  0  0  0  0  0  0  0999 V2000
   -7.1892   -1.8473    1.4446 C   0  0  0  0  0  0  0  0  0  0  0  0
   -6.8618   -0.6363    2.2986 C   0  0  0  0  0  0  0  0  0  0  0  0
   -6.8268    0.6321    1.2569 C   0  0  1  0  0  0  0  0  0  0  0  0
   -6.4713    1.6978    2.4316 C   0  0  0  0  0  0  0  0  0  0  0  0
   -5.3469    0.3939    0.7540 C   0  0  0  0  0  0  0  0  0  0  0  0
   -5.0588   -0.8774    0.2772 C   0  0  0  0  0  0  0  0  0  0  0  0
   -3.7853   -1.1586   -0.1795 C   0  0  0  0  0  0  0  0  0  0  0  0
   -2.7729   -0.2277   -0.1857 C   0  0  0  0  0  0  0  0  0  0  0  0
   -1.4174   -0.5170   -0.6686 C   0  0  0  0  0  0  0  0  0  0  0  0
   -0.4503    0.4657   -0.6458 C   0  0  0  0  0  0  0  0  0  0  0  0
    0.8390    0.2436   -1.0888 C   0  0  0  0  0  0  0  0  0  0  0  0
    1.8388    1.3029   -1.0498 C   0  0  0  0  0  0  0  0  0  0  0  0
    1.5000    2.4367   -0.6265 O   0  0  0  0  0  0  0  0  0  0  0  0
    3.1818    1.1422   -1.4607 N   0  0  0  0  0  0  0  0  0  0  0  0
    4.1401    2.1542   -1.4268 N   0  0  0  0  0  0  0  0  0  0  0  0
    4.8870    2.3006   -0.3945 C   0  0  0  0  0  0  0  0  0  0  0  0
    4.7347    1.4017    0.7558 C   0  0  0  0  0  0  0  0  0  0  0  0
    3.6583    0.1023    0.9721 S   0  0  0  0  0  0  0  0  0  0  0  0
    4.1259   -0.3924    2.5365 C   0  0  0  0  0  0  0  0  0  0  0  0
    5.1210    0.4868    2.8408 C   0  0  0  0  0  0  0  0  0  0  0  0
    5.4415    1.4130    1.9321 C   0  0  0  0  0  0  0  0  0  0  0  0
    6.5393    2.4310    2.1926 C   0  0  0  0  0  0  0  0  0  0  0  0
    1.1434   -1.0146   -1.5660 C   0  0  0  0  0  0  0  0  0  0  0  0
    2.4207   -1.2377   -2.0068 C   0  0  0  0  0  0  0  0  0  0  0  0
    2.7301   -2.4944   -2.4858 C   0  0  0  0  0  0  0  0  0  0  0  0
    1.7870   -3.5158   -2.5275 C   0  0  0  0  0  0  0  0  0  0  0  0
    0.5051   -3.2726   -2.0792 C   0  0  0  0  0  0  0  0  0  0  0  0
    0.1750   -2.0169   -1.5945 C   0  0  0  0  0  0  0  0  0  0  0  0
   -1.0573   -1.7196   -1.1448 N   0  0  0  0  0  0  0  0  0  0  0  0
   -3.1329    1.0086    0.3011 C   0  0  0  0  0  0  0  0  0  0  0  0
   -4.3980    1.3150    0.7632 C   0  0  0  0  0  0  0  0  0  0  0  0
  1  2  1  0
  2  3  1  0
  3  4  1  1
  3  5  1  0
  5  6  2  0
  6  7  1  0
  7  8  2  0
  8  9  1  0
  9 10  2  0
 10 11  1  0
 11 12  1  0
 12 13  2  0
 12 14  1  0
 14 15  1  0
 15 16  2  0
 16 17  1  0
 17 18  1  0
 18 19  1  0
 19 20  2  0
 20 21  1  0
 21 22  1  0
 11 23  2  0
 23 24  1  0
 24 25  2  0
 25 26  1  0
 26 27  2  0
 27 28  1  0
 28 29  2  0
  8 30  1  0
 30 31  2  0
 31  5  1  0
 29  9  1  0
 21 17  2  0
 28 23  1  0
M  END
>  <zinc_id>  (1) 
ZINC000004470514

>  <smiles>  (1) 
CC[C@@H](C)c1ccc(-c2cc(C(=O)N/N=C\c3sccc3C)c3ccccc3n2)cc1

$$$$
