
     RDKit          3D

 31 34  0  0  0  0  0  0  0  0999 V2000
    8.6637   -3.6975    1.8504 C   0  0  0  0  0  0  0  0  0  0  0  0
    8.9028   -2.2003    2.0835 C   0  0  0  0  0  0  0  0  0  0  0  0
    7.9129   -1.3867    1.2674 C   0  0  0  0  0  0  0  0  0  0  0  0
    6.6233   -1.7247    1.6686 O   0  0  0  0  0  0  0  0  0  0  0  0
    5.4655   -1.1787    1.1389 C   0  0  0  0  0  0  0  0  0  0  0  0
    5.4545   -0.2274    0.1429 C   0  0  0  0  0  0  0  0  0  0  0  0
    4.2679    0.2995   -0.3658 C   0  0  0  0  0  0  0  0  0  0  0  0
    3.0565   -0.1266    0.1248 C   0  0  0  0  0  0  0  0  0  0  0  0
    1.7989    0.4163   -0.3980 C   0  0  0  0  0  0  0  0  0  0  0  0
    0.5730    0.0019    0.0808 C   0  0  0  0  0  0  0  0  0  0  0  0
   -0.6008    0.4973   -0.3952 C   0  0  0  0  0  0  0  0  0  0  0  0
   -1.9155    0.0813    0.0887 C   0  0  0  0  0  0  0  0  0  0  0  0
   -1.9760   -0.7844    0.9976 O   0  0  0  0  0  0  0  0  0  0  0  0
   -3.1296    0.5985   -0.4087 N   0  0  0  0  0  0  0  0  0  0  0  0
   -4.4119    0.1796    0.0770 C   0  0  0  0  0  0  0  0  0  0  0  0
   -5.5299    0.7586   -0.4885 C   0  0  0  0  0  0  0  0  0  0  0  0
   -6.8194    0.4428   -0.1106 C   0  0  0  0  0  0  0  0  0  0  0  0
   -6.9743   -0.4995    0.8819 C   0  0  0  0  0  0  0  0  0  0  0  0
   -8.2526   -0.8463    1.2919 O   0  0  0  0  0  0  0  0  0  0  0  0
   -8.4515   -1.8049    2.3031 C   0  0  0  0  0  0  0  0  0  0  0  0
   -5.8778   -1.0943    1.4647 C   0  0  0  0  0  0  0  0  0  0  0  0
   -4.5842   -0.7491    1.0559 C   0  0  0  0  0  0  0  0  0  0  0  0
   -0.5818    1.4584   -1.4026 C   0  0  0  0  0  0  0  0  0  0  0  0
   -1.7829    1.9664   -1.8910 C   0  0  0  0  0  0  0  0  0  0  0  0
   -1.7342    2.9206   -2.8922 C   0  0  0  0  0  0  0  0  0  0  0  0
   -0.5038    3.3313   -3.3675 C   0  0  0  0  0  0  0  0  0  0  0  0
    0.6801    2.8302   -2.8857 C   0  0  0  0  0  0  0  0  0  0  0  0
    0.6450    1.8714   -1.8801 C   0  0  0  0  0  0  0  0  0  0  0  0
    1.7818    1.3455   -1.3707 N   0  0  0  0  0  0  0  0  0  0  0  0
    3.0536   -1.0765    1.1199 C   0  0  0  0  0  0  0  0  0  0  0  0
    4.2467   -1.6026    1.6274 C   0  0  0  0  0  0  0  0  0  0  0  0
  1  2  1  0
  2  3  1  0
  3  4  1  0
  4  5  1  0
  5  6  2  0
  6  7  1  0
  7  8  2  0
  8  9  1  0
  9 10  2  0
 10 11  1  0
 11 12  1  0
 12 13  2  0
 12 14  1  0
 14 15  1  0
 15 16  2  0
 16 17  1  0
 17 18  2  0
 18 19  1  0
 19 20  1  0
 18 21  1  0
 21 22  2  0
 11 23  2  0
 23 24  1  0
 24 25  2  0
 25 26  1  0
 26 27  2  0
 27 28  1  0
 28 29  2  0
  8 30  1  0
 30 31  2  0
 31  5  1  0
 29  9  1  0
 22 15  1  0
 28 23  1  0
M  END
>  <zinc_id>  (1) 
ZINC000002088235

>  <smiles>  (1) 
CCCOc1ccc(-c2cc(C(=O)Nc3ccc(OC)cc3)c3ccccc3n2)cc1

$$$$
