
     RDKit          3D

 33 36  0  0  0  0  0  0  0  0999 V2000
    2.0552    3.2687   -0.2739 C   0  0  0  0  0  0  0  0  0  0  0  0
    1.8533    1.8856   -0.2643 O   0  0  0  0  0  0  0  0  0  0  0  0
    2.8987    0.9647   -0.1541 C   0  0  0  0  0  0  0  0  0  0  0  0
    4.2220    1.4152   -0.0471 C   0  0  0  0  0  0  0  0  0  0  0  0
    5.2420    0.5032    0.0621 C   0  0  0  0  0  0  0  0  0  0  0  0
    5.0149   -0.8738    0.0716 C   0  0  0  0  0  0  0  0  0  0  0  0
    6.1550   -1.8032    0.1898 C   0  0  0  0  0  0  0  0  0  0  0  0
    7.4707   -1.1629   -0.1795 C   0  0  0  0  0  0  0  0  0  0  0  0
    5.9760   -3.0206   -0.7083 C   0  0  0  0  0  0  0  0  0  0  0  0
    6.3258   -2.3367    1.6085 C   0  0  0  0  0  0  0  0  0  0  0  0
    3.7172   -1.2780   -0.0348 C   0  0  0  0  0  0  0  0  0  0  0  0
    2.6643   -0.3860   -0.1469 C   0  0  0  0  0  0  0  0  0  0  0  0
    1.3129   -0.8566   -0.2649 N   0  0  0  0  0  0  0  0  0  0  0  0
    1.0146   -2.2459   -0.2102 C   0  0  0  0  0  0  0  0  0  0  0  0
    1.9744   -3.0299   -0.0538 O   0  0  0  0  0  0  0  0  0  0  0  0
   -0.3405   -2.7607   -0.3266 C   0  0  0  0  0  0  0  0  0  0  0  0
   -1.3467   -1.8385   -0.5694 O   0  0  0  0  0  0  0  0  0  0  0  0
   -1.6695   -0.7369    0.2195 C   0  0  0  0  0  0  0  0  0  0  0  0
   -1.0014   -0.5311    1.2470 O   0  0  0  0  0  0  0  0  0  0  0  0
   -2.7527    0.1689   -0.1228 C   0  0  0  0  0  0  0  0  0  0  0  0
   -2.5718    1.2811   -0.9275 C   0  0  0  0  0  0  0  0  0  0  0  0
   -1.3168    1.5510   -1.4448 C   0  0  0  0  0  0  0  0  0  0  0  0
   -1.1282    2.6518   -2.2499 C   0  0  0  0  0  0  0  0  0  0  0  0
   -2.1527    3.5082   -2.5657 C   0  0  0  0  0  0  0  0  0  0  0  0
   -3.4025    3.2649   -2.0681 C   0  0  0  0  0  0  0  0  0  0  0  0
   -3.5914    2.1579   -1.2583 C   0  0  0  0  0  0  0  0  0  0  0  0
   -4.8483    1.8948   -0.7504 C   0  0  0  0  0  0  0  0  0  0  0  0
   -5.0758    0.8095    0.0479 C   0  0  0  0  0  0  0  0  0  0  0  0
   -6.3517    0.5983    0.5301 C   0  0  0  0  0  0  0  0  0  0  0  0
   -6.5345   -0.4963    1.3283 C   0  0  0  0  0  0  0  0  0  0  0  0
   -5.5294   -1.3678    1.6591 C   0  0  0  0  0  0  0  0  0  0  0  0
   -4.2524   -1.1536    1.1738 C   0  0  0  0  0  0  0  0  0  0  0  0
   -4.0305   -0.0452    0.3563 C   0  0  0  0  0  0  0  0  0  0  0  0
  1  2  1  0
  2  3  1  0
  3  4  2  0
  4  5  1  0
  5  6  2  0
  6  7  1  0
  7  8  1  0
  7  9  1  0
  7 10  1  0
  6 11  1  0
 11 12  2  0
 12 13  1  0
 13 14  1  0
 14 15  2  0
 14 16  1  0
 16 17  1  0
 17 18  1  0
 18 19  2  0
 18 20  1  0
 20 21  1  0
 21 22  2  0
 22 23  1  0
 23 24  2  0
 24 25  1  0
 25 26  2  0
 26 27  1  0
 27 28  2  0
 28 29  1  0
 29 30  2  0
 30 31  1  0
 31 32  2  0
 32 33  1  0
 12  3  1  0
 33 20  2  0
 26 21  1  0
 33 28  1  0
M  END
>  <zinc_id>  (1) 
ZINC000003218208

>  <smiles>  (1) 
COc1ccc(C(C)(C)C)cc1NC(=O)COC(=O)c1c2ccccc2cc2ccccc12

$$$$
