
     RDKit          3D

 31 34  0  0  0  0  0  0  0  0999 V2000
   -8.8008    0.8256   -1.0558 C   0  0  0  0  0  0  0  0  0  0  0  0
   -8.8769   -0.6824   -0.9094 C   0  0  0  0  0  0  0  0  0  0  0  0
   -8.6928   -0.9512    0.7088 C   0  0  1  0  0  0  0  0  0  0  0  0
   -8.8165   -2.5881    0.5365 C   0  0  0  0  0  0  0  0  0  0  0  0
   -7.1141   -0.9008    0.6711 C   0  0  0  0  0  0  0  0  0  0  0  0
   -6.3560   -1.8442    1.2540 C   0  0  0  0  0  0  0  0  0  0  0  0
   -4.9548   -1.7700    1.2065 C   0  0  0  0  0  0  0  0  0  0  0  0
   -4.3176   -0.7332    0.5643 C   0  0  0  0  0  0  0  0  0  0  0  0
   -2.8879   -0.6722    0.5249 N   0  0  0  0  0  0  0  0  0  0  0  0
   -2.2028    0.3748   -0.1235 C   0  0  0  0  0  0  0  0  0  0  0  0
   -2.8608    1.2736   -0.6789 O   0  0  0  0  0  0  0  0  0  0  0  0
   -0.7426    0.4503   -0.1719 C   0  0  0  0  0  0  0  0  0  0  0  0
    0.3562   -0.6592    0.5133 S   0  0  0  0  0  0  0  0  0  0  0  0
    1.8253    0.0875    0.0497 C   0  0  0  0  0  0  0  0  0  0  0  0
    3.1492   -0.2297    0.2445 N   0  0  0  0  0  0  0  0  0  0  0  0
    4.1506    0.5263   -0.2243 C   0  0  0  0  0  0  0  0  0  0  0  0
    5.5549    0.1847   -0.0145 C   0  0  0  0  0  0  0  0  0  0  0  0
    6.5781    0.9732   -0.5035 C   0  0  0  0  0  0  0  0  0  0  0  0
    7.9004    0.6961   -0.3334 C   0  0  0  0  0  0  0  0  0  0  0  0
    8.2300   -0.4430    0.3710 C   0  0  0  0  0  0  0  0  0  0  0  0
    9.5667   -0.8062    0.5942 O   0  0  0  0  0  0  0  0  0  0  0  0
   10.6080    0.0144    0.0854 C   0  0  0  0  0  0  0  0  0  0  0  0
    7.2545   -1.2735    0.8859 C   0  0  0  0  0  0  0  0  0  0  0  0
    5.9388   -0.9452    0.6842 C   0  0  0  0  0  0  0  0  0  0  0  0
    3.7544    1.6439   -0.9153 C   0  0  0  0  0  0  0  0  0  0  0  0
    2.4552    2.0039   -1.1366 C   0  0  0  0  0  0  0  0  0  0  0  0
    1.4082    1.1865   -0.6297 C   0  0  0  0  0  0  0  0  0  0  0  0
    0.0622    1.3774   -0.7464 C   0  0  0  0  0  0  0  0  0  0  0  0
   -0.5593    2.5091   -1.4458 N   0  0  0  0  0  0  0  0  0  0  0  0
   -5.1043    0.2275   -0.0293 C   0  0  0  0  0  0  0  0  0  0  0  0
   -6.5054    0.1437    0.0241 C   0  0  0  0  0  0  0  0  0  0  0  0
  1  2  1  0
  2  3  1  0
  3  4  1  6
  3  5  1  0
  5  6  2  0
  6  7  1  0
  7  8  2  0
  8  9  1  0
  9 10  1  0
 10 11  2  0
 10 12  1  0
 12 13  1  0
 13 14  1  0
 14 15  2  0
 15 16  1  0
 16 17  1  0
 17 18  2  0
 18 19  1  0
 19 20  2  0
 20 21  1  0
 21 22  1  0
 20 23  1  0
 23 24  2  0
 16 25  2  0
 25 26  1  0
 26 27  2  0
 27 28  1  0
 28 29  1  0
  8 30  1  0
 30 31  2  0
 31  5  1  0
 28 12  2  0
 27 14  1  0
 24 17  1  0
M  END
>  <zinc_id>  (1) 
ZINC000000661531

>  <smiles>  (1) 
CC[C@@H](C)c1ccc(NC(=O)c2sc3nc(-c4ccc(OC)cc4)ccc3c2N)cc1

$$$$
