
     RDKit          3D

 31 34  0  0  0  0  0  0  0  0999 V2000
   11.1976    0.9474    2.1960 C   0  0  0  0  0  0  0  0  0  0  0  0
   10.2376    0.6346    3.3102 C   0  0  0  0  0  0  0  0  0  0  0  0
    8.8789    0.2811    2.7715 C   0  0  0  0  0  0  0  0  0  0  0  0
    8.5421   -1.0180    2.4663 C   0  0  0  0  0  0  0  0  0  0  0  0
    7.2920   -1.3223    1.9737 C   0  0  0  0  0  0  0  0  0  0  0  0
    6.3310   -0.3534    1.7654 C   0  0  0  0  0  0  0  0  0  0  0  0
    5.0714   -0.6783    1.2664 O   0  0  0  0  0  0  0  0  0  0  0  0
    4.1225    0.3284    1.0679 C   0  0  0  0  0  0  0  0  0  0  0  0
    2.8628   -0.2772    0.5292 C   0  0  0  0  0  0  0  0  0  0  0  0
    2.6364   -1.5945    0.2613 C   0  0  0  0  0  0  0  0  0  0  0  0
    1.3539   -1.6869   -0.2130 C   0  0  0  0  0  0  0  0  0  0  0  0
    0.8408   -0.4081   -0.2165 C   0  0  0  0  0  0  0  0  0  0  0  0
   -0.5062    0.0189   -0.6405 C   0  0  0  0  0  0  0  0  0  0  0  0
   -0.8271    1.2300   -0.5845 O   0  0  0  0  0  0  0  0  0  0  0  0
   -1.4622   -0.9038   -1.1148 N   0  0  0  0  0  0  0  0  0  0  0  0
   -2.7702   -0.5282   -1.5320 C   0  0  0  0  0  0  0  0  0  0  0  0
   -3.6480   -1.4905   -1.9837 C   0  0  0  0  0  0  0  0  0  0  0  0
   -4.9388   -1.1593   -2.4010 C   0  0  0  0  0  0  0  0  0  0  0  0
   -5.3786    0.1479   -2.3742 C   0  0  0  0  0  0  0  0  0  0  0  0
   -6.7507    0.5027   -2.8174 C   0  0  0  0  0  0  0  0  0  0  0  0
   -7.6685    0.4440   -1.7045 N   0  0  0  0  0  0  0  0  0  0  0  0
   -7.7428   -0.8629   -1.0986 C   0  0  0  0  0  0  0  0  0  0  0  0
   -8.6460   -0.7431    0.1176 C   0  0  0  0  0  0  0  0  0  0  0  0
   -9.0159    0.7039    0.3963 C   0  0  0  0  0  0  0  0  0  0  0  0
   -9.7392    1.2210   -0.8199 C   0  0  0  0  0  0  0  0  0  0  0  0
   -8.9688    0.9207   -2.0756 C   0  0  0  0  0  0  0  0  0  0  0  0
   -4.4890    1.0991   -1.9198 C   0  0  0  0  0  0  0  0  0  0  0  0
   -3.2053    0.7771   -1.5038 C   0  0  0  0  0  0  0  0  0  0  0  0
    1.7688    0.3833    0.2292 O   0  0  0  0  0  0  0  0  0  0  0  0
    6.6862    0.9447    2.0771 C   0  0  0  0  0  0  0  0  0  0  0  0
    7.9355    1.2635    2.5715 C   0  0  0  0  0  0  0  0  0  0  0  0
  1  2  1  0
  2  3  1  0
  3  4  2  0
  4  5  1  0
  5  6  2  0
  6  7  1  0
  7  8  1  0
  8  9  1  0
  9 10  2  0
 10 11  1  0
 11 12  2  0
 12 13  1  0
 13 14  2  0
 13 15  1  0
 15 16  1  0
 16 17  2  0
 17 18  1  0
 18 19  2  0
 19 20  1  0
 20 21  1  0
 21 22  1  0
 22 23  1  0
 23 24  1  0
 24 25  1  0
 25 26  1  0
 19 27  1  0
 27 28  2  0
 12 29  1  0
  6 30  1  0
 30 31  2  0
 31  3  1  0
 29  9  1  0
 28 16  1  0
 26 21  1  0
M  END
>  <zinc_id>  (1) 
ZINC000002758658

>  <smiles>  (1) 
CCc1ccc(OCc2ccc(C(=O)Nc3ccc(CN4CCCCC4)cc3)o2)cc1

$$$$
