
     RDKit          3D

 29 32  0  0  0  0  0  0  0  0999 V2000
    1.2926   -0.9455   -0.6944 C   0  0  0  0  0  0  0  0  0  0  0  0
    2.3833   -1.7249   -0.0190 C   0  0  0  0  0  0  0  0  0  0  0  0
    3.4776   -0.8669    0.4056 N   0  0  0  0  0  0  0  0  0  0  0  0
    3.7881   -0.2911    1.5533 C   0  0  0  0  0  0  0  0  0  0  0  0
    3.0267   -0.3806    3.1247 S   0  0  0  0  0  0  0  0  0  0  0  0
    1.8382    0.7854    3.6132 C   0  0  0  0  0  0  0  0  0  0  0  0
    0.5236    0.6594    3.0054 C   0  0  0  0  0  0  0  0  0  0  0  0
   -0.3946    1.5301    3.1759 O   0  0  0  0  0  0  0  0  0  0  0  0
    0.2045   -0.4527    2.1932 N   0  0  0  0  0  0  0  0  0  0  0  0
   -1.0280   -0.6566    1.5770 N   0  0  0  0  0  0  0  0  0  0  0  0
   -1.6277    0.1615    0.8003 C   0  0  0  0  0  0  0  0  0  0  0  0
   -0.9574    1.4630    0.5161 C   0  0  0  0  0  0  0  0  0  0  0  0
   -2.8976   -0.0928    0.1616 C   0  0  0  0  0  0  0  0  0  0  0  0
   -3.5258   -1.3028    0.3248 C   0  0  0  0  0  0  0  0  0  0  0  0
   -4.7552   -1.5638   -0.2831 C   0  0  0  0  0  0  0  0  0  0  0  0
   -5.3462   -0.5911   -1.0583 C   0  0  0  0  0  0  0  0  0  0  0  0
   -6.5565   -0.8383   -1.6626 C   0  0  0  0  0  0  0  0  0  0  0  0
   -7.1757    0.1150   -2.4468 C   0  0  0  0  0  0  0  0  0  0  0  0
   -6.5530    1.3212   -2.6102 C   0  0  0  0  0  0  0  0  0  0  0  0
   -5.3552    1.5774   -2.0178 C   0  0  0  0  0  0  0  0  0  0  0  0
   -4.7407    0.6240   -1.2367 C   0  0  0  0  0  0  0  0  0  0  0  0
   -3.5219    0.8481   -0.6192 C   0  0  0  0  0  0  0  0  0  0  0  0
    4.9308    0.4451    1.3364 N   0  0  0  0  0  0  0  0  0  0  0  0
    5.3365    0.3349    0.0721 C   0  0  0  0  0  0  0  0  0  0  0  0
    6.3964    0.8517   -0.6562 C   0  0  0  0  0  0  0  0  0  0  0  0
    6.5572    0.5511   -1.9751 C   0  0  0  0  0  0  0  0  0  0  0  0
    5.6507   -0.2784   -2.5882 C   0  0  0  0  0  0  0  0  0  0  0  0
    4.6059   -0.7864   -1.8658 C   0  0  0  0  0  0  0  0  0  0  0  0
    4.4234   -0.4963   -0.5315 C   0  0  0  0  0  0  0  0  0  0  0  0
  1  2  1  0
  2  3  1  0
  3  4  1  0
  4  5  1  0
  5  6  1  0
  6  7  1  0
  7  8  2  0
  7  9  1  0
  9 10  1  0
 10 11  2  0
 11 12  1  0
 11 13  1  0
 13 14  2  0
 14 15  1  0
 15 16  2  0
 16 17  1  0
 17 18  2  0
 18 19  1  0
 19 20  2  0
 20 21  1  0
 21 22  2  0
  4 23  2  0
 23 24  1  0
 24 25  2  0
 25 26  1  0
 26 27  2  0
 27 28  1  0
 28 29  2  0
 29  3  1  0
 22 13  1  0
 29 24  1  0
 21 16  1  0
M  END
>  <zinc_id>  (1) 
ZINC000001477319

>  <smiles>  (1) 
CCn1c(SCC(=O)N/N=C(\C)c2ccc3ccccc3c2)nc2ccccc21

$$$$
