
     RDKit          3D

 33 38  0  0  0  0  0  0  0  0999 V2000
   -3.7735   -0.7006    1.0460 O   0  0  0  0  0  0  0  0  0  0  0  0
   -2.8078   -1.4254    0.7593 C   0  0  0  0  0  0  0  0  0  0  0  0
   -2.8465   -2.9055    0.8095 C   0  0  0  0  0  0  0  0  0  0  0  0
   -4.0040   -3.5457    1.1920 C   0  0  0  0  0  0  0  0  0  0  0  0
   -4.1114   -4.9187    1.2612 C   0  0  0  0  0  0  0  0  0  0  0  0
   -3.0107   -5.6935    0.9330 C   0  0  0  0  0  0  0  0  0  0  0  0
   -1.8219   -5.0634    0.5409 C   0  0  0  0  0  0  0  0  0  0  0  0
   -1.7622   -3.6926    0.4869 C   0  0  0  0  0  0  0  0  0  0  0  0
   -0.5223   -3.0083    0.0772 C   0  0  0  0  0  0  0  0  0  0  0  0
    0.6741   -3.3929   -0.2912 O   0  0  0  0  0  0  0  0  0  0  0  0
    1.4381   -2.3404   -0.5598 N   0  0  0  0  0  0  0  0  0  0  0  0
    0.7393   -1.2078   -0.3679 C   0  0  0  0  0  0  0  0  0  0  0  0
    0.9146    0.1573   -0.4584 C   0  0  0  0  0  0  0  0  0  0  0  0
    2.1732    0.6246   -0.8684 N   0  0  0  0  0  0  0  0  0  0  0  0
    2.3862    2.0572   -0.9725 C   0  0  0  0  0  0  0  0  0  0  0  0
    3.8099    2.2824   -1.4285 C   0  0  0  0  0  0  0  0  0  0  0  0
    4.7096    1.6681   -0.3906 C   0  0  0  0  0  0  0  0  0  0  0  0
    5.5725    2.4469    0.2355 C   0  0  0  0  0  0  0  0  0  0  0  0
    6.4666    1.8165    1.2724 C   0  0  0  0  0  0  0  0  0  0  0  0
    5.5865    0.8667    2.0590 C   0  0  0  0  0  0  0  0  0  0  0  0
    5.0002   -0.2169    1.2142 C   0  0  0  0  0  0  0  0  0  0  0  0
    4.5621    0.2219   -0.1431 C   0  0  0  0  0  0  0  0  0  0  0  0
   -0.1494    1.0218   -0.1441 C   0  0  0  0  0  0  0  0  0  0  0  0
   -1.3853    0.5662    0.2583 C   0  0  0  0  0  0  0  0  0  0  0  0
   -2.4466    1.4440    0.5714 N   0  0  0  0  0  0  0  0  0  0  0  0
   -2.3553    2.8479    0.5065 C   0  0  0  0  0  0  0  0  0  0  0  0
   -3.3981    3.6915    0.8146 C   0  0  0  0  0  0  0  0  0  0  0  0
   -3.3075    5.0650    0.7507 C   0  0  0  0  0  0  0  0  0  0  0  0
   -2.0856    5.5954    0.3506 C   0  0  0  0  0  0  0  0  0  0  0  0
   -1.0269    4.7764    0.0368 C   0  0  0  0  0  0  0  0  0  0  0  0
   -1.1624    3.4142    0.1147 C   0  0  0  0  0  0  0  0  0  0  0  0
   -1.5514   -0.8106    0.3462 C   0  0  0  0  0  0  0  0  0  0  0  0
   -0.5040   -1.6417    0.0364 C   0  0  0  0  0  0  0  0  0  0  0  0
  1  2  2  0
  2  3  1  0
  3  4  2  0
  4  5  1  0
  5  6  2  0
  6  7  1  0
  7  8  2  0
  8  9  1  0
  9 10  1  0
 10 11  1  0
 11 12  2  0
 12 13  1  0
 13 14  1  0
 14 15  1  0
 15 16  1  0
 16 17  1  0
 17 18  2  0
 18 19  1  0
 19 20  1  0
 20 21  1  0
 21 22  1  0
 13 23  2  0
 23 24  1  0
 24 25  1  0
 25 26  1  0
 26 27  2  0
 27 28  1  0
 28 29  2  0
 29 30  1  0
 30 31  2  0
 24 32  2  0
 32 33  1  0
 32  2  1  0
  8  3  1  0
 33  9  2  0
 33 12  1  0
 22 17  1  0
 31 26  1  0
M  END
>  <zinc_id>  (1) 
ZINC000002292027

>  <smiles>  (1) 
O=C1c2ccccc2-c2onc3c(NCCC4=CCCCC4)cc(Nc4ccccc4)c1c23

$$$$
