
     RDKit          3D

 31 34  0  0  0  0  0  0  0  0999 V2000
   -6.0830   -4.7931    1.0105 C   0  0  0  0  0  0  0  0  0  0  0  0
   -6.5510   -3.3545    0.8374 C   0  0  0  0  0  0  0  0  0  0  0  0
   -5.4190   -2.5591    0.6706 O   0  0  0  0  0  0  0  0  0  0  0  0
   -5.4400   -1.1883    0.4839 C   0  0  0  0  0  0  0  0  0  0  0  0
   -6.6124   -0.4636    0.4446 C   0  0  0  0  0  0  0  0  0  0  0  0
   -6.6648    0.9018    0.2602 C   0  0  0  0  0  0  0  0  0  0  0  0
   -5.4593    1.5507    0.1097 C   0  0  0  0  0  0  0  0  0  0  0  0
   -4.2509    0.8878    0.1388 C   0  0  0  0  0  0  0  0  0  0  0  0
   -4.2576   -0.4957    0.3286 C   0  0  0  0  0  0  0  0  0  0  0  0
   -3.0014   -1.2911    0.3734 C   0  0  0  0  0  0  0  0  0  0  0  0
   -1.9052   -0.3588    0.1896 N   0  0  0  0  0  0  0  0  0  0  0  0
   -0.5673   -0.7737    0.1782 C   0  0  0  0  0  0  0  0  0  0  0  0
   -0.3291   -2.0053    0.3348 O   0  0  0  0  0  0  0  0  0  0  0  0
    0.5703    0.1522   -0.0068 C   0  0  0  0  0  0  0  0  0  0  0  0
    1.8627   -0.3162   -0.0086 C   0  0  0  0  0  0  0  0  0  0  0  0
    2.8837    0.5921   -0.1852 C   0  0  0  0  0  0  0  0  0  0  0  0
    4.2890    0.1905   -0.2018 C   0  0  0  0  0  0  0  0  0  0  0  0
    5.3098    1.1003   -0.3785 C   0  0  0  0  0  0  0  0  0  0  0  0
    6.6451    0.7432   -0.3977 C   0  0  0  0  0  0  0  0  0  0  0  0
    6.9352   -0.5951   -0.2291 C   0  0  0  0  0  0  0  0  0  0  0  0
    8.3623   -1.0674   -0.2371 C   0  0  0  0  0  0  0  0  0  0  0  0
    5.9597   -1.5606   -0.0470 C   0  0  0  0  0  0  0  0  0  0  0  0
    6.3119   -3.0081    0.1334 C   0  0  0  0  0  0  0  0  0  0  0  0
    4.6488   -1.1314   -0.0390 C   0  0  0  0  0  0  0  0  0  0  0  0
    2.5961    1.9040   -0.3503 N   0  0  0  0  0  0  0  0  0  0  0  0
    1.3385    2.3677   -0.3497 C   0  0  0  0  0  0  0  0  0  0  0  0
    1.0763    3.7295   -0.5231 C   0  0  0  0  0  0  0  0  0  0  0  0
   -0.2338    4.1626   -0.5156 C   0  0  0  0  0  0  0  0  0  0  0  0
   -1.2781    3.2645   -0.3392 C   0  0  0  0  0  0  0  0  0  0  0  0
   -1.0310    1.9222   -0.1678 C   0  0  0  0  0  0  0  0  0  0  0  0
    0.2943    1.4929   -0.1765 C   0  0  0  0  0  0  0  0  0  0  0  0
  1  2  1  0
  2  3  1  0
  3  4  1  0
  4  5  2  0
  5  6  1  0
  6  7  2  0
  7  8  1  0
  8  9  2  0
  9 10  1  0
 10 11  1  0
 11 12  1  0
 12 13  2  0
 12 14  1  0
 14 15  2  0
 15 16  1  0
 16 17  1  0
 17 18  2  0
 18 19  1  0
 19 20  2  0
 20 21  1  0
 20 22  1  0
 22 23  1  0
 22 24  2  0
 16 25  2  0
 25 26  1  0
 26 27  2  0
 27 28  1  0
 28 29  2  0
 29 30  1  0
 30 31  2  0
  9  4  1  0
 31 14  1  0
 24 17  1  0
 31 26  1  0
M  END
>  <zinc_id>  (1) 
ZINC000003046026

>  <smiles>  (1) 
CCOc1ccccc1CNC(=O)c1cc(-c2ccc(C)c(C)c2)nc2ccccc12

$$$$
