
     RDKit          3D

 30 33  0  0  0  0  0  0  0  0999 V2000
   -5.1369    4.4551   -0.0227 C   0  0  0  0  0  0  0  0  0  0  0  0
   -6.2803    3.4401   -0.0045 C   0  0  0  0  0  0  0  0  0  0  0  0
   -5.8840    2.3155    0.7217 O   0  0  0  0  0  0  0  0  0  0  0  0
   -4.7923    1.5116    0.3887 C   0  0  0  0  0  0  0  0  0  0  0  0
   -3.9800    1.7365   -0.6960 C   0  0  0  0  0  0  0  0  0  0  0  0
   -2.9199    0.8928   -0.9557 C   0  0  0  0  0  0  0  0  0  0  0  0
   -2.6214   -0.2076   -0.1531 C   0  0  0  0  0  0  0  0  0  0  0  0
   -1.5133   -1.0561   -0.4728 N   0  0  0  0  0  0  0  0  0  0  0  0
   -0.3963   -0.7258   -1.1600 C   0  0  0  0  0  0  0  0  0  0  0  0
   -0.1096    0.9465   -1.7810 S   0  0  0  0  0  0  0  0  0  0  0  0
    0.7849    1.8581   -0.4901 C   0  0  0  0  0  0  0  0  0  0  0  0
    2.1512    1.2787   -0.3455 C   0  0  0  0  0  0  0  0  0  0  0  0
    2.5056    0.3236   -1.1187 O   0  0  0  0  0  0  0  0  0  0  0  0
    3.1000    1.7139    0.5979 N   0  0  0  0  0  0  0  0  0  0  0  0
    4.3975    1.0837    0.6462 C   0  0  0  0  0  0  0  0  0  0  0  0
    4.7203    0.0810   -0.2482 C   0  0  0  0  0  0  0  0  0  0  0  0
    5.9502   -0.5601   -0.2634 C   0  0  0  0  0  0  0  0  0  0  0  0
    6.8674   -0.1511    0.6726 C   0  0  0  0  0  0  0  0  0  0  0  0
    6.5972    0.8439    1.5880 C   0  0  0  0  0  0  0  0  0  0  0  0
    5.3405    1.4585    1.5602 C   0  0  0  0  0  0  0  0  0  0  0  0
    5.0548    2.5416    2.5626 C   0  0  0  0  0  0  0  0  0  0  0  0
    0.4086   -1.7957   -1.2661 N   0  0  0  0  0  0  0  0  0  0  0  0
   -0.1786   -2.8452   -0.6438 C   0  0  0  0  0  0  0  0  0  0  0  0
    0.1615   -4.1697   -0.4276 C   0  0  0  0  0  0  0  0  0  0  0  0
   -0.7175   -4.9613    0.2728 C   0  0  0  0  0  0  0  0  0  0  0  0
   -1.9147   -4.4873    0.7634 C   0  0  0  0  0  0  0  0  0  0  0  0
   -2.2653   -3.1719    0.5557 C   0  0  0  0  0  0  0  0  0  0  0  0
   -1.3732   -2.3614   -0.1579 C   0  0  0  0  0  0  0  0  0  0  0  0
   -3.4446   -0.4177    0.9279 C   0  0  0  0  0  0  0  0  0  0  0  0
   -4.5119    0.4299    1.1924 C   0  0  0  0  0  0  0  0  0  0  0  0
  1  2  1  0
  2  3  1  0
  3  4  1  0
  4  5  2  0
  5  6  1  0
  6  7  2  0
  7  8  1  0
  8  9  1  0
  9 10  1  0
 10 11  1  0
 11 12  1  0
 12 13  2  0
 12 14  1  0
 14 15  1  0
 15 16  2  0
 16 17  1  0
 17 18  2  0
 18 19  1  0
 19 20  2  0
 20 21  1  0
  9 22  2  0
 22 23  1  0
 23 24  2  0
 24 25  1  0
 25 26  2  0
 26 27  1  0
 27 28  2  0
  7 29  1  0
 29 30  2  0
 30  4  1  0
 28  8  1  0
 20 15  1  0
 28 23  1  0
M  END
>  <zinc_id>  (1) 
ZINC000004400560

>  <smiles>  (1) 
CCOc1ccc(-n2c(SCC(=O)Nc3ccccc3C)nc3ccccc32)cc1

$$$$
