
     RDKit          3D

 30 33  0  0  0  0  0  0  0  0999 V2000
   -7.0509    1.8052    0.3756 C   0  0  0  0  0  0  0  0  0  0  0  0
   -6.4983    0.8401    1.4111 C   0  0  0  0  0  0  0  0  0  0  0  0
   -5.2421    0.2792    0.9347 N   0  0  0  0  0  0  0  0  0  0  0  0
   -5.1337   -0.8519    0.2017 C   0  0  0  0  0  0  0  0  0  0  0  0
   -6.0724   -1.7446   -0.2805 C   0  0  0  0  0  0  0  0  0  0  0  0
   -5.6653   -2.8348   -1.0151 C   0  0  0  0  0  0  0  0  0  0  0  0
   -4.3180   -3.0030   -1.2494 C   0  0  0  0  0  0  0  0  0  0  0  0
   -3.3938   -2.1039   -0.7620 C   0  0  0  0  0  0  0  0  0  0  0  0
   -3.7837   -1.0053   -0.0233 C   0  0  0  0  0  0  0  0  0  0  0  0
   -3.0770    0.0227    0.5672 C   0  0  0  0  0  0  0  0  0  0  0  0
   -1.7266    0.3468    0.6478 C   0  0  0  0  0  0  0  0  0  0  0  0
   -1.2926    1.4699    1.3250 C   0  0  0  0  0  0  0  0  0  0  0  0
    0.0936    1.8136    1.4156 N   0  0  0  0  0  0  0  0  0  0  0  0
    1.0302    0.9557    0.7772 C   0  0  0  0  0  0  0  0  0  0  0  0
    0.6729   -0.0718    0.1510 O   0  0  0  0  0  0  0  0  0  0  0  0
    2.4772    1.2704    0.8442 C   0  0  0  0  0  0  0  0  0  0  0  0
    3.2371    0.3095    0.1416 O   0  0  0  0  0  0  0  0  0  0  0  0
    3.0798    0.0785   -1.2045 C   0  0  0  0  0  0  0  0  0  0  0  0
    2.1992    0.7880   -1.8006 O   0  0  0  0  0  0  0  0  0  0  0  0
    3.8012   -0.8833   -2.0333 C   0  0  0  0  0  0  0  0  0  0  0  0
    4.8418   -1.6870   -1.3409 C   0  0  0  0  0  0  0  0  0  0  0  0
    5.9282   -0.8868   -0.7398 C   0  0  0  0  0  0  0  0  0  0  0  0
    5.8334   -0.4554    0.5437 C   0  0  0  0  0  0  0  0  0  0  0  0
    6.8261    0.2926    1.1399 C   0  0  0  0  0  0  0  0  0  0  0  0
    7.9435    0.5995    0.3850 C   0  0  0  0  0  0  0  0  0  0  0  0
    8.0841    0.1895   -0.9058 C   0  0  0  0  0  0  0  0  0  0  0  0
    7.0722   -0.5572   -1.4720 C   0  0  0  0  0  0  0  0  0  0  0  0
   -2.2489    2.2664    1.9240 C   0  0  0  0  0  0  0  0  0  0  0  0
   -3.5856    1.9384    1.8397 C   0  0  0  0  0  0  0  0  0  0  0  0
   -4.0314    0.8190    1.1659 C   0  0  0  0  0  0  0  0  0  0  0  0
  1  2  1  0
  2  3  1  0
  3  4  1  0
  4  5  2  0
  5  6  1  0
  6  7  2  0
  7  8  1  0
  8  9  2  0
  9 10  1  0
 10 11  2  0
 11 12  1  0
 12 13  1  0
 13 14  1  0
 14 15  2  0
 14 16  1  0
 16 17  1  0
 17 18  1  0
 18 19  2  0
 18 20  1  0
 20 21  1  0
 21 22  1  0
 22 23  2  0
 23 24  1  0
 24 25  2  0
 25 26  1  0
 26 27  2  0
 12 28  2  0
 28 29  1  0
 29 30  2  0
 30  3  1  0
  9  4  1  0
 30 10  1  0
 27 22  1  0
M  END
>  <zinc_id>  (1) 
ZINC000002635811

>  <smiles>  (1) 
CCn1c2ccccc2c2cc(NC(=O)COC(=O)CCc3ccccc3)ccc21

$$$$
