
     RDKit          3D

 31 34  0  0  0  0  0  0  0  0999 V2000
   -3.9215   -0.3800    3.8623 C   0  0  0  0  0  0  0  0  0  0  0  0
   -2.9293   -0.6845    2.9055 O   0  0  0  0  0  0  0  0  0  0  0  0
   -3.0744   -1.7450    1.9811 C   0  0  0  0  0  0  0  0  0  0  0  0
   -4.2563   -2.4519    2.0905 C   0  0  0  0  0  0  0  0  0  0  0  0
   -4.4839   -3.5053    1.2281 C   0  0  0  0  0  0  0  0  0  0  0  0
   -3.5416   -3.8356    0.2798 C   0  0  0  0  0  0  0  0  0  0  0  0
   -2.3870   -3.1029    0.2136 C   0  0  0  0  0  0  0  0  0  0  0  0
   -2.1394   -2.0710    1.0419 C   0  0  0  0  0  0  0  0  0  0  0  0
   -0.8729   -1.2188    1.0760 C   0  0  1  0  0  0  0  0  0  0  0  0
   -0.0071   -1.6397   -0.1547 C   0  0  0  0  0  0  0  0  0  0  0  0
    1.2090   -0.8022   -0.0980 C   0  0  0  0  0  0  0  0  0  0  0  0
    1.3583    0.0301    0.8203 O   0  0  0  0  0  0  0  0  0  0  0  0
    2.2514   -0.8942   -1.0611 N   0  0  0  0  0  0  0  0  0  0  0  0
    3.4239   -0.0956   -1.0177 C   0  0  0  0  0  0  0  0  0  0  0  0
    3.5074    0.7962    0.0276 C   0  0  0  0  0  0  0  0  0  0  0  0
    4.5833    1.6407    0.2070 C   0  0  0  0  0  0  0  0  0  0  0  0
    5.6096    1.5763   -0.7079 C   0  0  0  0  0  0  0  0  0  0  0  0
    6.8233    2.4610   -0.5906 C   0  0  0  0  0  0  0  0  0  0  0  0
    5.5170    0.6772   -1.7551 C   0  0  0  0  0  0  0  0  0  0  0  0
    6.6093    0.5788   -2.7661 C   0  0  0  0  0  0  0  0  0  0  0  0
    4.4331   -0.1595   -1.9181 C   0  0  0  0  0  0  0  0  0  0  0  0
   -1.2186    0.2593    0.8205 C   0  0  0  0  0  0  0  0  0  0  0  0
   -1.0871    1.1333    1.9427 C   0  0  0  0  0  0  0  0  0  0  0  0
   -1.4188    2.3745    1.5858 N   0  0  0  0  0  0  0  0  0  0  0  0
   -1.7500    2.2919    0.2809 C   0  0  0  0  0  0  0  0  0  0  0  0
   -2.1693    3.2447   -0.6020 C   0  0  0  0  0  0  0  0  0  0  0  0
   -2.4601    2.9299   -1.9088 C   0  0  0  0  0  0  0  0  0  0  0  0
   -2.3211    1.6338   -2.3127 C   0  0  0  0  0  0  0  0  0  0  0  0
   -1.8981    0.6751   -1.4205 C   0  0  0  0  0  0  0  0  0  0  0  0
   -1.7723   -0.7063   -1.8953 C   0  0  0  0  0  0  0  0  0  0  0  0
   -1.6169    0.9899   -0.1517 N   0  0  0  0  0  0  0  0  0  0  0  0
  1  2  1  0
  2  3  1  0
  3  4  2  0
  4  5  1  0
  5  6  2  0
  6  7  1  0
  7  8  2  0
  8  9  1  0
  9 10  1  6
 10 11  1  0
 11 12  2  0
 11 13  1  0
 13 14  1  0
 14 15  2  0
 15 16  1  0
 16 17  2  0
 17 18  1  0
 17 19  1  0
 19 20  1  0
 19 21  2  0
  9 22  1  0
 22 23  2  0
 23 24  1  0
 24 25  2  0
 25 26  1  0
 26 27  2  0
 27 28  1  0
 28 29  2  0
 29 30  1  0
 29 31  1  0
  8  3  1  0
 21 14  1  0
 31 22  1  0
 31 25  1  0
M  END
>  <zinc_id>  (1) 
ZINC000004172817

>  <smiles>  (1) 
COc1ccccc1[C@@H](CC(=O)Nc1ccc(C)c(C)c1)c1cnc2cccc(C)n12

$$$$
