
     RDKit          3D

 34 38  0  0  0  0  0  0  0  0999 V2000
   -2.2622   -4.7794   -0.5831 C   0  0  0  0  0  0  0  0  0  0  0  0
   -3.2685   -3.7212   -0.8435 C   0  0  0  0  0  0  0  0  0  0  0  0
   -4.3100   -3.9874   -1.4392 O   0  0  0  0  0  0  0  0  0  0  0  0
   -2.9893   -2.3670   -0.3764 C   0  0  0  0  0  0  0  0  0  0  0  0
   -3.8889   -1.3238   -0.5917 C   0  0  0  0  0  0  0  0  0  0  0  0
   -3.6669   -0.0351   -0.1592 C   0  0  0  0  0  0  0  0  0  0  0  0
   -4.6766    1.0240   -0.3982 C   0  0  0  0  0  0  0  0  0  0  0  0
   -5.0458    1.8858    0.6125 C   0  0  0  0  0  0  0  0  0  0  0  0
   -5.9978    2.8785    0.3598 C   0  0  0  0  0  0  0  0  0  0  0  0
   -6.5606    3.0012   -0.8780 C   0  0  0  0  0  0  0  0  0  0  0  0
   -6.1887    2.1392   -1.8843 C   0  0  0  0  0  0  0  0  0  0  0  0
   -5.2393    1.1502   -1.6264 C   0  0  0  0  0  0  0  0  0  0  0  0
   -2.4868    0.2171    0.5173 C   0  0  0  0  0  0  0  0  0  0  0  0
   -2.2319    1.5032    0.9613 C   0  0  0  0  0  0  0  0  0  0  0  0
   -1.0570    1.7548    1.6344 C   0  0  0  0  0  0  0  0  0  0  0  0
   -0.1092    0.7583    1.8878 C   0  0  0  0  0  0  0  0  0  0  0  0
    1.0116    1.1595    2.5742 O   0  0  0  0  0  0  0  0  0  0  0  0
    2.1013    0.4197    2.9757 C   0  0  0  0  0  0  0  0  0  0  0  0
    2.8146   -0.1774    1.8384 C   0  0  0  0  0  0  0  0  0  0  0  0
    2.3728   -1.3255    1.2376 C   0  0  0  0  0  0  0  0  0  0  0  0
    3.0286   -1.9327    0.1771 C   0  0  0  0  0  0  0  0  0  0  0  0
    4.1749   -1.3393   -0.2723 C   0  0  0  0  0  0  0  0  0  0  0  0
    4.6853   -0.1712    0.2871 C   0  0  0  0  0  0  0  0  0  0  0  0
    5.9436    0.4062   -0.2551 C   0  0  0  0  0  0  0  0  0  0  0  0
    7.0414    0.0030    0.5139 O   0  0  0  0  0  0  0  0  0  0  0  0
    5.8627    1.8998   -0.3966 C   0  0  0  0  0  0  0  0  0  0  0  0
    4.6945    2.2371   -1.2835 C   0  0  0  0  0  0  0  0  0  0  0  0
    4.3326    1.2078   -2.1482 O   0  0  0  0  0  0  0  0  0  0  0  0
    5.4908    0.6629   -2.6865 C   0  0  0  0  0  0  0  0  0  0  0  0
    6.1699   -0.2001   -1.6390 C   0  0  0  0  0  0  0  0  0  0  0  0
    3.9849    0.3884    1.3362 C   0  0  0  0  0  0  0  0  0  0  0  0
   -0.3546   -0.5165    1.4513 C   0  0  0  0  0  0  0  0  0  0  0  0
   -1.5395   -0.7748    0.7693 C   0  0  0  0  0  0  0  0  0  0  0  0
   -1.8357   -2.0454    0.3045 C   0  0  0  0  0  0  0  0  0  0  0  0
  1  2  1  0
  2  3  2  0
  2  4  1  0
  4  5  2  0
  5  6  1  0
  6  7  1  0
  7  8  2  0
  8  9  1  0
  9 10  2  0
 10 11  1  0
 11 12  2  0
  6 13  2  0
 13 14  1  0
 14 15  2  0
 15 16  1  0
 16 17  1  0
 17 18  1  0
 18 19  1  0
 19 20  2  0
 20 21  1  0
 21 22  2  0
 22 23  1  0
 23 24  1  0
 24 25  1  0
 24 26  1  0
 26 27  1  0
 27 28  1  0
 28 29  1  0
 29 30  1  0
 23 31  2  0
 16 32  2  0
 32 33  1  0
 33 34  2  0
 34  4  1  0
 12  7  1  0
 33 13  1  0
 31 19  1  0
 30 24  1  0
M  END
>  <zinc_id>  (1) 
ZINC000000834464

>  <smiles>  (1) 
CC(=O)c1cc(-c2ccccc2)c2ccc(OCc3cccc(C4(O)CCOCC4)c3)cc2c1

$$$$
