
     RDKit          3D

 31 34  0  0  0  0  0  0  0  0999 V2000
   -3.1042   -1.3135   -1.9689 C   0  0  0  0  0  0  0  0  0  0  0  0
   -4.2744   -0.9915   -1.1223 C   0  0  0  0  0  0  0  0  0  0  0  0
   -5.5036   -1.0458   -1.7923 C   0  0  0  0  0  0  0  0  0  0  0  0
   -6.6465   -0.7931   -1.1057 C   0  0  0  0  0  0  0  0  0  0  0  0
   -6.5549   -0.4887    0.2395 C   0  0  0  0  0  0  0  0  0  0  0  0
   -5.3555   -0.4327    0.9047 C   0  0  0  0  0  0  0  0  0  0  0  0
   -4.1625   -0.6952    0.1931 C   0  0  0  0  0  0  0  0  0  0  0  0
   -2.8951   -0.5971    0.9258 C   0  0  0  0  0  0  0  0  0  0  0  0
   -2.1716    0.6265    0.8028 N   0  0  0  0  0  0  0  0  0  0  0  0
   -2.5006    1.7539    1.5209 C   0  0  0  0  0  0  0  0  0  0  0  0
   -1.6623    2.7786    1.1416 C   0  0  0  0  0  0  0  0  0  0  0  0
   -0.8315    2.2334    0.1869 C   0  0  0  0  0  0  0  0  0  0  0  0
   -1.1592    0.8837   -0.0163 C   0  0  0  0  0  0  0  0  0  0  0  0
   -0.3839    0.0789   -0.9752 C   0  0  0  0  0  0  0  0  0  0  0  0
    0.9128   -0.1571   -0.6544 N   0  0  0  0  0  0  0  0  0  0  0  0
    1.9366   -0.7587   -1.2410 C   0  0  0  0  0  0  0  0  0  0  0  0
    2.5838   -0.1120   -2.5727 C   0  0  2  0  0  0  0  0  0  0  0  0
    3.6191   -1.2137   -2.6929 O   0  0  0  0  0  0  0  0  0  0  0  0
    3.5397    0.9297   -1.7486 C   0  0  0  0  0  0  0  0  0  0  0  0
    4.4534    0.2415   -0.8850 C   0  0  0  0  0  0  0  0  0  0  0  0
    4.2728   -0.1336    0.4267 C   0  0  0  0  0  0  0  0  0  0  0  0
    5.2264   -0.7917    1.1754 C   0  0  0  0  0  0  0  0  0  0  0  0
    6.4538   -1.1035    0.5822 C   0  0  0  0  0  0  0  0  0  0  0  0
    6.6801   -0.7532   -0.7135 C   0  0  0  0  0  0  0  0  0  0  0  0
    5.7043   -0.0968   -1.4291 C   0  0  0  0  0  0  0  0  0  0  0  0
    0.9582   -0.7784    0.6535 C   0  0  0  0  0  0  0  0  0  0  0  0
    0.2400   -2.0494    0.5942 C   0  0  0  0  0  0  0  0  0  0  0  0
    0.0215   -2.5694    1.9890 C   0  0  0  0  0  0  0  0  0  0  0  0
   -0.3974   -1.5268    2.9580 C   0  0  0  0  0  0  0  0  0  0  0  0
    0.4600   -0.2992    3.0139 C   0  0  0  0  0  0  0  0  0  0  0  0
    0.5405    0.2467    1.6097 C   0  0  0  0  0  0  0  0  0  0  0  0
  1  2  1  0
  2  3  2  0
  3  4  1  0
  4  5  2  0
  5  6  1  0
  6  7  2  0
  7  8  1  0
  8  9  1  0
  9 10  1  0
 10 11  2  0
 11 12  1  0
 12 13  2  0
 13 14  1  0
 14 15  1  0
 15 16  1  0
 16 17  1  0
 17 18  1  1
 17 19  1  0
 19 20  1  0
 20 21  2  0
 21 22  1  0
 22 23  2  0
 23 24  1  0
 24 25  2  0
 15 26  1  0
 26 27  1  0
 27 28  1  0
 28 29  1  0
 29 30  1  0
 30 31  1  0
  7  2  1  0
 13  9  1  0
 25 20  1  0
 31 26  1  0
M  END
>  <zinc_id>  (1) 
ZINC000004357820

>  <smiles>  (1) 
Cc1ccccc1Cn1cccc1CN(C[C@H](O)Cc1ccccc1)C1CCCCC1

$$$$
