
     RDKit          3D

 30 32  0  0  0  0  0  0  0  0999 V2000
    5.4134    4.2336   -1.5936 C   0  0  0  0  0  0  0  0  0  0  0  0
    5.2720    2.7243   -1.8005 C   0  0  0  0  0  0  0  0  0  0  0  0
    6.5699    2.1094   -1.3161 C   0  0  0  0  0  0  0  0  0  0  0  0
    6.5884    0.6209   -1.4538 C   0  0  0  0  0  0  0  0  0  0  0  0
    5.4698    0.0507   -0.6452 C   0  0  0  0  0  0  0  0  0  0  0  0
    5.6463   -0.3009    0.6765 C   0  0  0  0  0  0  0  0  0  0  0  0
    4.6032   -0.8286    1.4174 C   0  0  0  0  0  0  0  0  0  0  0  0
    3.3496   -1.0272    0.8780 C   0  0  0  0  0  0  0  0  0  0  0  0
    2.3082   -1.5748    1.6858 N   0  0  0  0  0  0  0  0  0  0  0  0
    0.9992   -1.8067    1.2027 C   0  0  0  0  0  0  0  0  0  0  0  0
    0.7613   -1.5107    0.0048 O   0  0  0  0  0  0  0  0  0  0  0  0
   -0.0796   -2.3839    2.0722 C   0  0  0  0  0  0  0  0  0  0  0  0
   -1.2824   -2.5230    1.3853 O   0  0  0  0  0  0  0  0  0  0  0  0
   -1.9692   -1.4468    0.8078 C   0  0  0  0  0  0  0  0  0  0  0  0
   -1.4346   -0.3360    0.9450 O   0  0  0  0  0  0  0  0  0  0  0  0
   -3.2134   -1.7358    0.1207 C   0  0  0  0  0  0  0  0  0  0  0  0
   -3.6677   -3.0330    0.0010 C   0  0  0  0  0  0  0  0  0  0  0  0
   -4.8078   -3.3937   -0.6513 C   0  0  0  0  0  0  0  0  0  0  0  0
   -5.5728   -2.4104   -1.2381 C   0  0  0  0  0  0  0  0  0  0  0  0
   -5.1609   -1.1141   -1.1436 C   0  0  0  0  0  0  0  0  0  0  0  0
   -3.9804   -0.7591   -0.4652 C   0  0  0  0  0  0  0  0  0  0  0  0
   -3.6857    0.6634   -0.4176 C   0  0  0  0  0  0  0  0  0  0  0  0
   -3.4513    1.3537    0.7456 C   0  0  0  0  0  0  0  0  0  0  0  0
   -3.1722    2.7027    0.7865 C   0  0  0  0  0  0  0  0  0  0  0  0
   -3.1148    3.4391   -0.3771 C   0  0  0  0  0  0  0  0  0  0  0  0
   -2.8130    4.9082   -0.3603 C   0  0  0  0  0  0  0  0  0  0  0  0
   -3.3457    2.7743   -1.5624 C   0  0  0  0  0  0  0  0  0  0  0  0
   -3.6240    1.4255   -1.5927 C   0  0  0  0  0  0  0  0  0  0  0  0
    3.1767   -0.6746   -0.4441 C   0  0  0  0  0  0  0  0  0  0  0  0
    4.2177   -0.1465   -1.1880 C   0  0  0  0  0  0  0  0  0  0  0  0
  1  2  1  0
  2  3  1  0
  3  4  1  0
  4  5  1  0
  5  6  2  0
  6  7  1  0
  7  8  2  0
  8  9  1  0
  9 10  1  0
 10 11  2  0
 10 12  1  0
 12 13  1  0
 13 14  1  0
 14 15  2  0
 14 16  1  0
 16 17  2  0
 17 18  1  0
 18 19  2  0
 19 20  1  0
 20 21  2  0
 21 22  1  0
 22 23  2  0
 23 24  1  0
 24 25  2  0
 25 26  1  0
 25 27  1  0
 27 28  2  0
  8 29  1  0
 29 30  2  0
 30  5  1  0
 21 16  1  0
 28 22  1  0
M  END
>  <zinc_id>  (1) 
ZINC000003230144

>  <smiles>  (1) 
CCCCc1ccc(NC(=O)COC(=O)c2ccccc2-c2ccc(C)cc2)cc1

$$$$
