
     RDKit          3D

 31 34  0  0  0  0  0  0  0  0999 V2000
    4.7912    2.1002    1.9573 C   0  0  0  0  0  0  0  0  0  0  0  0
    5.5187    1.0786    1.3056 O   0  0  0  0  0  0  0  0  0  0  0  0
    4.8827    0.1008    0.5457 C   0  0  0  0  0  0  0  0  0  0  0  0
    3.5091    0.0856    0.3946 C   0  0  0  0  0  0  0  0  0  0  0  0
    2.8954   -0.8906   -0.3618 C   0  0  0  0  0  0  0  0  0  0  0  0
    1.4256   -0.9124   -0.5275 C   0  0  0  0  0  0  0  0  0  0  0  0
    0.6857   -0.0325    0.0223 N   0  0  0  0  0  0  0  0  0  0  0  0
   -0.6876    0.0494   -0.0598 N   0  0  0  0  0  0  0  0  0  0  0  0
   -1.5228    0.5124    0.9911 C   0  0  0  0  0  0  0  0  0  0  0  0
   -1.0101    0.8725    2.0625 O   0  0  0  0  0  0  0  0  0  0  0  0
   -2.9718    0.5412    0.7509 C   0  0  0  0  0  0  0  0  0  0  0  0
   -3.6449    0.1674   -0.3920 C   0  0  0  0  0  0  0  0  0  0  0  0
   -4.9981    0.3574   -0.1817 C   0  0  0  0  0  0  0  0  0  0  0  0
   -5.0911    0.8478    1.1045 C   0  0  0  0  0  0  0  0  0  0  0  0
   -6.3561    1.1406    1.6078 C   0  0  0  0  0  0  0  0  0  0  0  0
   -7.4813    0.9372    0.8199 C   0  0  0  0  0  0  0  0  0  0  0  0
   -7.3991    0.4463   -0.4700 C   0  0  0  0  0  0  0  0  0  0  0  0
   -8.5218    0.2418   -1.2605 C   0  0  0  0  0  0  0  0  0  0  0  0
   -8.3854   -0.2532   -2.5493 C   0  0  0  0  0  0  0  0  0  0  0  0
   -7.1356   -0.5368   -3.0317 C   0  0  0  0  0  0  0  0  0  0  0  0
   -6.0289   -0.3260   -2.2281 C   0  0  0  0  0  0  0  0  0  0  0  0
   -6.1351    0.1647   -0.9437 C   0  0  0  0  0  0  0  0  0  0  0  0
   -3.8772    0.9415    1.6193 O   0  0  0  0  0  0  0  0  0  0  0  0
    3.6879   -1.8466   -0.9602 C   0  0  0  0  0  0  0  0  0  0  0  0
    5.0608   -1.8557   -0.8265 C   0  0  0  0  0  0  0  0  0  0  0  0
    5.6557   -0.8630   -0.0602 C   0  0  0  0  0  0  0  0  0  0  0  0
    7.0271   -0.8238    0.1077 O   0  0  0  0  0  0  0  0  0  0  0  0
    7.9065   -1.7569   -0.4655 C   0  0  0  0  0  0  0  0  0  0  0  0
    9.3173   -1.3471   -0.0302 C   0  0  0  0  0  0  0  0  0  0  0  0
    9.3625   -1.3893    1.5007 C   0  0  0  0  0  0  0  0  0  0  0  0
    9.5205    0.1012   -0.4413 C   0  0  0  0  0  0  0  0  0  0  0  0
  1  2  1  0
  2  3  1  0
  3  4  2  0
  4  5  1  0
  5  6  1  0
  6  7  2  0
  7  8  1  0
  8  9  1  0
  9 10  2  0
  9 11  1  0
 11 12  2  0
 12 13  1  0
 13 14  2  0
 14 15  1  0
 15 16  2  0
 16 17  1  0
 17 18  2  0
 18 19  1  0
 19 20  2  0
 20 21  1  0
 21 22  2  0
 14 23  1  0
  5 24  2  0
 24 25  1  0
 25 26  2  0
 26 27  1  0
 27 28  1  0
 28 29  1  0
 29 30  1  0
 29 31  1  0
 26  3  1  0
 23 11  1  0
 22 13  1  0
 22 17  1  0
M  END
>  <zinc_id>  (1) 
ZINC000000659652

>  <smiles>  (1) 
COc1cc(/C=N/NC(=O)c2cc3c(ccc4ccccc43)o2)ccc1OCC(C)C

$$$$
