
     RDKit          3D

 34 38  0  0  0  0  0  0  0  0999 V2000
    6.8671    0.3226   -1.6469 C   0  0  0  0  0  0  0  0  0  0  0  0
    5.7712    0.8945   -0.9467 O   0  0  0  0  0  0  0  0  0  0  0  0
    4.9076    0.0561   -0.2624 C   0  0  0  0  0  0  0  0  0  0  0  0
    5.0541   -1.3126   -0.2234 C   0  0  0  0  0  0  0  0  0  0  0  0
    4.1686   -2.0918    0.4702 C   0  0  0  0  0  0  0  0  0  0  0  0
    3.0974   -1.5441    1.1563 C   0  0  0  0  0  0  0  0  0  0  0  0
    2.2186   -2.4355    1.8927 C   0  0  0  0  0  0  0  0  0  0  0  0
    1.0992   -3.0193    1.1539 C   0  0  0  0  0  0  0  0  0  0  0  0
    0.2054   -2.0708    0.6041 N   0  0  0  0  0  0  0  0  0  0  0  0
    0.4560   -1.3868   -0.5911 C   0  0  0  0  0  0  0  0  0  0  0  0
    1.5214   -1.5977   -1.3690 N   0  0  0  0  0  0  0  0  0  0  0  0
    1.6878   -0.9166   -2.5412 C   0  0  0  0  0  0  0  0  0  0  0  0
    0.7576   -0.0098   -2.9257 N   0  0  0  0  0  0  0  0  0  0  0  0
   -0.3377    0.2520   -2.1923 C   0  0  0  0  0  0  0  0  0  0  0  0
   -1.3574    1.0670   -2.3506 O   0  0  0  0  0  0  0  0  0  0  0  0
   -2.1830    0.9509   -1.3366 C   0  0  0  0  0  0  0  0  0  0  0  0
   -3.4291    1.6711   -1.1243 C   0  0  0  0  0  0  0  0  0  0  0  0
   -3.6162    2.5099   -0.0296 C   0  0  0  0  0  0  0  0  0  0  0  0
   -4.7947    3.1969    0.1775 C   0  0  0  0  0  0  0  0  0  0  0  0
   -5.8288    3.0579   -0.7203 C   0  0  0  0  0  0  0  0  0  0  0  0
   -5.6790    2.2372   -1.8138 C   0  0  0  0  0  0  0  0  0  0  0  0
   -4.5007    1.5754   -1.9844 C   0  0  0  0  0  0  0  0  0  0  0  0
   -1.6720    0.0082   -0.4710 C   0  0  0  0  0  0  0  0  0  0  0  0
   -2.2501   -0.4366    0.7738 C   0  0  0  0  0  0  0  0  0  0  0  0
   -2.4992    0.2893    1.8810 C   0  0  0  0  0  0  0  0  0  0  0  0
   -3.0555   -0.1985    3.0445 C   0  0  0  0  0  0  0  0  0  0  0  0
   -3.3807   -1.5307    3.0748 C   0  0  0  0  0  0  0  0  0  0  0  0
   -3.1592   -2.3258    1.9978 C   0  0  0  0  0  0  0  0  0  0  0  0
   -2.6019   -1.7704    0.8733 C   0  0  0  0  0  0  0  0  0  0  0  0
   -0.4748   -0.4567   -1.0093 C   0  0  0  0  0  0  0  0  0  0  0  0
    2.9530   -0.1668    1.1148 C   0  0  0  0  0  0  0  0  0  0  0  0
    3.8348    0.6203    0.4230 C   0  0  0  0  0  0  0  0  0  0  0  0
    3.6512    1.9838    0.4102 O   0  0  0  0  0  0  0  0  0  0  0  0
    2.5691    2.5775    1.0990 C   0  0  0  0  0  0  0  0  0  0  0  0
  1  2  1  0
  2  3  1  0
  3  4  2  0
  4  5  1  0
  5  6  2  0
  6  7  1  0
  7  8  1  0
  8  9  1  0
  9 10  1  0
 10 11  2  0
 11 12  1  0
 12 13  2  0
 13 14  1  0
 14 15  1  0
 15 16  1  0
 16 17  1  0
 17 18  2  0
 18 19  1  0
 19 20  2  0
 20 21  1  0
 21 22  2  0
 16 23  2  0
 23 24  1  0
 24 25  2  0
 25 26  1  0
 26 27  2  0
 27 28  1  0
 28 29  2  0
 23 30  1  0
  6 31  1  0
 31 32  2  0
 32 33  1  0
 33 34  1  0
 32  3  1  0
 30 10  1  0
 30 14  2  0
 22 17  1  0
 29 24  1  0
M  END
>  <zinc_id>  (1) 
ZINC000002373735

>  <smiles>  (1) 
COc1ccc(CCNc2ncnc3oc(-c4ccccc4)c(-c4ccccc4)c23)cc1OC

$$$$
