
     RDKit          3D

 34 38  0  0  0  0  0  0  0  0999 V2000
   -3.9559    0.6949    2.2320 O   0  0  0  0  0  0  0  0  0  0  0  0
   -3.8736    0.3355    0.8879 C   0  0  0  0  0  0  0  0  0  0  0  0
   -4.0806    1.5456    0.0561 C   0  0  0  0  0  0  0  0  0  0  0  0
   -4.0611    1.4848   -1.3306 C   0  0  0  0  0  0  0  0  0  0  0  0
   -4.2563    2.5951   -2.1076 C   0  0  0  0  0  0  0  0  0  0  0  0
   -4.4781    3.8041   -1.5104 C   0  0  0  0  0  0  0  0  0  0  0  0
   -4.5019    3.8872   -0.1217 C   0  0  0  0  0  0  0  0  0  0  0  0
   -4.3044    2.7664    0.6497 C   0  0  0  0  0  0  0  0  0  0  0  0
   -4.9948   -0.5961    0.5263 C   0  0  0  0  0  0  0  0  0  0  0  0
   -6.0490   -0.8606    1.3424 C   0  0  0  0  0  0  0  0  0  0  0  0
   -7.0385   -1.7411    0.9015 C   0  0  0  0  0  0  0  0  0  0  0  0
   -6.9884   -2.3527   -0.3295 C   0  0  0  0  0  0  0  0  0  0  0  0
   -5.9130   -2.0708   -1.1386 C   0  0  0  0  0  0  0  0  0  0  0  0
   -4.9343   -1.2021   -0.7066 C   0  0  0  0  0  0  0  0  0  0  0  0
   -2.5926   -0.2797    0.5951 C   0  0  0  0  0  0  0  0  0  0  0  0
   -2.2542   -0.7418   -0.7431 C   0  0  0  0  0  0  0  0  0  0  0  0
   -0.7629   -0.6531   -0.9800 C   0  0  0  0  0  0  0  0  0  0  0  0
   -0.1416   -0.0371    0.1414 N   0  0  0  0  0  0  0  0  0  0  0  0
    1.1312    0.5532   -0.0622 C   0  0  0  0  0  0  0  0  0  0  0  0
    2.2369   -0.4208   -0.3432 C   0  0  0  0  0  0  0  0  0  0  0  0
    2.4544   -1.4221    0.7646 C   0  0  0  0  0  0  0  0  0  0  0  0
    3.5331   -2.2545    0.3439 O   0  0  0  0  0  0  0  0  0  0  0  0
    4.7813   -1.6710    0.0958 C   0  0  0  0  0  0  0  0  0  0  0  0
    5.8278   -2.4726   -0.3130 C   0  0  0  0  0  0  0  0  0  0  0  0
    7.0737   -1.9133   -0.5638 C   0  0  0  0  0  0  0  0  0  0  0  0
    7.2758   -0.5504   -0.4066 C   0  0  0  0  0  0  0  0  0  0  0  0
    6.2540    0.2599   -0.0032 C   0  0  0  0  0  0  0  0  0  0  0  0
    5.0317   -0.3311    0.2367 C   0  0  0  0  0  0  0  0  0  0  0  0
    6.5012    1.6043    0.1389 O   0  0  0  0  0  0  0  0  0  0  0  0
    7.7673    2.1982    0.0880 C   0  0  0  0  0  0  0  0  0  0  0  0
    8.8468    1.3529   -0.4937 C   0  0  0  0  0  0  0  0  0  0  0  0
    8.5063    0.0106   -0.6537 O   0  0  0  0  0  0  0  0  0  0  0  0
   -0.2747   -0.7644    1.3878 C   0  0  0  0  0  0  0  0  0  0  0  0
   -1.7656   -0.7574    1.7240 C   0  0  0  0  0  0  0  0  0  0  0  0
  1  2  1  0
  2  3  1  0
  3  4  2  0
  4  5  1  0
  5  6  2  0
  6  7  1  0
  7  8  2  0
  2  9  1  0
  9 10  2  0
 10 11  1  0
 11 12  2  0
 12 13  1  0
 13 14  2  0
  2 15  1  0
 15 16  1  0
 16 17  1  0
 17 18  1  0
 18 19  1  0
 19 20  1  0
 20 21  1  0
 21 22  1  0
 22 23  1  0
 23 24  2  0
 24 25  1  0
 25 26  2  0
 26 27  1  0
 27 28  2  0
 27 29  1  0
 29 30  1  0
 30 31  1  0
 31 32  1  0
 18 33  1  0
 33 34  1  0
  8  3  1  0
 14  9  1  0
 34 15  1  0
 28 23  1  0
 32 26  1  0
M  END
>  <zinc_id>  (1) 
ZINC000002006239

>  <smiles>  (1) 
OC(c1ccccc1)(c1ccccc1)C1CCN(CCCOc2ccc3c(c2)OCCO3)CC1

$$$$
