MODEL 1
REMARK VINA RESULT:      -8.3      0.000      0.000
REMARK  Name = 
REMARK  8 active torsions:
REMARK  status: ('A' for Active; 'I' for Inactive)
REMARK    1  A    between atoms: C_2  and  O_3
REMARK    2  A    between atoms: O_3  and  C_4
REMARK    3  A    between atoms: C_9  and  N_10
REMARK    4  A    between atoms: N_10  and  C_11
REMARK    5  A    between atoms: C_12  and  S_13
REMARK    6  A    between atoms: S_13  and  C_14
REMARK    7  A    between atoms: N_23  and  C_24
REMARK    8  A    between atoms: C_24  and  C_25
REMARK                            x       y       z     vdW  Elec       q    Type
REMARK                         _______ _______ _______ _____ _____    ______ ____
ROOT
ATOM      1  C   UNL     1      36.439   4.062  14.757  0.00  0.00    +0.000 C 
ATOM      2  C   UNL     1      37.709   3.704  14.841  0.00  0.00    +0.000 C 
ATOM      3  C   UNL     1      37.819   2.253  14.970  0.00  0.00    +0.000 C 
ATOM      4  O   UNL     1      38.877   1.551  15.073  0.00  0.00    +0.000 OA
ATOM      5  N   UNL     1      36.504   1.701  14.963  0.00  0.00    +0.000 N 
ATOM      6  C   UNL     1      35.640   2.820  14.831  0.00  0.00    +0.000 C 
ATOM      7  O   UNL     1      34.394   2.778  14.783  0.00  0.00    +0.000 OA
ENDROOT
BRANCH   1   8
ATOM      8  N   UNL     1      35.900   5.373  14.623  0.00  0.00    +0.000 NA
BRANCH   8  14
ATOM      9  C   UNL     1      34.458   6.758  13.185  0.00  0.00    +0.000 A 
ATOM     10  C   UNL     1      34.106   7.204  11.930  0.00  0.00    +0.000 A 
ATOM     11  C   UNL     1      34.790   6.763  10.804  0.00  0.00    +0.000 A 
ATOM     12  C   UNL     1      35.820   5.880  10.959  0.00  0.00    +0.000 A 
ATOM     13  C   UNL     1      36.157   5.445  12.225  0.00  0.00    +0.000 A 
ATOM     14  C   UNL     1      35.491   5.869  13.356  0.00  0.00    +0.000 A 
BRANCH   9  15
ATOM     15  O   UNL     1      33.757   7.217  14.269  0.00  0.00    +0.000 OA
BRANCH  15  17
ATOM     16  C   UNL     1      33.287   8.697  16.130  0.00  0.00    +0.000 C 
ATOM     17  C   UNL     1      33.728   8.560  14.681  0.00  0.00    +0.000 C 
ENDBRANCH  15  17
ENDBRANCH   9  15
ENDBRANCH   8  14
ENDBRANCH   1   8
BRANCH   2  18
ATOM     18  S   UNL     1      39.105   4.817  14.803  0.00  0.00    +0.000 S 
BRANCH  18  19
ATOM     19  C   UNL     1      39.575   5.335  16.438  0.00  0.00    +0.000 A 
ATOM     20  C   UNL     1      40.754   6.030  16.588  0.00  0.00    +0.000 A 
ATOM     21  C   UNL     1      41.170   6.454  17.831  0.00  0.00    +0.000 A 
ATOM     22  C   UNL     1      40.426   6.203  18.981  0.00  0.00    +0.000 A 
ATOM     23  C   UNL     1      40.886   6.665  20.324  0.00  0.00    +0.000 C 
ATOM     24  C   UNL     1      39.252   5.504  18.792  0.00  0.00    +0.000 A 
ATOM     25  C   UNL     1      38.824   5.074  17.556  0.00  0.00    +0.000 A 
ENDBRANCH  18  19
ENDBRANCH   2  18
BRANCH   5  26
ATOM     26  C   UNL     1      36.155   0.295  15.069  0.00  0.00    +0.000 C 
BRANCH  26  27
ATOM     27  C   UNL     1      36.306  -0.120  16.485  0.00  0.00    +0.000 A 
ATOM     28  C   UNL     1      37.199  -1.111  16.851  0.00  0.00    +0.000 A 
ATOM     29  C   UNL     1      37.356  -1.515  18.160  0.00  0.00    +0.000 A 
ATOM     30  C   UNL     1      36.620  -0.936  19.164  0.00  0.00    +0.000 A 
ATOM     31  C   UNL     1      35.725   0.055  18.805  0.00  0.00    +0.000 A 
ATOM     32  C   UNL     1      35.567   0.459  17.495  0.00  0.00    +0.000 A 
ENDBRANCH  26  27
ENDBRANCH   5  26
TORSDOF 8
ENDMDL
MODEL 2
REMARK VINA RESULT:      -7.8      3.267      8.153
REMARK  Name = 
REMARK  8 active torsions:
REMARK  status: ('A' for Active; 'I' for Inactive)
REMARK    1  A    between atoms: C_2  and  O_3
REMARK    2  A    between atoms: O_3  and  C_4
REMARK    3  A    between atoms: C_9  and  N_10
REMARK    4  A    between atoms: N_10  and  C_11
REMARK    5  A    between atoms: C_12  and  S_13
REMARK    6  A    between atoms: S_13  and  C_14
REMARK    7  A    between atoms: N_23  and  C_24
REMARK    8  A    between atoms: C_24  and  C_25
REMARK                            x       y       z     vdW  Elec       q    Type
REMARK                         _______ _______ _______ _____ _____    ______ ____
ROOT
ATOM      1  C   UNL     1      36.080  -0.100  15.500  0.00  0.00    +0.000 C 
ATOM      2  C   UNL     1      36.846   0.120  14.444  0.00  0.00    +0.000 C 
ATOM      3  C   UNL     1      36.917   1.551  14.159  0.00  0.00    +0.000 C 
ATOM      4  O   UNL     1      37.557   2.136  13.226  0.00  0.00    +0.000 OA
ATOM      5  N   UNL     1      36.127   2.241  15.126  0.00  0.00    +0.000 N 
ATOM      6  C   UNL     1      35.603   1.221  15.964  0.00  0.00    +0.000 C 
ATOM      7  O   UNL     1      34.854   1.396  16.945  0.00  0.00    +0.000 OA
ENDROOT
BRANCH   1   8
ATOM      8  N   UNL     1      35.751  -1.346  16.105  0.00  0.00    +0.000 NA
BRANCH   8  14
ATOM      9  C   UNL     1      37.112  -3.358  16.510  0.00  0.00    +0.000 A 
ATOM     10  C   UNL     1      38.059  -4.023  17.258  0.00  0.00    +0.000 A 
ATOM     11  C   UNL     1      38.643  -3.417  18.364  0.00  0.00    +0.000 A 
ATOM     12  C   UNL     1      38.264  -2.148  18.700  0.00  0.00    +0.000 A 
ATOM     13  C   UNL     1      37.314  -1.499  17.937  0.00  0.00    +0.000 A 
ATOM     14  C   UNL     1      36.722  -2.082  16.836  0.00  0.00    +0.000 A 
BRANCH   9  15
ATOM     15  O   UNL     1      36.562  -3.992  15.428  0.00  0.00    +0.000 OA
BRANCH  15  17
ATOM     16  C   UNL     1      34.276  -4.363  14.713  0.00  0.00    +0.000 C 
ATOM     17  C   UNL     1      35.472  -4.876  15.499  0.00  0.00    +0.000 C 
ENDBRANCH  15  17
ENDBRANCH   9  15
ENDBRANCH   8  14
ENDBRANCH   1   8
BRANCH   2  18
ATOM     18  S   UNL     1      37.683  -1.136  13.490  0.00  0.00    +0.000 S 
BRANCH  18  19
ATOM     19  C   UNL     1      39.428  -1.165  13.832  0.00  0.00    +0.000 A 
ATOM     20  C   UNL     1      39.974  -2.322  14.340  0.00  0.00    +0.000 A 
ATOM     21  C   UNL     1      41.319  -2.402  14.626  0.00  0.00    +0.000 A 
ATOM     22  C   UNL     1      42.180  -1.329  14.417  0.00  0.00    +0.000 A 
ATOM     23  C   UNL     1      43.636  -1.425  14.731  0.00  0.00    +0.000 C 
ATOM     24  C   UNL     1      41.599  -0.187  13.908  0.00  0.00    +0.000 A 
ATOM     25  C   UNL     1      40.256  -0.093  13.617  0.00  0.00    +0.000 A 
ENDBRANCH  18  19
ENDBRANCH   2  18
BRANCH   5  26
ATOM     26  C   UNL     1      35.923   3.677  15.211  0.00  0.00    +0.000 C 
BRANCH  26  27
ATOM     27  C   UNL     1      37.140   4.290  15.794  0.00  0.00    +0.000 A 
ATOM     28  C   UNL     1      37.511   4.043  17.104  0.00  0.00    +0.000 A 
ATOM     29  C   UNL     1      38.637   4.602  17.669  0.00  0.00    +0.000 A 
ATOM     30  C   UNL     1      39.446   5.437  16.939  0.00  0.00    +0.000 A 
ATOM     31  C   UNL     1      39.081   5.689  15.629  0.00  0.00    +0.000 A 
ATOM     32  C   UNL     1      37.953   5.131  15.063  0.00  0.00    +0.000 A 
ENDBRANCH  26  27
ENDBRANCH   5  26
TORSDOF 8
ENDMDL
MODEL 3
REMARK VINA RESULT:      -7.8      2.819      7.795
REMARK  Name = 
REMARK  8 active torsions:
REMARK  status: ('A' for Active; 'I' for Inactive)
REMARK    1  A    between atoms: C_2  and  O_3
REMARK    2  A    between atoms: O_3  and  C_4
REMARK    3  A    between atoms: C_9  and  N_10
REMARK    4  A    between atoms: N_10  and  C_11
REMARK    5  A    between atoms: C_12  and  S_13
REMARK    6  A    between atoms: S_13  and  C_14
REMARK    7  A    between atoms: N_23  and  C_24
REMARK    8  A    between atoms: C_24  and  C_25
REMARK                            x       y       z     vdW  Elec       q    Type
REMARK                         _______ _______ _______ _____ _____    ______ ____
ROOT
ATOM      1  C   UNL     1      36.707   1.535  14.795  0.00  0.00    +0.000 C 
ATOM      2  C   UNL     1      37.868   1.490  14.163  0.00  0.00    +0.000 C 
ATOM      3  C   UNL     1      38.456   2.825  14.088  0.00  0.00    +0.000 C 
ATOM      4  O   UNL     1      39.561   3.168  13.556  0.00  0.00    +0.000 OA
ATOM      5  N   UNL     1      37.570   3.742  14.728  0.00  0.00    +0.000 N 
ATOM      6  C   UNL     1      36.480   2.947  15.171  0.00  0.00    +0.000 C 
ATOM      7  O   UNL     1      35.477   3.362  15.785  0.00  0.00    +0.000 OA
ENDROOT
BRANCH   1   8
ATOM      8  N   UNL     1      35.817   0.461  15.080  0.00  0.00    +0.000 NA
BRANCH   8  14
ATOM      9  C   UNL     1      35.347  -1.414  16.606  0.00  0.00    +0.000 A 
ATOM     10  C   UNL     1      35.325  -1.931  17.883  0.00  0.00    +0.000 A 
ATOM     11  C   UNL     1      35.733  -1.163  18.966  0.00  0.00    +0.000 A 
ATOM     12  C   UNL     1      36.158   0.116  18.748  0.00  0.00    +0.000 A 
ATOM     13  C   UNL     1      36.172   0.616  17.461  0.00  0.00    +0.000 A 
ATOM     14  C   UNL     1      35.771  -0.128  16.372  0.00  0.00    +0.000 A 
BRANCH   9  15
ATOM     15  O   UNL     1      34.936  -2.205  15.566  0.00  0.00    +0.000 OA
BRANCH  15  17
ATOM     16  C   UNL     1      34.438  -4.332  14.518  0.00  0.00    +0.000 C 
ATOM     17  C   UNL     1      34.251  -3.421  15.720  0.00  0.00    +0.000 C 
ENDBRANCH  15  17
ENDBRANCH   9  15
ENDBRANCH   8  14
ENDBRANCH   1   8
BRANCH   2  18
ATOM     18  S   UNL     1      38.626   0.020  13.491  0.00  0.00    +0.000 S 
BRANCH  18  19
ATOM     19  C   UNL     1      38.577  -1.330  14.648  0.00  0.00    +0.000 A 
ATOM     20  C   UNL     1      38.040  -2.527  14.232  0.00  0.00    +0.000 A 
ATOM     21  C   UNL     1      37.974  -3.607  15.085  0.00  0.00    +0.000 A 
ATOM     22  C   UNL     1      38.442  -3.539  16.394  0.00  0.00    +0.000 A 
ATOM     23  C   UNL     1      38.364  -4.713  17.312  0.00  0.00    +0.000 C 
ATOM     24  C   UNL     1      38.972  -2.325  16.777  0.00  0.00    +0.000 A 
ATOM     25  C   UNL     1      39.045  -1.237  15.934  0.00  0.00    +0.000 A 
ENDBRANCH  18  19
ENDBRANCH   2  18
BRANCH   5  26
ATOM     26  C   UNL     1      37.768   5.173  14.880  0.00  0.00    +0.000 C 
BRANCH  26  27
ATOM     27  C   UNL     1      38.628   5.404  16.066  0.00  0.00    +0.000 A 
ATOM     28  C   UNL     1      38.244   4.976  17.324  0.00  0.00    +0.000 A 
ATOM     29  C   UNL     1      39.025   5.180  18.442  0.00  0.00    +0.000 A 
ATOM     30  C   UNL     1      40.232   5.825  18.344  0.00  0.00    +0.000 A 
ATOM     31  C   UNL     1      40.622   6.257  17.089  0.00  0.00    +0.000 A 
ATOM     32  C   UNL     1      39.841   6.054  15.970  0.00  0.00    +0.000 A 
ENDBRANCH  26  27
ENDBRANCH   5  26
TORSDOF 8
ENDMDL
MODEL 4
REMARK VINA RESULT:      -7.7      3.070      7.624
REMARK  Name = 
REMARK  8 active torsions:
REMARK  status: ('A' for Active; 'I' for Inactive)
REMARK    1  A    between atoms: C_2  and  O_3
REMARK    2  A    between atoms: O_3  and  C_4
REMARK    3  A    between atoms: C_9  and  N_10
REMARK    4  A    between atoms: N_10  and  C_11
REMARK    5  A    between atoms: C_12  and  S_13
REMARK    6  A    between atoms: S_13  and  C_14
REMARK    7  A    between atoms: N_23  and  C_24
REMARK    8  A    between atoms: C_24  and  C_25
REMARK                            x       y       z     vdW  Elec       q    Type
REMARK                         _______ _______ _______ _____ _____    ______ ____
ROOT
ATOM      1  C   UNL     1      36.194   0.084  15.087  0.00  0.00    +0.000 C 
ATOM      2  C   UNL     1      37.030   0.316  14.089  0.00  0.00    +0.000 C 
ATOM      3  C   UNL     1      37.167   1.753  13.867  0.00  0.00    +0.000 C 
ATOM      4  O   UNL     1      37.882   2.350  12.997  0.00  0.00    +0.000 OA
ATOM      5  N   UNL     1      36.343   2.434  14.812  0.00  0.00    +0.000 N 
ATOM      6  C   UNL     1      35.734   1.402  15.574  0.00  0.00    +0.000 C 
ATOM      7  O   UNL     1      34.932   1.567  16.515  0.00  0.00    +0.000 OA
ENDROOT
BRANCH   1   8
ATOM      8  N   UNL     1      35.786  -1.171  15.620  0.00  0.00    +0.000 NA
BRANCH   8  14
ATOM      9  C   UNL     1      37.500  -1.680  17.314  0.00  0.00    +0.000 A 
ATOM     10  C   UNL     1      38.392  -2.568  17.874  0.00  0.00    +0.000 A 
ATOM     11  C   UNL     1      38.528  -3.854  17.363  0.00  0.00    +0.000 A 
ATOM     12  C   UNL     1      37.761  -4.226  16.296  0.00  0.00    +0.000 A 
ATOM     13  C   UNL     1      36.873  -3.321  15.750  0.00  0.00    +0.000 A 
ATOM     14  C   UNL     1      36.723  -2.041  16.240  0.00  0.00    +0.000 A 
BRANCH   9  15
ATOM     15  O   UNL     1      37.398  -0.423  17.847  0.00  0.00    +0.000 OA
BRANCH  15  17
ATOM     16  C   UNL     1      35.421  -0.587  19.239  0.00  0.00    +0.000 C 
ATOM     17  C   UNL     1      36.869  -0.144  19.119  0.00  0.00    +0.000 C 
ENDBRANCH  15  17
ENDBRANCH   9  15
ENDBRANCH   8  14
ENDBRANCH   1   8
BRANCH   2  18
ATOM     18  S   UNL     1      37.880  -0.932  13.136  0.00  0.00    +0.000 S 
BRANCH  18  19
ATOM     19  C   UNL     1      39.578  -1.096  13.638  0.00  0.00    +0.000 A 
ATOM     20  C   UNL     1      40.437  -0.050  13.386  0.00  0.00    +0.000 A 
ATOM     21  C   UNL     1      41.763  -0.121  13.751  0.00  0.00    +0.000 A 
ATOM     22  C   UNL     1      42.293  -1.242  14.384  0.00  0.00    +0.000 A 
ATOM     23  C   UNL     1      43.732  -1.310  14.773  0.00  0.00    +0.000 C 
ATOM     24  C   UNL     1      41.404  -2.270  14.620  0.00  0.00    +0.000 A 
ATOM     25  C   UNL     1      40.076  -2.212  14.261  0.00  0.00    +0.000 A 
ENDBRANCH  18  19
ENDBRANCH   2  18
BRANCH   5  26
ATOM     26  C   UNL     1      36.182   3.872  14.942  0.00  0.00    +0.000 C 
BRANCH  26  27
ATOM     27  C   UNL     1      37.343   4.407  15.694  0.00  0.00    +0.000 A 
ATOM     28  C   UNL     1      37.519   4.126  17.037  0.00  0.00    +0.000 A 
ATOM     29  C   UNL     1      38.590   4.612  17.758  0.00  0.00    +0.000 A 
ATOM     30  C   UNL     1      39.535   5.405  17.157  0.00  0.00    +0.000 A 
ATOM     31  C   UNL     1      39.365   5.691  15.815  0.00  0.00    +0.000 A 
ATOM     32  C   UNL     1      38.294   5.206  15.093  0.00  0.00    +0.000 A 
ENDBRANCH  26  27
ENDBRANCH   5  26
TORSDOF 8
ENDMDL
MODEL 5
REMARK VINA RESULT:      -7.7      1.106      2.356
REMARK  Name = 
REMARK  8 active torsions:
REMARK  status: ('A' for Active; 'I' for Inactive)
REMARK    1  A    between atoms: C_2  and  O_3
REMARK    2  A    between atoms: O_3  and  C_4
REMARK    3  A    between atoms: C_9  and  N_10
REMARK    4  A    between atoms: N_10  and  C_11
REMARK    5  A    between atoms: C_12  and  S_13
REMARK    6  A    between atoms: S_13  and  C_14
REMARK    7  A    between atoms: N_23  and  C_24
REMARK    8  A    between atoms: C_24  and  C_25
REMARK                            x       y       z     vdW  Elec       q    Type
REMARK                         _______ _______ _______ _____ _____    ______ ____
ROOT
ATOM      1  C   UNL     1      36.598   4.228  14.926  0.00  0.00    +0.000 C 
ATOM      2  C   UNL     1      37.829   3.747  14.950  0.00  0.00    +0.000 C 
ATOM      3  C   UNL     1      37.802   2.289  15.025  0.00  0.00    +0.000 C 
ATOM      4  O   UNL     1      38.789   1.485  15.065  0.00  0.00    +0.000 OA
ATOM      5  N   UNL     1      36.439   1.866  15.048  0.00  0.00    +0.000 N 
ATOM      6  C   UNL     1      35.684   3.068  14.987  0.00  0.00    +0.000 C 
ATOM      7  O   UNL     1      34.439   3.147  14.984  0.00  0.00    +0.000 OA
ENDROOT
BRANCH   1   8
ATOM      8  N   UNL     1      36.185   5.589  14.857  0.00  0.00    +0.000 NA
BRANCH   8  14
ATOM      9  C   UNL     1      35.911   6.112  12.466  0.00  0.00    +0.000 A 
ATOM     10  C   UNL     1      35.132   6.589  11.434  0.00  0.00    +0.000 A 
ATOM     11  C   UNL     1      33.840   7.041  11.672  0.00  0.00    +0.000 A 
ATOM     12  C   UNL     1      33.350   7.003  12.947  0.00  0.00    +0.000 A 
ATOM     13  C   UNL     1      34.146   6.522  13.966  0.00  0.00    +0.000 A 
ATOM     14  C   UNL     1      35.431   6.070  13.752  0.00  0.00    +0.000 A 
BRANCH   9  15
ATOM     15  O   UNL     1      37.180   5.677  12.188  0.00  0.00    +0.000 OA
BRANCH  15  17
ATOM     16  C   UNL     1      39.132   5.313  10.800  0.00  0.00    +0.000 C 
ATOM     17  C   UNL     1      38.023   6.260  11.227  0.00  0.00    +0.000 C 
ENDBRANCH  15  17
ENDBRANCH   9  15
ENDBRANCH   8  14
ENDBRANCH   1   8
BRANCH   2  18
ATOM     18  S   UNL     1      39.325   4.721  14.898  0.00  0.00    +0.000 S 
BRANCH  18  19
ATOM     19  C   UNL     1      39.768   5.327  16.511  0.00  0.00    +0.000 A 
ATOM     20  C   UNL     1      40.922   6.068  16.635  0.00  0.00    +0.000 A 
ATOM     21  C   UNL     1      41.316   6.561  17.859  0.00  0.00    +0.000 A 
ATOM     22  C   UNL     1      40.576   6.336  19.016  0.00  0.00    +0.000 A 
ATOM     23  C   UNL     1      41.012   6.873  20.338  0.00  0.00    +0.000 C 
ATOM     24  C   UNL     1      39.427   5.590  18.854  0.00  0.00    +0.000 A 
ATOM     25  C   UNL     1      39.021   5.091  17.636  0.00  0.00    +0.000 A 
ENDBRANCH  18  19
ENDBRANCH   2  18
BRANCH   5  26
ATOM     26  C   UNL     1      35.959   0.497  15.119  0.00  0.00    +0.000 C 
BRANCH  26  27
ATOM     27  C   UNL     1      36.171  -0.003  16.499  0.00  0.00    +0.000 A 
ATOM     28  C   UNL     1      35.498   0.549  17.573  0.00  0.00    +0.000 A 
ATOM     29  C   UNL     1      35.679   0.102  18.865  0.00  0.00    +0.000 A 
ATOM     30  C   UNL     1      36.548  -0.925  19.135  0.00  0.00    +0.000 A 
ATOM     31  C   UNL     1      37.225  -1.482  18.066  0.00  0.00    +0.000 A 
ATOM     32  C   UNL     1      37.045  -1.035  16.773  0.00  0.00    +0.000 A 
ENDBRANCH  26  27
ENDBRANCH   5  26
TORSDOF 8
ENDMDL
MODEL 6
REMARK VINA RESULT:      -7.6      1.746      2.886
REMARK  Name = 
REMARK  8 active torsions:
REMARK  status: ('A' for Active; 'I' for Inactive)
REMARK    1  A    between atoms: C_2  and  O_3
REMARK    2  A    between atoms: O_3  and  C_4
REMARK    3  A    between atoms: C_9  and  N_10
REMARK    4  A    between atoms: N_10  and  C_11
REMARK    5  A    between atoms: C_12  and  S_13
REMARK    6  A    between atoms: S_13  and  C_14
REMARK    7  A    between atoms: N_23  and  C_24
REMARK    8  A    between atoms: C_24  and  C_25
REMARK                            x       y       z     vdW  Elec       q    Type
REMARK                         _______ _______ _______ _____ _____    ______ ____
ROOT
ATOM      1  C   UNL     1      36.632   3.738  14.665  0.00  0.00    +0.000 C 
ATOM      2  C   UNL     1      37.401   3.960  15.718  0.00  0.00    +0.000 C 
ATOM      3  C   UNL     1      36.961   3.145  16.847  0.00  0.00    +0.000 C 
ATOM      4  O   UNL     1      37.457   3.092  18.019  0.00  0.00    +0.000 OA
ATOM      5  N   UNL     1      35.835   2.373  16.432  0.00  0.00    +0.000 N 
ATOM      6  C   UNL     1      35.624   2.737  15.075  0.00  0.00    +0.000 C 
ATOM      7  O   UNL     1      34.730   2.288  14.331  0.00  0.00    +0.000 OA
ENDROOT
BRANCH   1   8
ATOM      8  N   UNL     1      36.719   4.326  13.371  0.00  0.00    +0.000 NA
BRANCH   8  14
ATOM      9  C   UNL     1      35.722   5.804  11.673  0.00  0.00    +0.000 A 
ATOM     10  C   UNL     1      34.806   6.775  11.331  0.00  0.00    +0.000 A 
ATOM     11  C   UNL     1      33.935   7.294  12.281  0.00  0.00    +0.000 A 
ATOM     12  C   UNL     1      33.999   6.826  13.563  0.00  0.00    +0.000 A 
ATOM     13  C   UNL     1      34.924   5.853  13.884  0.00  0.00    +0.000 A 
ATOM     14  C   UNL     1      35.798   5.325  12.958  0.00  0.00    +0.000 A 
BRANCH   9  15
ATOM     15  O   UNL     1      36.563   5.320  10.706  0.00  0.00    +0.000 OA
BRANCH  15  17
ATOM     16  C   UNL     1      36.221   3.703   8.933  0.00  0.00    +0.000 C 
ATOM     17  C   UNL     1      36.207   5.163   9.355  0.00  0.00    +0.000 C 
ENDBRANCH  15  17
ENDBRANCH   9  15
ENDBRANCH   8  14
ENDBRANCH   1   8
BRANCH   2  18
ATOM     18  S   UNL     1      38.784   5.089  15.773  0.00  0.00    +0.000 S 
BRANCH  18  19
ATOM     19  C   UNL     1      38.747   6.099  17.236  0.00  0.00    +0.000 A 
ATOM     20  C   UNL     1      39.478   5.691  18.329  0.00  0.00    +0.000 A 
ATOM     21  C   UNL     1      39.485   6.432  19.490  0.00  0.00    +0.000 A 
ATOM     22  C   UNL     1      38.763   7.615  19.612  0.00  0.00    +0.000 A 
ATOM     23  C   UNL     1      38.776   8.410  20.875  0.00  0.00    +0.000 C 
ATOM     24  C   UNL     1      38.042   7.993  18.499  0.00  0.00    +0.000 A 
ATOM     25  C   UNL     1      38.026   7.262  17.331  0.00  0.00    +0.000 A 
ENDBRANCH  18  19
ENDBRANCH   2  18
BRANCH   5  26
ATOM     26  C   UNL     1      35.087   1.428  17.243  0.00  0.00    +0.000 C 
BRANCH  26  27
ATOM     27  C   UNL     1      35.975   0.287  17.572  0.00  0.00    +0.000 A 
ATOM     28  C   UNL     1      36.591  -0.452  16.577  0.00  0.00    +0.000 A 
ATOM     29  C   UNL     1      37.421  -1.517  16.857  0.00  0.00    +0.000 A 
ATOM     30  C   UNL     1      37.669  -1.888  18.155  0.00  0.00    +0.000 A 
ATOM     31  C   UNL     1      37.056  -1.155  19.154  0.00  0.00    +0.000 A 
ATOM     32  C   UNL     1      36.226  -0.089  18.875  0.00  0.00    +0.000 A 
ENDBRANCH  26  27
ENDBRANCH   5  26
TORSDOF 8
ENDMDL
MODEL 7
REMARK VINA RESULT:      -7.5      1.540      5.206
REMARK  Name = 
REMARK  8 active torsions:
REMARK  status: ('A' for Active; 'I' for Inactive)
REMARK    1  A    between atoms: C_2  and  O_3
REMARK    2  A    between atoms: O_3  and  C_4
REMARK    3  A    between atoms: C_9  and  N_10
REMARK    4  A    between atoms: N_10  and  C_11
REMARK    5  A    between atoms: C_12  and  S_13
REMARK    6  A    between atoms: S_13  and  C_14
REMARK    7  A    between atoms: N_23  and  C_24
REMARK    8  A    between atoms: C_24  and  C_25
REMARK                            x       y       z     vdW  Elec       q    Type
REMARK                         _______ _______ _______ _____ _____    ______ ____
ROOT
ATOM      1  C   UNL     1      36.628   4.886  14.468  0.00  0.00    +0.000 C 
ATOM      2  C   UNL     1      37.081   3.653  14.621  0.00  0.00    +0.000 C 
ATOM      3  C   UNL     1      38.494   3.674  14.990  0.00  0.00    +0.000 C 
ATOM      4  O   UNL     1      39.261   2.683  15.219  0.00  0.00    +0.000 OA
ATOM      5  N   UNL     1      38.918   5.034  15.064  0.00  0.00    +0.000 N 
ATOM      6  C   UNL     1      37.762   5.794  14.741  0.00  0.00    +0.000 C 
ATOM      7  O   UNL     1      37.699   7.039  14.690  0.00  0.00    +0.000 OA
ENDROOT
BRANCH   1   8
ATOM      8  N   UNL     1      35.315   5.304  14.112  0.00  0.00    +0.000 NA
BRANCH   8  14
ATOM      9  C   UNL     1      34.107   6.941  12.724  0.00  0.00    +0.000 A 
ATOM     10  C   UNL     1      33.914   7.555  11.506  0.00  0.00    +0.000 A 
ATOM     11  C   UNL     1      34.688   7.208  10.406  0.00  0.00    +0.000 A 
ATOM     12  C   UNL     1      35.648   6.247  10.550  0.00  0.00    +0.000 A 
ATOM     13  C   UNL     1      35.826   5.644  11.779  0.00  0.00    +0.000 A 
ATOM     14  C   UNL     1      35.068   5.973  12.883  0.00  0.00    +0.000 A 
BRANCH   9  15
ATOM     15  O   UNL     1      33.321   7.313  13.782  0.00  0.00    +0.000 OA
BRANCH  15  17
ATOM     16  C   UNL     1      33.993   9.551  14.424  0.00  0.00    +0.000 C 
ATOM     17  C   UNL     1      33.760   8.111  14.852  0.00  0.00    +0.000 C 
ENDBRANCH  15  17
ENDBRANCH   9  15
ENDBRANCH   8  14
ENDBRANCH   1   8
BRANCH   2  18
ATOM     18  S   UNL     1      36.121   2.162  14.410  0.00  0.00    +0.000 S 
BRANCH  18  19
ATOM     19  C   UNL     1      36.320   1.054  15.787  0.00  0.00    +0.000 A 
ATOM     20  C   UNL     1      35.764   1.409  16.996  0.00  0.00    +0.000 A 
ATOM     21  C   UNL     1      35.888   0.591  18.097  0.00  0.00    +0.000 A 
ATOM     22  C   UNL     1      36.573  -0.619  18.041  0.00  0.00    +0.000 A 
ATOM     23  C   UNL     1      36.704  -1.497  19.241  0.00  0.00    +0.000 C 
ATOM     24  C   UNL     1      37.117  -0.941  16.816  0.00  0.00    +0.000 A 
ATOM     25  C   UNL     1      37.001  -0.134  15.706  0.00  0.00    +0.000 A 
ENDBRANCH  18  19
ENDBRANCH   2  18
BRANCH   5  26
ATOM     26  C   UNL     1      40.249   5.508  15.400  0.00  0.00    +0.000 C 
BRANCH  26  27
ATOM     27  C   UNL     1      40.297   5.778  16.858  0.00  0.00    +0.000 A 
ATOM     28  C   UNL     1      39.221   5.484  17.677  0.00  0.00    +0.000 A 
ATOM     29  C   UNL     1      39.240   5.726  19.034  0.00  0.00    +0.000 A 
ATOM     30  C   UNL     1      40.347   6.275  19.631  0.00  0.00    +0.000 A 
ATOM     31  C   UNL     1      41.426   6.572  18.819  0.00  0.00    +0.000 A 
ATOM     32  C   UNL     1      41.407   6.331  17.460  0.00  0.00    +0.000 A 
ENDBRANCH  26  27
ENDBRANCH   5  26
TORSDOF 8
ENDMDL
MODEL 8
REMARK VINA RESULT:      -7.5      2.898      7.648
REMARK  Name = 
REMARK  8 active torsions:
REMARK  status: ('A' for Active; 'I' for Inactive)
REMARK    1  A    between atoms: C_2  and  O_3
REMARK    2  A    between atoms: O_3  and  C_4
REMARK    3  A    between atoms: C_9  and  N_10
REMARK    4  A    between atoms: N_10  and  C_11
REMARK    5  A    between atoms: C_12  and  S_13
REMARK    6  A    between atoms: S_13  and  C_14
REMARK    7  A    between atoms: N_23  and  C_24
REMARK    8  A    between atoms: C_24  and  C_25
REMARK                            x       y       z     vdW  Elec       q    Type
REMARK                         _______ _______ _______ _____ _____    ______ ____
ROOT
ATOM      1  C   UNL     1      36.409   1.372  15.170  0.00  0.00    +0.000 C 
ATOM      2  C   UNL     1      37.330   1.417  14.223  0.00  0.00    +0.000 C 
ATOM      3  C   UNL     1      37.800   2.788  14.038  0.00  0.00    +0.000 C 
ATOM      4  O   UNL     1      38.679   3.214  13.221  0.00  0.00    +0.000 OA
ATOM      5  N   UNL     1      37.099   3.630  14.952  0.00  0.00    +0.000 N 
ATOM      6  C   UNL     1      36.231   2.756  15.660  0.00  0.00    +0.000 C 
ATOM      7  O   UNL     1      35.436   3.090  16.560  0.00  0.00    +0.000 OA
ENDROOT
BRANCH   1   8
ATOM      8  N   UNL     1      35.699   0.237  15.655  0.00  0.00    +0.000 NA
BRANCH   8  14
ATOM      9  C   UNL     1      36.658  -1.789  16.675  0.00  0.00    +0.000 A 
ATOM     10  C   UNL     1      37.111  -2.459  17.790  0.00  0.00    +0.000 A 
ATOM     11  C   UNL     1      37.094  -1.851  19.039  0.00  0.00    +0.000 A 
ATOM     12  C   UNL     1      36.622  -0.573  19.145  0.00  0.00    +0.000 A 
ATOM     13  C   UNL     1      36.172   0.081  18.016  0.00  0.00    +0.000 A 
ATOM     14  C   UNL     1      36.180  -0.505  16.768  0.00  0.00    +0.000 A 
BRANCH   9  15
ATOM     15  O   UNL     1      36.692  -2.427  15.463  0.00  0.00    +0.000 OA
BRANCH  15  17
ATOM     16  C   UNL     1      36.009  -4.689  14.923  0.00  0.00    +0.000 C 
ATOM     17  C   UNL     1      35.645  -3.213  14.953  0.00  0.00    +0.000 C 
ENDBRANCH  15  17
ENDBRANCH   9  15
ENDBRANCH   8  14
ENDBRANCH   1   8
BRANCH   2  18
ATOM     18  S   UNL     1      37.930   0.016  13.291  0.00  0.00    +0.000 S 
BRANCH  18  19
ATOM     19  C   UNL     1      39.595  -0.409  13.746  0.00  0.00    +0.000 A 
ATOM     20  C   UNL     1      40.604   0.474  13.431  0.00  0.00    +0.000 A 
ATOM     21  C   UNL     1      41.913   0.196  13.757  0.00  0.00    +0.000 A 
ATOM     22  C   UNL     1      42.274  -0.977  14.413  0.00  0.00    +0.000 A 
ATOM     23  C   UNL     1      43.696  -1.269  14.761  0.00  0.00    +0.000 C 
ATOM     24  C   UNL     1      41.239  -1.838  14.712  0.00  0.00    +0.000 A 
ATOM     25  C   UNL     1      39.926  -1.573  14.393  0.00  0.00    +0.000 A 
ENDBRANCH  18  19
ENDBRANCH   2  18
BRANCH   5  26
ATOM     26  C   UNL     1      37.260   5.066  15.103  0.00  0.00    +0.000 C 
BRANCH  26  27
ATOM     27  C   UNL     1      38.312   5.315  16.118  0.00  0.00    +0.000 A 
ATOM     28  C   UNL     1      39.499   5.940  15.781  0.00  0.00    +0.000 A 
ATOM     29  C   UNL     1      40.493   6.183  16.706  0.00  0.00    +0.000 A 
ATOM     30  C   UNL     1      40.336   5.806  18.016  0.00  0.00    +0.000 A 
ATOM     31  C   UNL     1      39.152   5.180  18.360  0.00  0.00    +0.000 A 
ATOM     32  C   UNL     1      38.157   4.937  17.435  0.00  0.00    +0.000 A 
ENDBRANCH  26  27
ENDBRANCH   5  26
TORSDOF 8
ENDMDL
MODEL 9
REMARK VINA RESULT:      -7.5      2.901      4.824
REMARK  Name = 
REMARK  8 active torsions:
REMARK  status: ('A' for Active; 'I' for Inactive)
REMARK    1  A    between atoms: C_2  and  O_3
REMARK    2  A    between atoms: O_3  and  C_4
REMARK    3  A    between atoms: C_9  and  N_10
REMARK    4  A    between atoms: N_10  and  C_11
REMARK    5  A    between atoms: C_12  and  S_13
REMARK    6  A    between atoms: S_13  and  C_14
REMARK    7  A    between atoms: N_23  and  C_24
REMARK    8  A    between atoms: C_24  and  C_25
REMARK                            x       y       z     vdW  Elec       q    Type
REMARK                         _______ _______ _______ _____ _____    ______ ____
ROOT
ATOM      1  C   UNL     1      36.406   0.979  14.170  0.00  0.00    +0.000 C 
ATOM      2  C   UNL     1      35.765   1.779  15.005  0.00  0.00    +0.000 C 
ATOM      3  C   UNL     1      35.165   1.005  16.089  0.00  0.00    +0.000 C 
ATOM      4  O   UNL     1      34.477   1.432  17.072  0.00  0.00    +0.000 OA
ATOM      5  N   UNL     1      35.475  -0.372  15.881  0.00  0.00    +0.000 N 
ATOM      6  C   UNL     1      36.247  -0.396  14.689  0.00  0.00    +0.000 C 
ATOM      7  O   UNL     1      36.724  -1.414  14.151  0.00  0.00    +0.000 OA
ENDROOT
BRANCH   1   8
ATOM      8  N   UNL     1      37.122   1.329  12.990  0.00  0.00    +0.000 NA
BRANCH   8  14
ATOM      9  C   UNL     1      39.295   2.076  13.876  0.00  0.00    +0.000 A 
ATOM     10  C   UNL     1      40.328   2.988  13.880  0.00  0.00    +0.000 A 
ATOM     11  C   UNL     1      40.303   4.091  13.036  0.00  0.00    +0.000 A 
ATOM     12  C   UNL     1      39.237   4.260  12.199  0.00  0.00    +0.000 A 
ATOM     13  C   UNL     1      38.212   3.335  12.211  0.00  0.00    +0.000 A 
ATOM     14  C   UNL     1      38.217   2.233  13.040  0.00  0.00    +0.000 A 
BRANCH   9  15
ATOM     15  O   UNL     1      39.359   1.003  14.725  0.00  0.00    +0.000 OA
BRANCH  15  17
ATOM     16  C   UNL     1      39.754  -1.281  15.435  0.00  0.00    +0.000 C 
ATOM     17  C   UNL     1      40.116  -0.155  14.479  0.00  0.00    +0.000 C 
ENDBRANCH  15  17
ENDBRANCH   9  15
ENDBRANCH   8  14
ENDBRANCH   1   8
BRANCH   2  18
ATOM     18  S   UNL     1      35.639   3.554  14.850  0.00  0.00    +0.000 S 
BRANCH  18  19
ATOM     19  C   UNL     1      37.018   4.378  15.611  0.00  0.00    +0.000 A 
ATOM     20  C   UNL     1      37.464   5.555  15.054  0.00  0.00    +0.000 A 
ATOM     21  C   UNL     1      38.529   6.236  15.599  0.00  0.00    +0.000 A 
ATOM     22  C   UNL     1      39.199   5.772  16.728  0.00  0.00    +0.000 A 
ATOM     23  C   UNL     1      40.354   6.516  17.310  0.00  0.00    +0.000 C 
ATOM     24  C   UNL     1      38.726   4.591  17.259  0.00  0.00    +0.000 A 
ATOM     25  C   UNL     1      37.662   3.899  16.724  0.00  0.00    +0.000 A 
ENDBRANCH  18  19
ENDBRANCH   2  18
BRANCH   5  26
ATOM     26  C   UNL     1      35.074  -1.485  16.724  0.00  0.00    +0.000 C 
BRANCH  26  27
ATOM     27  C   UNL     1      36.254  -1.934  17.500  0.00  0.00    +0.000 A 
ATOM     28  C   UNL     1      36.926  -3.099  17.176  0.00  0.00    +0.000 A 
ATOM     29  C   UNL     1      38.025  -3.538  17.883  0.00  0.00    +0.000 A 
ATOM     30  C   UNL     1      38.501  -2.821  18.952  0.00  0.00    +0.000 A 
ATOM     31  C   UNL     1      37.835  -1.655  19.283  0.00  0.00    +0.000 A 
ATOM     32  C   UNL     1      36.734  -1.216  18.576  0.00  0.00    +0.000 A 
ENDBRANCH  26  27
ENDBRANCH   5  26
TORSDOF 8
ENDMDL
MODEL 10
REMARK VINA RESULT:      -7.4      3.719      6.812
REMARK  Name = 
REMARK  8 active torsions:
REMARK  status: ('A' for Active; 'I' for Inactive)
REMARK    1  A    between atoms: C_2  and  O_3
REMARK    2  A    between atoms: O_3  and  C_4
REMARK    3  A    between atoms: C_9  and  N_10
REMARK    4  A    between atoms: N_10  and  C_11
REMARK    5  A    between atoms: C_12  and  S_13
REMARK    6  A    between atoms: S_13  and  C_14
REMARK    7  A    between atoms: N_23  and  C_24
REMARK    8  A    between atoms: C_24  and  C_25
REMARK                            x       y       z     vdW  Elec       q    Type
REMARK                         _______ _______ _______ _____ _____    ______ ____
ROOT
ATOM      1  C   UNL     1      37.635   0.853  14.700  0.00  0.00    +0.000 C 
ATOM      2  C   UNL     1      38.311   1.972  14.500  0.00  0.00    +0.000 C 
ATOM      3  C   UNL     1      39.664   1.672  14.038  0.00  0.00    +0.000 C 
ATOM      4  O   UNL     1      40.594   2.491  13.745  0.00  0.00    +0.000 OA
ATOM      5  N   UNL     1      39.805   0.255  13.956  0.00  0.00    +0.000 N 
ATOM      6  C   UNL     1      38.547  -0.261  14.366  0.00  0.00    +0.000 C 
ATOM      7  O   UNL     1      38.243  -1.469  14.439  0.00  0.00    +0.000 OA
ENDROOT
BRANCH   1   8
ATOM      8  N   UNL     1      36.292   0.704  15.148  0.00  0.00    +0.000 NA
BRANCH   8  14
ATOM      9  C   UNL     1      35.508  -1.032  16.709  0.00  0.00    +0.000 A 
ATOM     10  C   UNL     1      35.250  -1.443  17.999  0.00  0.00    +0.000 A 
ATOM     11  C   UNL     1      35.487  -0.595  19.074  0.00  0.00    +0.000 A 
ATOM     12  C   UNL     1      35.983   0.655  18.834  0.00  0.00    +0.000 A 
ATOM     13  C   UNL     1      36.235   1.047  17.535  0.00  0.00    +0.000 A 
ATOM     14  C   UNL     1      36.006   0.223  16.454  0.00  0.00    +0.000 A 
BRANCH   9  15
ATOM     15  O   UNL     1      35.259  -1.898  15.678  0.00  0.00    +0.000 OA
BRANCH  15  17
ATOM     16  C   UNL     1      34.424  -4.051  14.942  0.00  0.00    +0.000 C 
ATOM     17  C   UNL     1      35.464  -3.287  15.745  0.00  0.00    +0.000 C 
ENDBRANCH  15  17
ENDBRANCH   9  15
ENDBRANCH   8  14
ENDBRANCH   1   8
BRANCH   2  18
ATOM     18  S   UNL     1      37.680   3.624  14.752  0.00  0.00    +0.000 S 
BRANCH  18  19
ATOM     19  C   UNL     1      38.509   4.445  16.094  0.00  0.00    +0.000 A 
ATOM     20  C   UNL     1      38.072   4.202  17.377  0.00  0.00    +0.000 A 
ATOM     21  C   UNL     1      38.675   4.811  18.455  0.00  0.00    +0.000 A 
ATOM     22  C   UNL     1      39.743   5.691  18.301  0.00  0.00    +0.000 A 
ATOM     23  C   UNL     1      40.389   6.347  19.476  0.00  0.00    +0.000 C 
ATOM     24  C   UNL     1      40.154   5.910  17.003  0.00  0.00    +0.000 A 
ATOM     25  C   UNL     1      39.560   5.308  15.915  0.00  0.00    +0.000 A 
ENDBRANCH  18  19
ENDBRANCH   2  18
BRANCH   5  26
ATOM     26  C   UNL     1      40.991  -0.474  13.540  0.00  0.00    +0.000 C 
BRANCH  26  27
ATOM     27  C   UNL     1      40.775  -0.972  12.160  0.00  0.00    +0.000 A 
ATOM     28  C   UNL     1      40.686  -2.326  11.892  0.00  0.00    +0.000 A 
ATOM     29  C   UNL     1      40.486  -2.814  10.618  0.00  0.00    +0.000 A 
ATOM     30  C   UNL     1      40.365  -1.958   9.552  0.00  0.00    +0.000 A 
ATOM     31  C   UNL     1      40.454  -0.603   9.812  0.00  0.00    +0.000 A 
ATOM     32  C   UNL     1      40.655  -0.114  11.087  0.00  0.00    +0.000 A 
ENDBRANCH  26  27
ENDBRANCH   5  26
TORSDOF 8
ENDMDL
