MODEL 1
REMARK VINA RESULT:      -8.2      0.000      0.000
REMARK  Name = 
REMARK  8 active torsions:
REMARK  status: ('A' for Active; 'I' for Inactive)
REMARK    1  A    between atoms: O_2  and  C_3
REMARK    2  A    between atoms: C_6  and  C_7
REMARK    3  A    between atoms: C_7  and  C_8
REMARK    4  A    between atoms: C_8  and  N_9
REMARK    5  A    between atoms: C_10  and  C_12
REMARK    6  A    between atoms: C_16  and  C_17
REMARK    7  A    between atoms: C_17  and  O_18
REMARK    8  A    between atoms: O_18  and  C_19
REMARK                            x       y       z     vdW  Elec       q    Type
REMARK                         _______ _______ _______ _____ _____    ______ ____
ROOT
ATOM      1  C   UNL     1      39.833  -0.207  14.699  0.00  0.00    +0.000 A 
ATOM      2  C   UNL     1      40.958  -0.014  13.904  0.00  0.00    +0.000 A 
ATOM      3  C   UNL     1      41.229   1.180  13.271  0.00  0.00    +0.000 A 
ATOM      4  C   UNL     1      40.368   2.234  13.417  0.00  0.00    +0.000 A 
ATOM      5  C   UNL     1      39.247   2.103  14.184  0.00  0.00    +0.000 A 
ATOM      6  C   UNL     1      38.993   0.879  14.819  0.00  0.00    +0.000 A 
ENDROOT
BRANCH   1   8
ATOM      7  N   UNL     1      38.945  -1.515  16.605  0.00  0.00    +0.000 NA
ATOM      8  C   UNL     1      39.583  -1.478  15.348  0.00  0.00    +0.000 C 
ATOM      9  O   UNL     1      39.929  -2.543  14.802  0.00  0.00    +0.000 OA
BRANCH   7  10
ATOM     10  C   UNL     1      38.652  -2.737  17.331  0.00  0.00    +0.000 C 
BRANCH  10  11
ATOM     11  C   UNL     1      37.137  -2.974  17.344  0.00  0.00    +0.000 C 
BRANCH  11  15
ATOM     12  C   UNL     1      35.104   0.805  16.981  0.00  0.00    +0.000 A 
ATOM     13  C   UNL     1      35.376   0.031  15.871  0.00  0.00    +0.000 A 
ATOM     14  C   UNL     1      36.027  -1.181  15.977  0.00  0.00    +0.000 A 
ATOM     15  C   UNL     1      36.434  -1.672  17.202  0.00  0.00    +0.000 A 
ATOM     16  C   UNL     1      36.157  -0.887  18.312  0.00  0.00    +0.000 A 
ATOM     17  C   UNL     1      35.508   0.322  18.205  0.00  0.00    +0.000 A 
BRANCH  12  19
ATOM     18  C   UNL     1      34.639   2.780  15.678  0.00  0.00    +0.000 C 
ATOM     19  O   UNL     1      34.448   2.024  16.860  0.00  0.00    +0.000 OA
ENDBRANCH  12  19
ENDBRANCH  11  15
ENDBRANCH  10  11
ENDBRANCH   7  10
ENDBRANCH   1   8
BRANCH   5  20
ATOM     20  C   UNL     1      38.264   3.198  14.393  0.00  0.00    +0.000 C 
BRANCH  20  21
ATOM     21  O   UNL     1      38.977   4.376  14.665  0.00  0.00    +0.000 OA
BRANCH  21  22
ATOM     22  C   UNL     1      39.195   4.804  15.950  0.00  0.00    +0.000 A 
ATOM     23  C   UNL     1      38.396   4.433  16.990  0.00  0.00    +0.000 A 
ATOM     24  C   UNL     1      38.613   4.864  18.295  0.00  0.00    +0.000 A 
ATOM     25  C   UNL     1      39.702   5.713  18.522  0.00  0.00    +0.000 A 
ATOM     26  C   UNL     1      40.521   6.100  17.496  0.00  0.00    +0.000 A 
ATOM     27  C   UNL     1      40.255   5.640  16.226  0.00  0.00    +0.000 A 
ATOM     28  C   UNL     1      41.598   6.999  18.014  0.00  0.00    +0.000 C 
ATOM     29  C   UNL     1      41.592   6.701  19.500  0.00  0.00    +0.000 C 
ATOM     30  C   UNL     1      40.171   6.322  19.784  0.00  0.00    +0.000 C 
ENDBRANCH  21  22
ENDBRANCH  20  21
ENDBRANCH   5  20
TORSDOF 8
ENDMDL
MODEL 2
REMARK VINA RESULT:      -7.9      2.687      7.680
REMARK  Name = 
REMARK  8 active torsions:
REMARK  status: ('A' for Active; 'I' for Inactive)
REMARK    1  A    between atoms: O_2  and  C_3
REMARK    2  A    between atoms: C_6  and  C_7
REMARK    3  A    between atoms: C_7  and  C_8
REMARK    4  A    between atoms: C_8  and  N_9
REMARK    5  A    between atoms: C_10  and  C_12
REMARK    6  A    between atoms: C_16  and  C_17
REMARK    7  A    between atoms: C_17  and  O_18
REMARK    8  A    between atoms: O_18  and  C_19
REMARK                            x       y       z     vdW  Elec       q    Type
REMARK                         _______ _______ _______ _____ _____    ______ ____
ROOT
ATOM      1  C   UNL     1      36.212   1.701  16.269  0.00  0.00    +0.000 A 
ATOM      2  C   UNL     1      35.316   1.314  17.261  0.00  0.00    +0.000 A 
ATOM      3  C   UNL     1      34.879   0.015  17.407  0.00  0.00    +0.000 A 
ATOM      4  C   UNL     1      35.332  -0.952  16.550  0.00  0.00    +0.000 A 
ATOM      5  C   UNL     1      36.212  -0.631  15.558  0.00  0.00    +0.000 A 
ATOM      6  C   UNL     1      36.644   0.696  15.429  0.00  0.00    +0.000 A 
ENDROOT
BRANCH   1   8
ATOM      7  N   UNL     1      37.658   3.574  16.998  0.00  0.00    +0.000 NA
ATOM      8  C   UNL     1      36.648   3.077  16.149  0.00  0.00    +0.000 C 
ATOM      9  O   UNL     1      36.136   3.828  15.298  0.00  0.00    +0.000 OA
BRANCH   7  10
ATOM     10  C   UNL     1      38.160   4.934  16.953  0.00  0.00    +0.000 C 
BRANCH  10  11
ATOM     11  C   UNL     1      39.240   5.117  18.028  0.00  0.00    +0.000 C 
BRANCH  11  15
ATOM     12  C   UNL     1      38.374   8.696  20.259  0.00  0.00    +0.000 A 
ATOM     13  C   UNL     1      39.394   7.848  20.638  0.00  0.00    +0.000 A 
ATOM     14  C   UNL     1      39.680   6.699  19.930  0.00  0.00    +0.000 A 
ATOM     15  C   UNL     1      38.954   6.348  18.808  0.00  0.00    +0.000 A 
ATOM     16  C   UNL     1      37.930   7.206  18.435  0.00  0.00    +0.000 A 
ATOM     17  C   UNL     1      37.646   8.353  19.142  0.00  0.00    +0.000 A 
BRANCH  12  19
ATOM     18  C   UNL     1      38.624  11.081  20.517  0.00  0.00    +0.000 C 
ATOM     19  O   UNL     1      38.097   9.851  20.981  0.00  0.00    +0.000 OA
ENDBRANCH  12  19
ENDBRANCH  11  15
ENDBRANCH  10  11
ENDBRANCH   7  10
ENDBRANCH   1   8
BRANCH   5  20
ATOM     20  C   UNL     1      36.751  -1.621  14.589  0.00  0.00    +0.000 C 
BRANCH  20  21
ATOM     21  O   UNL     1      37.749  -0.987  13.832  0.00  0.00    +0.000 OA
BRANCH  21  22
ATOM     22  C   UNL     1      39.081  -1.225  14.055  0.00  0.00    +0.000 A 
ATOM     23  C   UNL     1      39.537  -2.396  14.583  0.00  0.00    +0.000 A 
ATOM     24  C   UNL     1      40.888  -2.642  14.811  0.00  0.00    +0.000 A 
ATOM     25  C   UNL     1      41.793  -1.629  14.477  0.00  0.00    +0.000 A 
ATOM     26  C   UNL     1      41.363  -0.444  13.945  0.00  0.00    +0.000 A 
ATOM     27  C   UNL     1      40.014  -0.259  13.742  0.00  0.00    +0.000 A 
ATOM     28  C   UNL     1      42.532   0.452  13.683  0.00  0.00    +0.000 C 
ATOM     29  C   UNL     1      43.696  -0.517  13.673  0.00  0.00    +0.000 C 
ATOM     30  C   UNL     1      43.266  -1.606  14.607  0.00  0.00    +0.000 C 
ENDBRANCH  21  22
ENDBRANCH  20  21
ENDBRANCH   5  20
TORSDOF 8
ENDMDL
MODEL 3
REMARK VINA RESULT:      -7.9      2.131      4.003
REMARK  Name = 
REMARK  8 active torsions:
REMARK  status: ('A' for Active; 'I' for Inactive)
REMARK    1  A    between atoms: O_2  and  C_3
REMARK    2  A    between atoms: C_6  and  C_7
REMARK    3  A    between atoms: C_7  and  C_8
REMARK    4  A    between atoms: C_8  and  N_9
REMARK    5  A    between atoms: C_10  and  C_12
REMARK    6  A    between atoms: C_16  and  C_17
REMARK    7  A    between atoms: C_17  and  O_18
REMARK    8  A    between atoms: O_18  and  C_19
REMARK                            x       y       z     vdW  Elec       q    Type
REMARK                         _______ _______ _______ _____ _____    ______ ____
ROOT
ATOM      1  C   UNL     1      35.985   2.286  16.166  0.00  0.00    +0.000 A 
ATOM      2  C   UNL     1      35.437   2.286  14.888  0.00  0.00    +0.000 A 
ATOM      3  C   UNL     1      35.802   3.196  13.919  0.00  0.00    +0.000 A 
ATOM      4  C   UNL     1      36.741   4.150  14.206  0.00  0.00    +0.000 A 
ATOM      5  C   UNL     1      37.312   4.199  15.443  0.00  0.00    +0.000 A 
ATOM      6  C   UNL     1      36.926   3.263  16.413  0.00  0.00    +0.000 A 
ENDROOT
BRANCH   1   8
ATOM      7  N   UNL     1      36.524   0.768  18.047  0.00  0.00    +0.000 NA
ATOM      8  C   UNL     1      35.575   1.312  17.158  0.00  0.00    +0.000 C 
ATOM      9  O   UNL     1      34.385   0.950  17.230  0.00  0.00    +0.000 OA
BRANCH   7  10
ATOM     10  C   UNL     1      36.210  -0.210  19.071  0.00  0.00    +0.000 C 
BRANCH  10  11
ATOM     11  C   UNL     1      37.241  -1.346  19.027  0.00  0.00    +0.000 C 
BRANCH  11  15
ATOM     12  C   UNL     1      37.570  -2.851  15.007  0.00  0.00    +0.000 A 
ATOM     13  C   UNL     1      36.359  -2.838  15.667  0.00  0.00    +0.000 A 
ATOM     14  C   UNL     1      36.243  -2.358  16.955  0.00  0.00    +0.000 A 
ATOM     15  C   UNL     1      37.338  -1.868  17.640  0.00  0.00    +0.000 A 
ATOM     16  C   UNL     1      38.552  -1.886  16.969  0.00  0.00    +0.000 A 
ATOM     17  C   UNL     1      38.667  -2.365  15.683  0.00  0.00    +0.000 A 
BRANCH  12  19
ATOM     18  C   UNL     1      38.774  -2.926  12.919  0.00  0.00    +0.000 C 
ATOM     19  O   UNL     1      37.674  -3.338  13.709  0.00  0.00    +0.000 OA
ENDBRANCH  12  19
ENDBRANCH  11  15
ENDBRANCH  10  11
ENDBRANCH   7  10
ENDBRANCH   1   8
BRANCH   5  20
ATOM     20  C   UNL     1      38.338   5.202  15.834  0.00  0.00    +0.000 C 
BRANCH  20  21
ATOM     21  O   UNL     1      38.347   5.290  17.235  0.00  0.00    +0.000 OA
BRANCH  21  22
ATOM     22  C   UNL     1      39.442   5.751  17.920  0.00  0.00    +0.000 A 
ATOM     23  C   UNL     1      39.428   5.961  19.267  0.00  0.00    +0.000 A 
ATOM     24  C   UNL     1      40.537   6.429  19.966  0.00  0.00    +0.000 A 
ATOM     25  C   UNL     1      41.700   6.687  19.232  0.00  0.00    +0.000 A 
ATOM     26  C   UNL     1      41.742   6.484  17.880  0.00  0.00    +0.000 A 
ATOM     27  C   UNL     1      40.613   6.019  17.244  0.00  0.00    +0.000 A 
ATOM     28  C   UNL     1      43.097   6.835  17.353  0.00  0.00    +0.000 C 
ATOM     29  C   UNL     1      43.957   6.801  18.600  0.00  0.00    +0.000 C 
ATOM     30  C   UNL     1      43.012   7.184  19.697  0.00  0.00    +0.000 C 
ENDBRANCH  21  22
ENDBRANCH  20  21
ENDBRANCH   5  20
TORSDOF 8
ENDMDL
MODEL 4
REMARK VINA RESULT:      -7.9      1.981      4.584
REMARK  Name = 
REMARK  8 active torsions:
REMARK  status: ('A' for Active; 'I' for Inactive)
REMARK    1  A    between atoms: O_2  and  C_3
REMARK    2  A    between atoms: C_6  and  C_7
REMARK    3  A    between atoms: C_7  and  C_8
REMARK    4  A    between atoms: C_8  and  N_9
REMARK    5  A    between atoms: C_10  and  C_12
REMARK    6  A    between atoms: C_16  and  C_17
REMARK    7  A    between atoms: C_17  and  O_18
REMARK    8  A    between atoms: O_18  and  C_19
REMARK                            x       y       z     vdW  Elec       q    Type
REMARK                         _______ _______ _______ _____ _____    ______ ____
ROOT
ATOM      1  C   UNL     1      35.934   2.690  16.084  0.00  0.00    +0.000 A 
ATOM      2  C   UNL     1      35.124   3.197  15.073  0.00  0.00    +0.000 A 
ATOM      3  C   UNL     1      35.473   4.297  14.319  0.00  0.00    +0.000 A 
ATOM      4  C   UNL     1      36.662   4.933  14.559  0.00  0.00    +0.000 A 
ATOM      5  C   UNL     1      37.496   4.480  15.538  0.00  0.00    +0.000 A 
ATOM      6  C   UNL     1      37.121   3.359  16.292  0.00  0.00    +0.000 A 
ENDROOT
BRANCH   1   8
ATOM      7  N   UNL     1      36.509   0.686  17.421  0.00  0.00    +0.000 NA
ATOM      8  C   UNL     1      35.532   1.530  16.855  0.00  0.00    +0.000 C 
ATOM      9  O   UNL     1      34.325   1.273  17.023  0.00  0.00    +0.000 OA
BRANCH   7  10
ATOM     10  C   UNL     1      36.204  -0.495  18.207  0.00  0.00    +0.000 C 
BRANCH  10  11
ATOM     11  C   UNL     1      35.926  -1.676  17.268  0.00  0.00    +0.000 C 
BRANCH  11  15
ATOM     12  C   UNL     1      39.544  -2.688  15.165  0.00  0.00    +0.000 A 
ATOM     13  C   UNL     1      38.456  -2.160  14.501  0.00  0.00    +0.000 A 
ATOM     14  C   UNL     1      37.292  -1.832  15.165  0.00  0.00    +0.000 A 
ATOM     15  C   UNL     1      37.167  -2.020  16.528  0.00  0.00    +0.000 A 
ATOM     16  C   UNL     1      38.265  -2.552  17.188  0.00  0.00    +0.000 A 
ATOM     17  C   UNL     1      39.426  -2.879  16.523  0.00  0.00    +0.000 A 
BRANCH  12  19
ATOM     18  C   UNL     1      41.731  -2.038  14.385  0.00  0.00    +0.000 C 
ATOM     19  O   UNL     1      40.710  -3.014  14.484  0.00  0.00    +0.000 OA
ENDBRANCH  12  19
ENDBRANCH  11  15
ENDBRANCH  10  11
ENDBRANCH   7  10
ENDBRANCH   1   8
BRANCH   5  20
ATOM     20  C   UNL     1      38.802   5.113  15.860  0.00  0.00    +0.000 C 
BRANCH  20  21
ATOM     21  O   UNL     1      39.093   4.845  17.208  0.00  0.00    +0.000 OA
BRANCH  21  22
ATOM     22  C   UNL     1      39.070   5.834  18.158  0.00  0.00    +0.000 A 
ATOM     23  C   UNL     1      39.994   5.909  19.158  0.00  0.00    +0.000 A 
ATOM     24  C   UNL     1      39.975   6.910  20.124  0.00  0.00    +0.000 A 
ATOM     25  C   UNL     1      38.957   7.866  20.043  0.00  0.00    +0.000 A 
ATOM     26  C   UNL     1      38.018   7.815  19.049  0.00  0.00    +0.000 A 
ATOM     27  C   UNL     1      38.088   6.800  18.121  0.00  0.00    +0.000 A 
ATOM     28  C   UNL     1      37.055   8.951  19.198  0.00  0.00    +0.000 C 
ATOM     29  C   UNL     1      37.815   9.916  20.084  0.00  0.00    +0.000 C 
ATOM     30  C   UNL     1      38.687   9.028  20.917  0.00  0.00    +0.000 C 
ENDBRANCH  21  22
ENDBRANCH  20  21
ENDBRANCH   5  20
TORSDOF 8
ENDMDL
MODEL 5
REMARK VINA RESULT:      -7.7      2.051      5.278
REMARK  Name = 
REMARK  8 active torsions:
REMARK  status: ('A' for Active; 'I' for Inactive)
REMARK    1  A    between atoms: O_2  and  C_3
REMARK    2  A    between atoms: C_6  and  C_7
REMARK    3  A    between atoms: C_7  and  C_8
REMARK    4  A    between atoms: C_8  and  N_9
REMARK    5  A    between atoms: C_10  and  C_12
REMARK    6  A    between atoms: C_16  and  C_17
REMARK    7  A    between atoms: C_17  and  O_18
REMARK    8  A    between atoms: O_18  and  C_19
REMARK                            x       y       z     vdW  Elec       q    Type
REMARK                         _______ _______ _______ _____ _____    ______ ____
ROOT
ATOM      1  C   UNL     1      38.040  -1.921  17.375  0.00  0.00    +0.000 A 
ATOM      2  C   UNL     1      38.038  -2.014  18.763  0.00  0.00    +0.000 A 
ATOM      3  C   UNL     1      37.026  -1.497  19.544  0.00  0.00    +0.000 A 
ATOM      4  C   UNL     1      35.969  -0.862  18.948  0.00  0.00    +0.000 A 
ATOM      5  C   UNL     1      35.918  -0.740  17.591  0.00  0.00    +0.000 A 
ATOM      6  C   UNL     1      36.958  -1.274  16.817  0.00  0.00    +0.000 A 
ENDROOT
BRANCH   1   8
ATOM      7  N   UNL     1      39.713  -1.713  15.561  0.00  0.00    +0.000 NA
ATOM      8  C   UNL     1      39.124  -2.477  16.589  0.00  0.00    +0.000 C 
ATOM      9  O   UNL     1      39.539  -3.629  16.816  0.00  0.00    +0.000 OA
BRANCH   7  10
ATOM     10  C   UNL     1      40.800  -2.183  14.723  0.00  0.00    +0.000 C 
BRANCH  10  11
ATOM     11  C   UNL     1      41.539  -0.980  14.121  0.00  0.00    +0.000 C 
BRANCH  11  15
ATOM     12  C   UNL     1      38.658   1.751  12.454  0.00  0.00    +0.000 A 
ATOM     13  C   UNL     1      39.360   2.066  13.599  0.00  0.00    +0.000 A 
ATOM     14  C   UNL     1      40.285   1.198  14.142  0.00  0.00    +0.000 A 
ATOM     15  C   UNL     1      40.548  -0.027  13.558  0.00  0.00    +0.000 A 
ATOM     16  C   UNL     1      39.838  -0.334  12.407  0.00  0.00    +0.000 A 
ATOM     17  C   UNL     1      38.915   0.533  11.867  0.00  0.00    +0.000 A 
BRANCH  12  19
ATOM     18  C   UNL     1      38.190   3.663  11.060  0.00  0.00    +0.000 C 
ATOM     19  O   UNL     1      37.729   2.635  11.918  0.00  0.00    +0.000 OA
ENDBRANCH  12  19
ENDBRANCH  11  15
ENDBRANCH  10  11
ENDBRANCH   7  10
ENDBRANCH   1   8
BRANCH   5  20
ATOM     20  C   UNL     1      34.807  -0.066  16.869  0.00  0.00    +0.000 C 
BRANCH  20  21
ATOM     21  O   UNL     1      34.799   1.285  17.251  0.00  0.00    +0.000 OA
BRANCH  21  22
ATOM     22  C   UNL     1      35.399   2.252  16.485  0.00  0.00    +0.000 A 
ATOM     23  C   UNL     1      34.845   2.719  15.330  0.00  0.00    +0.000 A 
ATOM     24  C   UNL     1      35.450   3.701  14.550  0.00  0.00    +0.000 A 
ATOM     25  C   UNL     1      36.675   4.211  14.992  0.00  0.00    +0.000 A 
ATOM     26  C   UNL     1      37.253   3.761  16.148  0.00  0.00    +0.000 A 
ATOM     27  C   UNL     1      36.606   2.789  16.877  0.00  0.00    +0.000 A 
ATOM     28  C   UNL     1      38.548   4.473  16.382  0.00  0.00    +0.000 C 
ATOM     29  C   UNL     1      38.415   5.700  15.504  0.00  0.00    +0.000 C 
ATOM     30  C   UNL     1      37.538   5.244  14.379  0.00  0.00    +0.000 C 
ENDBRANCH  21  22
ENDBRANCH  20  21
ENDBRANCH   5  20
TORSDOF 8
ENDMDL
MODEL 6
REMARK VINA RESULT:      -7.6     22.716     26.418
REMARK  Name = 
REMARK  8 active torsions:
REMARK  status: ('A' for Active; 'I' for Inactive)
REMARK    1  A    between atoms: O_2  and  C_3
REMARK    2  A    between atoms: C_6  and  C_7
REMARK    3  A    between atoms: C_7  and  C_8
REMARK    4  A    between atoms: C_8  and  N_9
REMARK    5  A    between atoms: C_10  and  C_12
REMARK    6  A    between atoms: C_16  and  C_17
REMARK    7  A    between atoms: C_17  and  O_18
REMARK    8  A    between atoms: O_18  and  C_19
REMARK                            x       y       z     vdW  Elec       q    Type
REMARK                         _______ _______ _______ _____ _____    ______ ____
ROOT
ATOM      1  C   UNL     1      14.223   0.065  28.909  0.00  0.00    +0.000 A 
ATOM      2  C   UNL     1      13.463  -0.289  27.799  0.00  0.00    +0.000 A 
ATOM      3  C   UNL     1      14.001  -0.420  26.537  0.00  0.00    +0.000 A 
ATOM      4  C   UNL     1      15.338  -0.198  26.345  0.00  0.00    +0.000 A 
ATOM      5  C   UNL     1      16.133   0.152  27.396  0.00  0.00    +0.000 A 
ATOM      6  C   UNL     1      15.564   0.279  28.671  0.00  0.00    +0.000 A 
ENDROOT
BRANCH   1   8
ATOM      7  N   UNL     1      14.434   0.228  31.371  0.00  0.00    +0.000 NA
ATOM      8  C   UNL     1      13.620   0.192  30.221  0.00  0.00    +0.000 C 
ATOM      9  O   UNL     1      12.383   0.272  30.340  0.00  0.00    +0.000 OA
BRANCH   7  10
ATOM     10  C   UNL     1      13.924   0.353  32.723  0.00  0.00    +0.000 C 
BRANCH  10  11
ATOM     11  C   UNL     1      15.091   0.298  33.717  0.00  0.00    +0.000 C 
BRANCH  11  15
ATOM     12  C   UNL     1      15.538  -3.741  35.140  0.00  0.00    +0.000 A 
ATOM     13  C   UNL     1      15.166  -2.722  35.991  0.00  0.00    +0.000 A 
ATOM     14  C   UNL     1      15.020  -1.424  35.546  0.00  0.00    +0.000 A 
ATOM     15  C   UNL     1      15.241  -1.091  34.223  0.00  0.00    +0.000 A 
ATOM     16  C   UNL     1      15.615  -2.122  33.375  0.00  0.00    +0.000 A 
ATOM     17  C   UNL     1      15.761  -3.416  33.820  0.00  0.00    +0.000 A 
BRANCH  12  19
ATOM     18  C   UNL     1      14.860  -5.477  36.670  0.00  0.00    +0.000 C 
ATOM     19  O   UNL     1      15.682  -5.044  35.602  0.00  0.00    +0.000 OA
ENDBRANCH  12  19
ENDBRANCH  11  15
ENDBRANCH  10  11
ENDBRANCH   7  10
ENDBRANCH   1   8
BRANCH   5  20
ATOM     20  C   UNL     1      17.592   0.410  27.271  0.00  0.00    +0.000 C 
BRANCH  20  21
ATOM     21  O   UNL     1      17.838   0.886  25.973  0.00  0.00    +0.000 OA
BRANCH  21  22
ATOM     22  C   UNL     1      18.558   0.153  25.064  0.00  0.00    +0.000 A 
ATOM     23  C   UNL     1      18.566  -1.210  25.064  0.00  0.00    +0.000 A 
ATOM     24  C   UNL     1      19.295  -1.957  24.144  0.00  0.00    +0.000 A 
ATOM     25  C   UNL     1      20.041  -1.256  23.190  0.00  0.00    +0.000 A 
ATOM     26  C   UNL     1      20.050   0.112  23.167  0.00  0.00    +0.000 A 
ATOM     27  C   UNL     1      19.308   0.796  24.103  0.00  0.00    +0.000 A 
ATOM     28  C   UNL     1      20.921   0.598  22.052  0.00  0.00    +0.000 C 
ATOM     29  C   UNL     1      21.024  -0.620  21.157  0.00  0.00    +0.000 C 
ATOM     30  C   UNL     1      20.899  -1.774  22.104  0.00  0.00    +0.000 C 
ENDBRANCH  21  22
ENDBRANCH  20  21
ENDBRANCH   5  20
TORSDOF 8
ENDMDL
MODEL 7
REMARK VINA RESULT:      -7.6      2.484      7.528
REMARK  Name = 
REMARK  8 active torsions:
REMARK  status: ('A' for Active; 'I' for Inactive)
REMARK    1  A    between atoms: O_2  and  C_3
REMARK    2  A    between atoms: C_6  and  C_7
REMARK    3  A    between atoms: C_7  and  C_8
REMARK    4  A    between atoms: C_8  and  N_9
REMARK    5  A    between atoms: C_10  and  C_12
REMARK    6  A    between atoms: C_16  and  C_17
REMARK    7  A    between atoms: C_17  and  O_18
REMARK    8  A    between atoms: O_18  and  C_19
REMARK                            x       y       z     vdW  Elec       q    Type
REMARK                         _______ _______ _______ _____ _____    ______ ____
ROOT
ATOM      1  C   UNL     1      35.830   0.877  17.022  0.00  0.00    +0.000 A 
ATOM      2  C   UNL     1      35.707   0.542  18.366  0.00  0.00    +0.000 A 
ATOM      3  C   UNL     1      35.452  -0.744  18.795  0.00  0.00    +0.000 A 
ATOM      4  C   UNL     1      35.310  -1.748  17.875  0.00  0.00    +0.000 A 
ATOM      5  C   UNL     1      35.421  -1.478  16.543  0.00  0.00    +0.000 A 
ATOM      6  C   UNL     1      35.681  -0.164  16.130  0.00  0.00    +0.000 A 
ENDROOT
BRANCH   1   8
ATOM      7  N   UNL     1      37.321   2.852  16.954  0.00  0.00    +0.000 NA
ATOM      8  C   UNL     1      36.099   2.240  16.611  0.00  0.00    +0.000 C 
ATOM      9  O   UNL     1      35.254   2.878  15.955  0.00  0.00    +0.000 OA
BRANCH   7  10
ATOM     10  C   UNL     1      37.681   4.209  16.589  0.00  0.00    +0.000 C 
BRANCH  10  11
ATOM     11  C   UNL     1      38.942   4.188  15.715  0.00  0.00    +0.000 C 
BRANCH  11  15
ATOM     12  C   UNL     1      38.380   1.445  12.444  0.00  0.00    +0.000 A 
ATOM     13  C   UNL     1      37.704   2.646  12.492  0.00  0.00    +0.000 A 
ATOM     14  C   UNL     1      37.877   3.532  13.536  0.00  0.00    +0.000 A 
ATOM     15  C   UNL     1      38.737   3.252  14.580  0.00  0.00    +0.000 A 
ATOM     16  C   UNL     1      39.412   2.041  14.524  0.00  0.00    +0.000 A 
ATOM     17  C   UNL     1      39.239   1.158  13.482  0.00  0.00    +0.000 A 
BRANCH  12  19
ATOM     18  C   UNL     1      38.747   0.893  10.126  0.00  0.00    +0.000 C 
ATOM     19  O   UNL     1      38.196   0.561  11.388  0.00  0.00    +0.000 OA
ENDBRANCH  12  19
ENDBRANCH  11  15
ENDBRANCH  10  11
ENDBRANCH   7  10
ENDBRANCH   1   8
BRANCH   5  20
ATOM     20  C   UNL     1      35.280  -2.511  15.482  0.00  0.00    +0.000 C 
BRANCH  20  21
ATOM     21  O   UNL     1      36.311  -3.450  15.653  0.00  0.00    +0.000 OA
BRANCH  21  22
ATOM     22  C   UNL     1      37.598  -3.183  15.261  0.00  0.00    +0.000 A 
ATOM     23  C   UNL     1      38.634  -3.123  16.145  0.00  0.00    +0.000 A 
ATOM     24  C   UNL     1      39.942  -2.854  15.753  0.00  0.00    +0.000 A 
ATOM     25  C   UNL     1      40.175  -2.639  14.390  0.00  0.00    +0.000 A 
ATOM     26  C   UNL     1      39.153  -2.694  13.481  0.00  0.00    +0.000 A 
ATOM     27  C   UNL     1      37.880  -2.966  13.930  0.00  0.00    +0.000 A 
ATOM     28  C   UNL     1      39.679  -2.431  12.106  0.00  0.00    +0.000 C 
ATOM     29  C   UNL     1      41.163  -2.692  12.262  0.00  0.00    +0.000 C 
ATOM     30  C   UNL     1      41.441  -2.336  13.690  0.00  0.00    +0.000 C 
ENDBRANCH  21  22
ENDBRANCH  20  21
ENDBRANCH   5  20
TORSDOF 8
ENDMDL
MODEL 8
REMARK VINA RESULT:      -7.6      7.363     10.946
REMARK  Name = 
REMARK  8 active torsions:
REMARK  status: ('A' for Active; 'I' for Inactive)
REMARK    1  A    between atoms: O_2  and  C_3
REMARK    2  A    between atoms: C_6  and  C_7
REMARK    3  A    between atoms: C_7  and  C_8
REMARK    4  A    between atoms: C_8  and  N_9
REMARK    5  A    between atoms: C_10  and  C_12
REMARK    6  A    between atoms: C_16  and  C_17
REMARK    7  A    between atoms: C_17  and  O_18
REMARK    8  A    between atoms: O_18  and  C_19
REMARK                            x       y       z     vdW  Elec       q    Type
REMARK                         _______ _______ _______ _____ _____    ______ ____
ROOT
ATOM      1  C   UNL     1      44.532   5.789  23.805  0.00  0.00    +0.000 A 
ATOM      2  C   UNL     1      45.392   4.894  23.178  0.00  0.00    +0.000 A 
ATOM      3  C   UNL     1      45.573   4.866  21.811  0.00  0.00    +0.000 A 
ATOM      4  C   UNL     1      44.887   5.748  21.020  0.00  0.00    +0.000 A 
ATOM      5  C   UNL     1      44.029   6.648  21.580  0.00  0.00    +0.000 A 
ATOM      6  C   UNL     1      43.861   6.658  22.972  0.00  0.00    +0.000 A 
ENDROOT
BRANCH   1   8
ATOM      7  N   UNL     1      44.621   4.611  25.982  0.00  0.00    +0.000 NA
ATOM      8  C   UNL     1      44.369   5.786  25.245  0.00  0.00    +0.000 C 
ATOM      9  O   UNL     1      44.008   6.819  25.840  0.00  0.00    +0.000 OA
BRANCH   7  10
ATOM     10  C   UNL     1      44.486   4.511  27.423  0.00  0.00    +0.000 C 
BRANCH  10  11
ATOM     11  C   UNL     1      43.485   3.401  27.767  0.00  0.00    +0.000 C 
BRANCH  11  15
ATOM     12  C   UNL     1      40.231   5.043  30.059  0.00  0.00    +0.000 A 
ATOM     13  C   UNL     1      40.532   5.523  28.801  0.00  0.00    +0.000 A 
ATOM     14  C   UNL     1      41.572   5.004  28.059  0.00  0.00    +0.000 A 
ATOM     15  C   UNL     1      42.359   3.978  28.545  0.00  0.00    +0.000 A 
ATOM     16  C   UNL     1      42.050   3.502  29.811  0.00  0.00    +0.000 A 
ATOM     17  C   UNL     1      41.011   4.020  30.551  0.00  0.00    +0.000 A 
BRANCH  12  19
ATOM     18  C   UNL     1      38.593   6.787  30.359  0.00  0.00    +0.000 C 
ATOM     19  O   UNL     1      39.180   5.575  30.796  0.00  0.00    +0.000 OA
ENDBRANCH  12  19
ENDBRANCH  11  15
ENDBRANCH  10  11
ENDBRANCH   7  10
ENDBRANCH   1   8
BRANCH   5  20
ATOM     20  C   UNL     1      43.248   7.637  20.791  0.00  0.00    +0.000 C 
BRANCH  20  21
ATOM     21  O   UNL     1      41.939   7.148  20.658  0.00  0.00    +0.000 OA
BRANCH  21  22
ATOM     22  C   UNL     1      41.452   6.715  19.451  0.00  0.00    +0.000 A 
ATOM     23  C   UNL     1      42.161   6.830  18.293  0.00  0.00    +0.000 A 
ATOM     24  C   UNL     1      41.672   6.392  17.066  0.00  0.00    +0.000 A 
ATOM     25  C   UNL     1      40.398   5.814  17.049  0.00  0.00    +0.000 A 
ATOM     26  C   UNL     1      39.664   5.686  18.197  0.00  0.00    +0.000 A 
ATOM     27  C   UNL     1      40.203   6.138  19.381  0.00  0.00    +0.000 A 
ATOM     28  C   UNL     1      38.351   5.038  17.894  0.00  0.00    +0.000 C 
ATOM     29  C   UNL     1      38.605   4.383  16.552  0.00  0.00    +0.000 C 
ATOM     30  C   UNL     1      39.630   5.267  15.910  0.00  0.00    +0.000 C 
ENDBRANCH  21  22
ENDBRANCH  20  21
ENDBRANCH   5  20
TORSDOF 8
ENDMDL
MODEL 9
REMARK VINA RESULT:      -7.5     25.227     28.742
REMARK  Name = 
REMARK  8 active torsions:
REMARK  status: ('A' for Active; 'I' for Inactive)
REMARK    1  A    between atoms: O_2  and  C_3
REMARK    2  A    between atoms: C_6  and  C_7
REMARK    3  A    between atoms: C_7  and  C_8
REMARK    4  A    between atoms: C_8  and  N_9
REMARK    5  A    between atoms: C_10  and  C_12
REMARK    6  A    between atoms: C_16  and  C_17
REMARK    7  A    between atoms: C_17  and  O_18
REMARK    8  A    between atoms: O_18  and  C_19
REMARK                            x       y       z     vdW  Elec       q    Type
REMARK                         _______ _______ _______ _____ _____    ______ ____
ROOT
ATOM      1  C   UNL     1      11.836   1.952  26.991  0.00  0.00    +0.000 A 
ATOM      2  C   UNL     1      11.241   0.941  26.244  0.00  0.00    +0.000 A 
ATOM      3  C   UNL     1      11.862  -0.263  25.988  0.00  0.00    +0.000 A 
ATOM      4  C   UNL     1      13.120  -0.493  26.479  0.00  0.00    +0.000 A 
ATOM      5  C   UNL     1      13.753   0.463  27.217  0.00  0.00    +0.000 A 
ATOM      6  C   UNL     1      13.101   1.679  27.466  0.00  0.00    +0.000 A 
ENDROOT
BRANCH   1   8
ATOM      7  N   UNL     1       9.741   3.237  27.290  0.00  0.00    +0.000 NA
ATOM      8  C   UNL     1      11.149   3.204  27.238  0.00  0.00    +0.000 C 
ATOM      9  O   UNL     1      11.796   4.255  27.407  0.00  0.00    +0.000 OA
BRANCH   7  10
ATOM     10  C   UNL     1       8.966   4.440  27.532  0.00  0.00    +0.000 C 
BRANCH  10  11
ATOM     11  C   UNL     1       7.919   4.163  28.619  0.00  0.00    +0.000 C 
BRANCH  11  15
ATOM     12  C   UNL     1       8.767   6.576  32.083  0.00  0.00    +0.000 A 
ATOM     13  C   UNL     1       9.546   5.482  31.767  0.00  0.00    +0.000 A 
ATOM     14  C   UNL     1       9.283   4.703  30.659  0.00  0.00    +0.000 A 
ATOM     15  C   UNL     1       8.224   4.986  29.817  0.00  0.00    +0.000 A 
ATOM     16  C   UNL     1       7.446   6.087  30.143  0.00  0.00    +0.000 A 
ATOM     17  C   UNL     1       7.710   6.864  31.249  0.00  0.00    +0.000 A 
BRANCH  12  19
ATOM     18  C   UNL     1       7.991   7.628  34.109  0.00  0.00    +0.000 C 
ATOM     19  O   UNL     1       9.043   7.353  33.201  0.00  0.00    +0.000 OA
ENDBRANCH  12  19
ENDBRANCH  11  15
ENDBRANCH  10  11
ENDBRANCH   7  10
ENDBRANCH   1   8
BRANCH   5  20
ATOM     20  C   UNL     1      15.116   0.291  27.786  0.00  0.00    +0.000 C 
BRANCH  20  21
ATOM     21  O   UNL     1      16.002   1.075  27.030  0.00  0.00    +0.000 OA
BRANCH  21  22
ATOM     22  C   UNL     1      16.937   0.509  26.202  0.00  0.00    +0.000 A 
ATOM     23  C   UNL     1      16.984  -0.832  25.960  0.00  0.00    +0.000 A 
ATOM     24  C   UNL     1      17.930  -1.412  25.120  0.00  0.00    +0.000 A 
ATOM     25  C   UNL     1      18.860  -0.562  24.513  0.00  0.00    +0.000 A 
ATOM     26  C   UNL     1      18.836   0.788  24.737  0.00  0.00    +0.000 A 
ATOM     27  C   UNL     1      17.875   1.303  25.578  0.00  0.00    +0.000 A 
ATOM     28  C   UNL     1      19.932   1.454  23.967  0.00  0.00    +0.000 C 
ATOM     29  C   UNL     1      20.277   0.416  22.919  0.00  0.00    +0.000 C 
ATOM     30  C   UNL     1      19.965  -0.888  23.587  0.00  0.00    +0.000 C 
ENDBRANCH  21  22
ENDBRANCH  20  21
ENDBRANCH   5  20
TORSDOF 8
ENDMDL
MODEL 10
REMARK VINA RESULT:      -7.5      3.371      5.493
REMARK  Name = 
REMARK  8 active torsions:
REMARK  status: ('A' for Active; 'I' for Inactive)
REMARK    1  A    between atoms: O_2  and  C_3
REMARK    2  A    between atoms: C_6  and  C_7
REMARK    3  A    between atoms: C_7  and  C_8
REMARK    4  A    between atoms: C_8  and  N_9
REMARK    5  A    between atoms: C_10  and  C_12
REMARK    6  A    between atoms: C_16  and  C_17
REMARK    7  A    between atoms: C_17  and  O_18
REMARK    8  A    between atoms: O_18  and  C_19
REMARK                            x       y       z     vdW  Elec       q    Type
REMARK                         _______ _______ _______ _____ _____    ______ ____
ROOT
ATOM      1  C   UNL     1      38.954   4.921  16.876  0.00  0.00    +0.000 A 
ATOM      2  C   UNL     1      39.847   5.344  15.898  0.00  0.00    +0.000 A 
ATOM      3  C   UNL     1      40.953   6.117  16.181  0.00  0.00    +0.000 A 
ATOM      4  C   UNL     1      41.201   6.497  17.473  0.00  0.00    +0.000 A 
ATOM      5  C   UNL     1      40.358   6.112  18.474  0.00  0.00    +0.000 A 
ATOM      6  C   UNL     1      39.240   5.325  18.162  0.00  0.00    +0.000 A 
ENDROOT
BRANCH   1   8
ATOM      7  N   UNL     1      37.221   4.207  15.258  0.00  0.00    +0.000 NA
ATOM      8  C   UNL     1      37.802   4.108  16.538  0.00  0.00    +0.000 C 
ATOM      9  O   UNL     1      37.321   3.319  17.373  0.00  0.00    +0.000 OA
BRANCH   7  10
ATOM     10  C   UNL     1      36.070   3.436  14.827  0.00  0.00    +0.000 C 
BRANCH  10  11
ATOM     11  C   UNL     1      36.544   2.183  14.080  0.00  0.00    +0.000 C 
BRANCH  11  15
ATOM     12  C   UNL     1      36.428  -1.175  16.773  0.00  0.00    +0.000 A 
ATOM     13  C   UNL     1      37.528  -0.938  15.975  0.00  0.00    +0.000 A 
ATOM     14  C   UNL     1      37.575   0.135  15.109  0.00  0.00    +0.000 A 
ATOM     15  C   UNL     1      36.519   1.020  15.004  0.00  0.00    +0.000 A 
ATOM     16  C   UNL     1      35.417   0.773  15.810  0.00  0.00    +0.000 A 
ATOM     17  C   UNL     1      35.371  -0.298  16.674  0.00  0.00    +0.000 A 
BRANCH  12  19
ATOM     18  C   UNL     1      37.527  -2.514  18.450  0.00  0.00    +0.000 C 
ATOM     19  O   UNL     1      36.393  -2.259  17.641  0.00  0.00    +0.000 OA
ENDBRANCH  12  19
ENDBRANCH  11  15
ENDBRANCH  10  11
ENDBRANCH   7  10
ENDBRANCH   1   8
BRANCH   5  20
ATOM     20  C   UNL     1      40.556   6.482  19.900  0.00  0.00    +0.000 C 
BRANCH  20  21
ATOM     21  O   UNL     1      39.320   6.906  20.414  0.00  0.00    +0.000 OA
BRANCH  21  22
ATOM     22  C   UNL     1      38.857   8.181  20.213  0.00  0.00    +0.000 A 
ATOM     23  C   UNL     1      37.742   8.447  19.474  0.00  0.00    +0.000 A 
ATOM     24  C   UNL     1      37.269   9.739  19.268  0.00  0.00    +0.000 A 
ATOM     25  C   UNL     1      37.984  10.790  19.853  0.00  0.00    +0.000 A 
ATOM     26  C   UNL     1      39.106  10.551  20.600  0.00  0.00    +0.000 A 
ATOM     27  C   UNL     1      39.525   9.250  20.769  0.00  0.00    +0.000 A 
ATOM     28  C   UNL     1      39.668  11.842  21.104  0.00  0.00    +0.000 C 
ATOM     29  C   UNL     1      38.494  12.790  20.968  0.00  0.00    +0.000 C 
ATOM     30  C   UNL     1      37.724  12.244  19.805  0.00  0.00    +0.000 C 
ENDBRANCH  21  22
ENDBRANCH  20  21
ENDBRANCH   5  20
TORSDOF 8
ENDMDL
