MODEL 1
REMARK VINA RESULT:      -8.8      0.000      0.000
REMARK  Name = 
REMARK  7 active torsions:
REMARK  status: ('A' for Active; 'I' for Inactive)
REMARK    1  A    between atoms: N_10  and  C_11
REMARK    2  A    between atoms: C_11  and  C_12
REMARK    3  A    between atoms: C_12  and  C_14
REMARK    4  A    between atoms: C_14  and  O_15
REMARK    5  A    between atoms: O_15  and  C_16
REMARK    6  A    between atoms: C_19  and  C_20
REMARK    7  A    between atoms: C_20  and  C_23
REMARK                            x       y       z     vdW  Elec       q    Type
REMARK                         _______ _______ _______ _____ _____    ______ ____
ROOT
ATOM      1  C   UNL     1      35.987   2.421  16.206  0.00  0.00    +0.000 C 
ATOM      2  O   UNL     1      34.699   3.119  15.784  0.00  0.00    +0.000 OA
ENDROOT
BRANCH   1   3
ATOM      3  C   UNL     1      35.861   1.266  15.023  0.00  0.00    +0.000 C 
BRANCH   3  13
ATOM      4  C   UNL     1      34.594  -0.598  17.104  0.00  0.00    +0.000 C 
ATOM      5  C   UNL     1      35.975  -0.755  16.534  0.00  0.00    +0.000 A 
ATOM      6  N   UNL     1      36.884  -1.702  16.819  0.00  0.00    +0.000 NA
ATOM      7  C   UNL     1      37.982  -1.442  16.070  0.00  0.00    +0.000 A 
ATOM      8  C   UNL     1      39.211  -2.054  15.934  0.00  0.00    +0.000 A 
ATOM      9  C   UNL     1      40.151  -1.529  15.057  0.00  0.00    +0.000 A 
ATOM     10  C   UNL     1      39.916  -0.403  14.298  0.00  0.00    +0.000 A 
ATOM     11  C   UNL     1      38.680   0.211  14.435  0.00  0.00    +0.000 A 
ATOM     12  C   UNL     1      37.738  -0.314  15.314  0.00  0.00    +0.000 A 
ATOM     13  N   UNL     1      36.492   0.081  15.627  0.00  0.00    +0.000 N 
ATOM     14  O   UNL     1      40.895   0.081  13.434  0.00  0.00    +0.000 OA
ATOM     15  C   UNL     1      41.932  -0.801  12.973  0.00  0.00    +0.000 C 
ATOM     16  C   UNL     1      42.414  -1.695  14.081  0.00  0.00    +0.000 C 
ATOM     17  O   UNL     1      41.382  -2.143  14.922  0.00  0.00    +0.000 OA
ENDBRANCH   3  13
ENDBRANCH   1   3
BRANCH   1  18
ATOM     18  C   UNL     1      36.938   3.404  15.276  0.00  0.00    +0.000 C 
BRANCH  18  19
ATOM     19  O   UNL     1      38.207   3.326  15.873  0.00  0.00    +0.000 OA
BRANCH  19  20
ATOM     20  C   UNL     1      38.764   4.356  16.606  0.00  0.00    +0.000 A 
ATOM     21  C   UNL     1      38.490   4.420  17.953  0.00  0.00    +0.000 A 
ATOM     22  C   UNL     1      39.013   5.417  18.725  0.00  0.00    +0.000 A 
ATOM     23  C   UNL     1      39.823   6.380  18.190  0.00  0.00    +0.000 A 
ATOM     24  C   UNL     1      40.098   6.312  16.828  0.00  0.00    +0.000 A 
ATOM     25  C   UNL     1      39.573   5.316  16.062  0.00  0.00    +0.000 A 
BRANCH  23  26
ATOM     26  C   UNL     1      40.375   7.449  19.048  0.00  0.00    +0.000 C 
ATOM     27  C   UNL     1      39.565   7.626  20.329  0.00  0.00    +0.000 C 
ATOM     28  C   UNL     1      40.339   8.754  18.274  0.00  0.00    +0.000 C 
BRANCH  26  29
ATOM     29  C   UNL     1      41.749   7.054  19.433  0.00  0.00    +0.000 A 
ATOM     30  C   UNL     1      41.915   6.454  20.675  0.00  0.00    +0.000 A 
ATOM     31  C   UNL     1      43.151   6.059  21.109  0.00  0.00    +0.000 A 
ATOM     32  C   UNL     1      44.234   6.268  20.287  0.00  0.00    +0.000 A 
ATOM     33  C   UNL     1      44.104   6.860  19.049  0.00  0.00    +0.000 A 
ATOM     34  C   UNL     1      42.848   7.255  18.621  0.00  0.00    +0.000 A 
ENDBRANCH  26  29
ENDBRANCH  23  26
ENDBRANCH  19  20
ENDBRANCH  18  19
ENDBRANCH   1  18
TORSDOF 7
ENDMDL
MODEL 2
REMARK VINA RESULT:      -8.6      2.025      2.696
REMARK  Name = 
REMARK  7 active torsions:
REMARK  status: ('A' for Active; 'I' for Inactive)
REMARK    1  A    between atoms: N_10  and  C_11
REMARK    2  A    between atoms: C_11  and  C_12
REMARK    3  A    between atoms: C_12  and  C_14
REMARK    4  A    between atoms: C_14  and  O_15
REMARK    5  A    between atoms: O_15  and  C_16
REMARK    6  A    between atoms: C_19  and  C_20
REMARK    7  A    between atoms: C_20  and  C_23
REMARK                            x       y       z     vdW  Elec       q    Type
REMARK                         _______ _______ _______ _____ _____    ______ ____
ROOT
ATOM      1  C   UNL     1      36.725   3.651  14.182  0.00  0.00    +0.000 C 
ATOM      2  O   UNL     1      36.867   3.926  12.689  0.00  0.00    +0.000 OA
ENDROOT
BRANCH   1   3
ATOM      3  C   UNL     1      36.440   2.033  13.954  0.00  0.00    +0.000 C 
BRANCH   3  13
ATOM      4  C   UNL     1      34.051   3.260  15.437  0.00  0.00    +0.000 C 
ATOM      5  C   UNL     1      34.865   2.096  15.928  0.00  0.00    +0.000 A 
ATOM      6  N   UNL     1      34.711   1.401  17.067  0.00  0.00    +0.000 NA
ATOM      7  C   UNL     1      35.672   0.447  17.088  0.00  0.00    +0.000 A 
ATOM      8  C   UNL     1      36.010  -0.547  17.982  0.00  0.00    +0.000 A 
ATOM      9  C   UNL     1      37.081  -1.388  17.709  0.00  0.00    +0.000 A 
ATOM     10  C   UNL     1      37.841  -1.280  16.565  0.00  0.00    +0.000 A 
ATOM     11  C   UNL     1      37.501  -0.279  15.666  0.00  0.00    +0.000 A 
ATOM     12  C   UNL     1      36.428   0.564  15.940  0.00  0.00    +0.000 A 
ATOM     13  N   UNL     1      35.902   1.590  15.250  0.00  0.00    +0.000 N 
ATOM     14  O   UNL     1      38.905  -2.150  16.341  0.00  0.00    +0.000 OA
ATOM     15  C   UNL     1      38.937  -3.418  17.017  0.00  0.00    +0.000 C 
ATOM     16  C   UNL     1      38.486  -3.281  18.444  0.00  0.00    +0.000 C 
ATOM     17  O   UNL     1      37.418  -2.384  18.606  0.00  0.00    +0.000 OA
ENDBRANCH   3  13
ENDBRANCH   1   3
BRANCH   1  18
ATOM     18  C   UNL     1      38.350   3.431  14.393  0.00  0.00    +0.000 C 
BRANCH  18  19
ATOM     19  O   UNL     1      38.511   3.347  15.785  0.00  0.00    +0.000 OA
BRANCH  19  20
ATOM     20  C   UNL     1      38.997   4.386  16.555  0.00  0.00    +0.000 A 
ATOM     21  C   UNL     1      38.575   4.482  17.862  0.00  0.00    +0.000 A 
ATOM     22  C   UNL     1      39.022   5.488  18.668  0.00  0.00    +0.000 A 
ATOM     23  C   UNL     1      39.900   6.431  18.209  0.00  0.00    +0.000 A 
ATOM     24  C   UNL     1      40.325   6.331  16.887  0.00  0.00    +0.000 A 
ATOM     25  C   UNL     1      39.875   5.325  16.087  0.00  0.00    +0.000 A 
BRANCH  23  26
ATOM     26  C   UNL     1      40.368   7.511  19.102  0.00  0.00    +0.000 C 
ATOM     27  C   UNL     1      39.492   7.640  20.345  0.00  0.00    +0.000 C 
ATOM     28  C   UNL     1      40.313   8.822  18.340  0.00  0.00    +0.000 C 
BRANCH  26  29
ATOM     29  C   UNL     1      41.738   7.168  19.547  0.00  0.00    +0.000 A 
ATOM     30  C   UNL     1      41.858   6.317  20.638  0.00  0.00    +0.000 A 
ATOM     31  C   UNL     1      43.087   5.950  21.115  0.00  0.00    +0.000 A 
ATOM     32  C   UNL     1      44.208   6.441  20.488  0.00  0.00    +0.000 A 
ATOM     33  C   UNL     1      44.125   7.287  19.403  0.00  0.00    +0.000 A 
ATOM     34  C   UNL     1      42.875   7.651  18.931  0.00  0.00    +0.000 A 
ENDBRANCH  26  29
ENDBRANCH  23  26
ENDBRANCH  19  20
ENDBRANCH  18  19
ENDBRANCH   1  18
TORSDOF 7
ENDMDL
MODEL 3
REMARK VINA RESULT:      -8.5      1.947      3.759
REMARK  Name = 
REMARK  7 active torsions:
REMARK  status: ('A' for Active; 'I' for Inactive)
REMARK    1  A    between atoms: N_10  and  C_11
REMARK    2  A    between atoms: C_11  and  C_12
REMARK    3  A    between atoms: C_12  and  C_14
REMARK    4  A    between atoms: C_14  and  O_15
REMARK    5  A    between atoms: O_15  and  C_16
REMARK    6  A    between atoms: C_19  and  C_20
REMARK    7  A    between atoms: C_20  and  C_23
REMARK                            x       y       z     vdW  Elec       q    Type
REMARK                         _______ _______ _______ _____ _____    ______ ____
ROOT
ATOM      1  C   UNL     1      35.938   2.037  16.252  0.00  0.00    +0.000 C 
ATOM      2  O   UNL     1      34.496   2.513  16.384  0.00  0.00    +0.000 OA
ENDROOT
BRANCH   1   3
ATOM      3  C   UNL     1      35.634   1.197  14.854  0.00  0.00    +0.000 C 
BRANCH   3  13
ATOM      4  C   UNL     1      37.487   1.256  12.410  0.00  0.00    +0.000 C 
ATOM      5  C   UNL     1      37.681   0.384  13.618  0.00  0.00    +0.000 A 
ATOM      6  N   UNL     1      38.662  -0.505  13.847  0.00  0.00    +0.000 NA
ATOM      7  C   UNL     1      38.427  -1.056  15.061  0.00  0.00    +0.000 A 
ATOM      8  C   UNL     1      39.077  -2.009  15.818  0.00  0.00    +0.000 A 
ATOM      9  C   UNL     1      38.570  -2.370  17.059  0.00  0.00    +0.000 A 
ATOM     10  C   UNL     1      37.426  -1.814  17.588  0.00  0.00    +0.000 A 
ATOM     11  C   UNL     1      36.773  -0.856  16.826  0.00  0.00    +0.000 A 
ATOM     12  C   UNL     1      37.280  -0.494  15.582  0.00  0.00    +0.000 A 
ATOM     13  N   UNL     1      36.848   0.388  14.665  0.00  0.00    +0.000 N 
ATOM     14  O   UNL     1      36.961  -2.213  18.839  0.00  0.00    +0.000 OA
ATOM     15  C   UNL     1      37.869  -2.822  19.770  0.00  0.00    +0.000 C 
ATOM     16  C   UNL     1      38.797  -3.780  19.075  0.00  0.00    +0.000 C 
ATOM     17  O   UNL     1      39.223  -3.325  17.816  0.00  0.00    +0.000 OA
ENDBRANCH   3  13
ENDBRANCH   1   3
BRANCH   1  18
ATOM     18  C   UNL     1      36.414   3.398  15.441  0.00  0.00    +0.000 C 
BRANCH  18  19
ATOM     19  O   UNL     1      37.815   3.388  15.538  0.00  0.00    +0.000 OA
BRANCH  19  20
ATOM     20  C   UNL     1      38.527   4.282  16.314  0.00  0.00    +0.000 A 
ATOM     21  C   UNL     1      38.236   4.355  17.657  0.00  0.00    +0.000 A 
ATOM     22  C   UNL     1      38.907   5.221  18.471  0.00  0.00    +0.000 A 
ATOM     23  C   UNL     1      39.887   6.040  17.984  0.00  0.00    +0.000 A 
ATOM     24  C   UNL     1      40.180   5.963  16.626  0.00  0.00    +0.000 A 
ATOM     25  C   UNL     1      39.507   5.098  15.818  0.00  0.00    +0.000 A 
BRANCH  23  26
ATOM     26  C   UNL     1      40.598   6.969  18.887  0.00  0.00    +0.000 C 
ATOM     27  C   UNL     1      41.793   7.625  18.202  0.00  0.00    +0.000 C 
ATOM     28  C   UNL     1      41.104   6.184  20.083  0.00  0.00    +0.000 C 
BRANCH  26  29
ATOM     29  C   UNL     1      39.651   8.041  19.269  0.00  0.00    +0.000 A 
ATOM     30  C   UNL     1      39.289   8.951  18.285  0.00  0.00    +0.000 A 
ATOM     31  C   UNL     1      38.420   9.973  18.553  0.00  0.00    +0.000 A 
ATOM     32  C   UNL     1      37.907  10.082  19.824  0.00  0.00    +0.000 A 
ATOM     33  C   UNL     1      38.244   9.196  20.824  0.00  0.00    +0.000 A 
ATOM     34  C   UNL     1      39.125   8.166  20.539  0.00  0.00    +0.000 A 
ENDBRANCH  26  29
ENDBRANCH  23  26
ENDBRANCH  19  20
ENDBRANCH  18  19
ENDBRANCH   1  18
TORSDOF 7
ENDMDL
MODEL 4
REMARK VINA RESULT:      -8.3     25.192     27.698
REMARK  Name = 
REMARK  7 active torsions:
REMARK  status: ('A' for Active; 'I' for Inactive)
REMARK    1  A    between atoms: N_10  and  C_11
REMARK    2  A    between atoms: C_11  and  C_12
REMARK    3  A    between atoms: C_12  and  C_14
REMARK    4  A    between atoms: C_14  and  O_15
REMARK    5  A    between atoms: O_15  and  C_16
REMARK    6  A    between atoms: C_19  and  C_20
REMARK    7  A    between atoms: C_20  and  C_23
REMARK                            x       y       z     vdW  Elec       q    Type
REMARK                         _______ _______ _______ _____ _____    ______ ____
ROOT
ATOM      1  C   UNL     1      26.436  12.254  42.293  0.00  0.00    +0.000 C 
ATOM      2  O   UNL     1      25.006  11.756  42.469  0.00  0.00    +0.000 OA
ENDROOT
BRANCH   1   3
ATOM      3  C   UNL     1      26.588  11.576  40.787  0.00  0.00    +0.000 C 
BRANCH   3  13
ATOM      4  C   UNL     1      26.589   8.640  41.678  0.00  0.00    +0.000 C 
ATOM      5  C   UNL     1      27.812   9.427  41.300  0.00  0.00    +0.000 A 
ATOM      6  N   UNL     1      29.089   9.012  41.285  0.00  0.00    +0.000 NA
ATOM      7  C   UNL     1      29.847  10.060  40.881  0.00  0.00    +0.000 A 
ATOM      8  C   UNL     1      31.199  10.237  40.677  0.00  0.00    +0.000 A 
ATOM      9  C   UNL     1      31.678  11.468  40.249  0.00  0.00    +0.000 A 
ATOM     10  C   UNL     1      30.855  12.548  40.013  0.00  0.00    +0.000 A 
ATOM     11  C   UNL     1      29.495  12.368  40.219  0.00  0.00    +0.000 A 
ATOM     12  C   UNL     1      29.015  11.135  40.647  0.00  0.00    +0.000 A 
ATOM     13  N   UNL     1      27.769  10.707  40.916  0.00  0.00    +0.000 N 
ATOM     14  O   UNL     1      31.389  13.761  39.585  0.00  0.00    +0.000 OA
ATOM     15  C   UNL     1      32.677  13.782  38.948  0.00  0.00    +0.000 C 
ATOM     16  C   UNL     1      33.634  12.844  39.630  0.00  0.00    +0.000 C 
ATOM     17  O   UNL     1      33.034  11.644  40.045  0.00  0.00    +0.000 OA
ENDBRANCH   3  13
ENDBRANCH   1   3
BRANCH   1  18
ATOM     18  C   UNL     1      25.953  13.716  41.688  0.00  0.00    +0.000 C 
BRANCH  18  19
ATOM     19  O   UNL     1      25.506  13.424  40.389  0.00  0.00    +0.000 OA
BRANCH  19  20
ATOM     20  C   UNL     1      25.569  14.328  39.346  0.00  0.00    +0.000 A 
ATOM     21  C   UNL     1      26.806  14.785  38.953  0.00  0.00    +0.000 A 
ATOM     22  C   UNL     1      26.927  15.679  37.929  0.00  0.00    +0.000 A 
ATOM     23  C   UNL     1      25.830  16.149  37.262  0.00  0.00    +0.000 A 
ATOM     24  C   UNL     1      24.580  15.686  37.662  0.00  0.00    +0.000 A 
ATOM     25  C   UNL     1      24.465  14.794  38.685  0.00  0.00    +0.000 A 
BRANCH  23  26
ATOM     26  C   UNL     1      25.989  17.118  36.157  0.00  0.00    +0.000 C 
ATOM     27  C   UNL     1      27.421  17.633  36.054  0.00  0.00    +0.000 C 
ATOM     28  C   UNL     1      25.073  18.300  36.419  0.00  0.00    +0.000 C 
BRANCH  26  29
ATOM     29  C   UNL     1      25.667  16.418  34.893  0.00  0.00    +0.000 A 
ATOM     30  C   UNL     1      26.091  15.101  34.769  0.00  0.00    +0.000 A 
ATOM     31  C   UNL     1      25.837  14.381  33.633  0.00  0.00    +0.000 A 
ATOM     32  C   UNL     1      25.147  14.989  32.611  0.00  0.00    +0.000 A 
ATOM     33  C   UNL     1      24.711  16.293  32.701  0.00  0.00    +0.000 A 
ATOM     34  C   UNL     1      24.975  17.011  33.856  0.00  0.00    +0.000 A 
ENDBRANCH  26  29
ENDBRANCH  23  26
ENDBRANCH  19  20
ENDBRANCH  18  19
ENDBRANCH   1  18
TORSDOF 7
ENDMDL
MODEL 5
REMARK VINA RESULT:      -8.2      2.629      3.942
REMARK  Name = 
REMARK  7 active torsions:
REMARK  status: ('A' for Active; 'I' for Inactive)
REMARK    1  A    between atoms: N_10  and  C_11
REMARK    2  A    between atoms: C_11  and  C_12
REMARK    3  A    between atoms: C_12  and  C_14
REMARK    4  A    between atoms: C_14  and  O_15
REMARK    5  A    between atoms: O_15  and  C_16
REMARK    6  A    between atoms: C_19  and  C_20
REMARK    7  A    between atoms: C_20  and  C_23
REMARK                            x       y       z     vdW  Elec       q    Type
REMARK                         _______ _______ _______ _____ _____    ______ ____
ROOT
ATOM      1  C   UNL     1      38.046   5.191  13.785  0.00  0.00    +0.000 C 
ATOM      2  O   UNL     1      38.532   5.643  12.412  0.00  0.00    +0.000 OA
ENDROOT
BRANCH   1   3
ATOM      3  C   UNL     1      37.272   3.856  13.177  0.00  0.00    +0.000 C 
BRANCH   3  13
ATOM      4  C   UNL     1      34.810   5.623  13.659  0.00  0.00    +0.000 C 
ATOM      5  C   UNL     1      35.112   4.347  14.392  0.00  0.00    +0.000 A 
ATOM      6  N   UNL     1      34.393   3.761  15.363  0.00  0.00    +0.000 NA
ATOM      7  C   UNL     1      35.050   2.634  15.725  0.00  0.00    +0.000 A 
ATOM      8  C   UNL     1      34.805   1.642  16.652  0.00  0.00    +0.000 A 
ATOM      9  C   UNL     1      35.697   0.587  16.788  0.00  0.00    +0.000 A 
ATOM     10  C   UNL     1      36.842   0.475  16.029  0.00  0.00    +0.000 A 
ATOM     11  C   UNL     1      37.088   1.474  15.098  0.00  0.00    +0.000 A 
ATOM     12  C   UNL     1      36.194   2.531  14.961  0.00  0.00    +0.000 A 
ATOM     13  N   UNL     1      36.199   3.604  14.151  0.00  0.00    +0.000 N 
ATOM     14  O   UNL     1      37.703  -0.604  16.208  0.00  0.00    +0.000 OA
ATOM     15  C   UNL     1      37.209  -1.813  16.807  0.00  0.00    +0.000 C 
ATOM     16  C   UNL     1      36.285  -1.510  17.954  0.00  0.00    +0.000 C 
ATOM     17  O   UNL     1      35.449  -0.406  17.717  0.00  0.00    +0.000 OA
ENDBRANCH   3  13
ENDBRANCH   1   3
BRANCH   1  18
ATOM     18  C   UNL     1      39.436   4.355  14.107  0.00  0.00    +0.000 C 
BRANCH  18  19
ATOM     19  O   UNL     1      39.326   4.009  15.464  0.00  0.00    +0.000 OA
BRANCH  19  20
ATOM     20  C   UNL     1      39.484   4.918  16.492  0.00  0.00    +0.000 A 
ATOM     21  C   UNL     1      40.425   5.910  16.346  0.00  0.00    +0.000 A 
ATOM     22  C   UNL     1      40.625   6.835  17.329  0.00  0.00    +0.000 A 
ATOM     23  C   UNL     1      39.899   6.808  18.488  0.00  0.00    +0.000 A 
ATOM     24  C   UNL     1      38.947   5.803  18.633  0.00  0.00    +0.000 A 
ATOM     25  C   UNL     1      38.753   4.883  17.648  0.00  0.00    +0.000 A 
BRANCH  23  26
ATOM     26  C   UNL     1      40.134   7.821  19.538  0.00  0.00    +0.000 C 
ATOM     27  C   UNL     1      39.054   7.787  20.614  0.00  0.00    +0.000 C 
ATOM     28  C   UNL     1      40.122   9.194  18.892  0.00  0.00    +0.000 C 
BRANCH  26  29
ATOM     29  C   UNL     1      41.429   7.508  20.185  0.00  0.00    +0.000 A 
ATOM     30  C   UNL     1      42.306   8.563  20.398  0.00  0.00    +0.000 A 
ATOM     31  C   UNL     1      43.524   8.362  20.988  0.00  0.00    +0.000 A 
ATOM     32  C   UNL     1      43.865   7.085  21.370  0.00  0.00    +0.000 A 
ATOM     33  C   UNL     1      43.018   6.016  21.174  0.00  0.00    +0.000 A 
ATOM     34  C   UNL     1      41.788   6.234  20.576  0.00  0.00    +0.000 A 
ENDBRANCH  26  29
ENDBRANCH  23  26
ENDBRANCH  19  20
ENDBRANCH  18  19
ENDBRANCH   1  18
TORSDOF 7
ENDMDL
MODEL 6
REMARK VINA RESULT:      -8.2      6.006     10.314
REMARK  Name = 
REMARK  7 active torsions:
REMARK  status: ('A' for Active; 'I' for Inactive)
REMARK    1  A    between atoms: N_10  and  C_11
REMARK    2  A    between atoms: C_11  and  C_12
REMARK    3  A    between atoms: C_12  and  C_14
REMARK    4  A    between atoms: C_14  and  O_15
REMARK    5  A    between atoms: O_15  and  C_16
REMARK    6  A    between atoms: C_19  and  C_20
REMARK    7  A    between atoms: C_20  and  C_23
REMARK                            x       y       z     vdW  Elec       q    Type
REMARK                         _______ _______ _______ _____ _____    ______ ____
ROOT
ATOM      1  C   UNL     1      36.048   5.711  13.564  0.00  0.00    +0.000 C 
ATOM      2  O   UNL     1      36.339   4.729  12.435  0.00  0.00    +0.000 OA
ENDROOT
BRANCH   1   3
ATOM      3  C   UNL     1      34.631   6.231  12.875  0.00  0.00    +0.000 C 
BRANCH   3  13
ATOM      4  C   UNL     1      35.717   7.864  10.515  0.00  0.00    +0.000 C 
ATOM      5  C   UNL     1      35.252   8.441  11.822  0.00  0.00    +0.000 A 
ATOM      6  N   UNL     1      35.229   9.732  12.194  0.00  0.00    +0.000 NA
ATOM      7  C   UNL     1      34.736   9.777  13.454  0.00  0.00    +0.000 A 
ATOM      8  C   UNL     1      34.482  10.801  14.343  0.00  0.00    +0.000 A 
ATOM      9  C   UNL     1      33.960  10.514  15.597  0.00  0.00    +0.000 A 
ATOM     10  C   UNL     1      33.675   9.231  16.011  0.00  0.00    +0.000 A 
ATOM     11  C   UNL     1      33.931   8.203  15.116  0.00  0.00    +0.000 A 
ATOM     12  C   UNL     1      34.454   8.489  13.859  0.00  0.00    +0.000 A 
ATOM     13  N   UNL     1      34.785   7.693  12.828  0.00  0.00    +0.000 N 
ATOM     14  O   UNL     1      33.153   9.000  17.281  0.00  0.00    +0.000 OA
ATOM     15  C   UNL     1      32.480  10.064  17.974  0.00  0.00    +0.000 C 
ATOM     16  C   UNL     1      33.196  11.372  17.784  0.00  0.00    +0.000 C 
ATOM     17  O   UNL     1      33.707  11.542  16.486  0.00  0.00    +0.000 OA
ENDBRANCH   3  13
ENDBRANCH   1   3
BRANCH   1  18
ATOM     18  C   UNL     1      35.288   4.569  14.488  0.00  0.00    +0.000 C 
BRANCH  18  19
ATOM     19  O   UNL     1      36.270   3.589  14.707  0.00  0.00    +0.000 OA
BRANCH  19  20
ATOM     20  C   UNL     1      35.990   2.338  15.220  0.00  0.00    +0.000 A 
ATOM     21  C   UNL     1      36.557   1.242  14.611  0.00  0.00    +0.000 A 
ATOM     22  C   UNL     1      36.315  -0.019  15.075  0.00  0.00    +0.000 A 
ATOM     23  C   UNL     1      35.505  -0.235  16.157  0.00  0.00    +0.000 A 
ATOM     24  C   UNL     1      34.934   0.876  16.770  0.00  0.00    +0.000 A 
ATOM     25  C   UNL     1      35.179   2.131  16.302  0.00  0.00    +0.000 A 
BRANCH  23  26
ATOM     26  C   UNL     1      35.258  -1.610  16.639  0.00  0.00    +0.000 C 
ATOM     27  C   UNL     1      35.195  -2.612  15.491  0.00  0.00    +0.000 C 
ATOM     28  C   UNL     1      33.927  -1.632  17.367  0.00  0.00    +0.000 C 
BRANCH  26  29
ATOM     29  C   UNL     1      36.391  -1.992  17.512  0.00  0.00    +0.000 A 
ATOM     30  C   UNL     1      37.343  -2.851  16.980  0.00  0.00    +0.000 A 
ATOM     31  C   UNL     1      38.421  -3.256  17.719  0.00  0.00    +0.000 A 
ATOM     32  C   UNL     1      38.545  -2.791  19.008  0.00  0.00    +0.000 A 
ATOM     33  C   UNL     1      37.619  -1.937  19.566  0.00  0.00    +0.000 A 
ATOM     34  C   UNL     1      36.533  -1.535  18.807  0.00  0.00    +0.000 A 
ENDBRANCH  26  29
ENDBRANCH  23  26
ENDBRANCH  19  20
ENDBRANCH  18  19
ENDBRANCH   1  18
TORSDOF 7
ENDMDL
MODEL 7
REMARK VINA RESULT:      -8.1      2.454      8.240
REMARK  Name = 
REMARK  7 active torsions:
REMARK  status: ('A' for Active; 'I' for Inactive)
REMARK    1  A    between atoms: N_10  and  C_11
REMARK    2  A    between atoms: C_11  and  C_12
REMARK    3  A    between atoms: C_12  and  C_14
REMARK    4  A    between atoms: C_14  and  O_15
REMARK    5  A    between atoms: O_15  and  C_16
REMARK    6  A    between atoms: C_19  and  C_20
REMARK    7  A    between atoms: C_20  and  C_23
REMARK                            x       y       z     vdW  Elec       q    Type
REMARK                         _______ _______ _______ _____ _____    ______ ____
ROOT
ATOM      1  C   UNL     1      39.720   4.403  13.433  0.00  0.00    +0.000 C 
ATOM      2  O   UNL     1      40.025   5.560  12.489  0.00  0.00    +0.000 OA
ENDROOT
BRANCH   1   3
ATOM      3  C   UNL     1      38.247   5.025  13.874  0.00  0.00    +0.000 C 
BRANCH   3  13
ATOM      4  C   UNL     1      36.457   2.733  14.852  0.00  0.00    +0.000 C 
ATOM      5  C   UNL     1      37.320   3.589  15.735  0.00  0.00    +0.000 A 
ATOM      6  N   UNL     1      37.464   3.521  17.068  0.00  0.00    +0.000 NA
ATOM      7  C   UNL     1      38.339   4.489  17.428  0.00  0.00    +0.000 A 
ATOM      8  C   UNL     1      38.867   4.898  18.635  0.00  0.00    +0.000 A 
ATOM      9  C   UNL     1      39.767   5.955  18.674  0.00  0.00    +0.000 A 
ATOM     10  C   UNL     1      40.170   6.633  17.544  0.00  0.00    +0.000 A 
ATOM     11  C   UNL     1      39.638   6.222  16.331  0.00  0.00    +0.000 A 
ATOM     12  C   UNL     1      38.736   5.163  16.292  0.00  0.00    +0.000 A 
ATOM     13  N   UNL     1      38.088   4.581  15.268  0.00  0.00    +0.000 N 
ATOM     14  O   UNL     1      41.076   7.687  17.640  0.00  0.00    +0.000 OA
ATOM     15  C   UNL     1      41.938   7.777  18.786  0.00  0.00    +0.000 C 
ATOM     16  C   UNL     1      41.200   7.425  20.048  0.00  0.00    +0.000 C 
ATOM     17  O   UNL     1      40.296   6.362  19.884  0.00  0.00    +0.000 OA
ENDBRANCH   3  13
ENDBRANCH   1   3
BRANCH   1  18
ATOM     18  C   UNL     1      39.071   3.469  12.231  0.00  0.00    +0.000 C 
BRANCH  18  19
ATOM     19  O   UNL     1      39.734   2.237  12.352  0.00  0.00    +0.000 OA
BRANCH  19  20
ATOM     20  C   UNL     1      39.200   1.153  13.020  0.00  0.00    +0.000 A 
ATOM     21  C   UNL     1      39.729   0.817  14.245  0.00  0.00    +0.000 A 
ATOM     22  C   UNL     1      39.241  -0.245  14.950  0.00  0.00    +0.000 A 
ATOM     23  C   UNL     1      38.215  -1.009  14.465  0.00  0.00    +0.000 A 
ATOM     24  C   UNL     1      37.682  -0.667  13.226  0.00  0.00    +0.000 A 
ATOM     25  C   UNL     1      38.173   0.394  12.527  0.00  0.00    +0.000 A 
BRANCH  23  26
ATOM     26  C   UNL     1      37.705  -2.154  15.248  0.00  0.00    +0.000 C 
ATOM     27  C   UNL     1      38.838  -3.003  15.817  0.00  0.00    +0.000 C 
ATOM     28  C   UNL     1      36.867  -3.027  14.332  0.00  0.00    +0.000 C 
BRANCH  26  29
ATOM     29  C   UNL     1      36.928  -1.613  16.386  0.00  0.00    +0.000 A 
ATOM     30  C   UNL     1      35.666  -1.105  16.111  0.00  0.00    +0.000 A 
ATOM     31  C   UNL     1      34.881  -0.584  17.104  0.00  0.00    +0.000 A 
ATOM     32  C   UNL     1      35.370  -0.576  18.389  0.00  0.00    +0.000 A 
ATOM     33  C   UNL     1      36.618  -1.073  18.698  0.00  0.00    +0.000 A 
ATOM     34  C   UNL     1      37.401  -1.596  17.683  0.00  0.00    +0.000 A 
ENDBRANCH  26  29
ENDBRANCH  23  26
ENDBRANCH  19  20
ENDBRANCH  18  19
ENDBRANCH   1  18
TORSDOF 7
ENDMDL
MODEL 8
REMARK VINA RESULT:      -7.9      4.705      7.393
REMARK  Name = 
REMARK  7 active torsions:
REMARK  status: ('A' for Active; 'I' for Inactive)
REMARK    1  A    between atoms: N_10  and  C_11
REMARK    2  A    between atoms: C_11  and  C_12
REMARK    3  A    between atoms: C_12  and  C_14
REMARK    4  A    between atoms: C_14  and  O_15
REMARK    5  A    between atoms: O_15  and  C_16
REMARK    6  A    between atoms: C_19  and  C_20
REMARK    7  A    between atoms: C_20  and  C_23
REMARK                            x       y       z     vdW  Elec       q    Type
REMARK                         _______ _______ _______ _____ _____    ______ ____
ROOT
ATOM      1  C   UNL     1      36.718  -1.376  14.341  0.00  0.00    +0.000 C 
ATOM      2  O   UNL     1      37.041  -2.741  14.938  0.00  0.00    +0.000 OA
ENDROOT
BRANCH   1   3
ATOM      3  C   UNL     1      37.292  -0.556  15.663  0.00  0.00    +0.000 C 
BRANCH   3  13
ATOM      4  C   UNL     1      35.127  -1.008  17.789  0.00  0.00    +0.000 C 
ATOM      5  C   UNL     1      35.236   0.210  16.916  0.00  0.00    +0.000 A 
ATOM      6  N   UNL     1      34.436   1.288  16.897  0.00  0.00    +0.000 NA
ATOM      7  C   UNL     1      34.917   2.128  15.950  0.00  0.00    +0.000 A 
ATOM      8  C   UNL     1      34.525   3.366  15.484  0.00  0.00    +0.000 A 
ATOM      9  C   UNL     1      35.248   3.985  14.473  0.00  0.00    +0.000 A 
ATOM     10  C   UNL     1      36.362   3.415  13.897  0.00  0.00    +0.000 A 
ATOM     11  C   UNL     1      36.755   2.170  14.366  0.00  0.00    +0.000 A 
ATOM     12  C   UNL     1      36.031   1.549  15.379  0.00  0.00    +0.000 A 
ATOM     13  N   UNL     1      36.197   0.368  15.999  0.00  0.00    +0.000 N 
ATOM     14  O   UNL     1      37.050   4.080  12.885  0.00  0.00    +0.000 OA
ATOM     15  C   UNL     1      36.917   5.505  12.756  0.00  0.00    +0.000 C 
ATOM     16  C   UNL     1      35.495   5.938  12.982  0.00  0.00    +0.000 C 
ATOM     17  O   UNL     1      34.853   5.225  14.008  0.00  0.00    +0.000 OA
ENDBRANCH   3  13
ENDBRANCH   1   3
BRANCH   1  18
ATOM     18  C   UNL     1      38.162  -1.280  13.538  0.00  0.00    +0.000 C 
BRANCH  18  19
ATOM     19  O   UNL     1      39.030  -0.669  14.457  0.00  0.00    +0.000 OA
BRANCH  19  20
ATOM     20  C   UNL     1      40.406  -0.723  14.350  0.00  0.00    +0.000 A 
ATOM     21  C   UNL     1      41.035  -1.918  14.617  0.00  0.00    +0.000 A 
ATOM     22  C   UNL     1      42.392  -2.029  14.527  0.00  0.00    +0.000 A 
ATOM     23  C   UNL     1      43.171  -0.963  14.169  0.00  0.00    +0.000 A 
ATOM     24  C   UNL     1      42.532   0.243  13.900  0.00  0.00    +0.000 A 
ATOM     25  C   UNL     1      41.177   0.349  13.991  0.00  0.00    +0.000 A 
BRANCH  23  26
ATOM     26  C   UNL     1      44.638  -1.110  14.080  0.00  0.00    +0.000 C 
ATOM     27  C   UNL     1      45.287   0.078  13.377  0.00  0.00    +0.000 C 
ATOM     28  C   UNL     1      44.948  -2.364  13.284  0.00  0.00    +0.000 C 
BRANCH  26  29
ATOM     29  C   UNL     1      45.171  -1.166  15.460  0.00  0.00    +0.000 A 
ATOM     30  C   UNL     1      45.645  -2.392  15.910  0.00  0.00    +0.000 A 
ATOM     31  C   UNL     1      46.153  -2.533  17.173  0.00  0.00    +0.000 A 
ATOM     32  C   UNL     1      46.187  -1.429  17.994  0.00  0.00    +0.000 A 
ATOM     33  C   UNL     1      45.724  -0.199  17.579  0.00  0.00    +0.000 A 
ATOM     34  C   UNL     1      45.213  -0.070  16.299  0.00  0.00    +0.000 A 
ENDBRANCH  26  29
ENDBRANCH  23  26
ENDBRANCH  19  20
ENDBRANCH  18  19
ENDBRANCH   1  18
TORSDOF 7
ENDMDL
MODEL 9
REMARK VINA RESULT:      -7.7      6.697     11.179
REMARK  Name = 
REMARK  7 active torsions:
REMARK  status: ('A' for Active; 'I' for Inactive)
REMARK    1  A    between atoms: N_10  and  C_11
REMARK    2  A    between atoms: C_11  and  C_12
REMARK    3  A    between atoms: C_12  and  C_14
REMARK    4  A    between atoms: C_14  and  O_15
REMARK    5  A    between atoms: O_15  and  C_16
REMARK    6  A    between atoms: C_19  and  C_20
REMARK    7  A    between atoms: C_20  and  C_23
REMARK                            x       y       z     vdW  Elec       q    Type
REMARK                         _______ _______ _______ _____ _____    ______ ____
ROOT
ATOM      1  C   UNL     1      45.000   5.217  23.313  0.00  0.00    +0.000 C 
ATOM      2  O   UNL     1      46.236   5.694  22.558  0.00  0.00    +0.000 OA
ENDROOT
BRANCH   1   3
ATOM      3  C   UNL     1      45.426   6.011  24.705  0.00  0.00    +0.000 C 
BRANCH   3  13
ATOM      4  C   UNL     1      47.630   3.944  25.236  0.00  0.00    +0.000 C 
ATOM      5  C   UNL     1      46.335   4.036  25.992  0.00  0.00    +0.000 A 
ATOM      6  N   UNL     1      45.910   3.260  27.001  0.00  0.00    +0.000 NA
ATOM      7  C   UNL     1      44.687   3.711  27.367  0.00  0.00    +0.000 A 
ATOM      8  C   UNL     1      43.774   3.323  28.326  0.00  0.00    +0.000 A 
ATOM      9  C   UNL     1      42.574   4.008  28.455  0.00  0.00    +0.000 A 
ATOM     10  C   UNL     1      42.237   5.080  27.658  0.00  0.00    +0.000 A 
ATOM     11  C   UNL     1      43.156   5.469  26.694  0.00  0.00    +0.000 A 
ATOM     12  C   UNL     1      44.359   4.783  26.564  0.00  0.00    +0.000 A 
ATOM     13  N   UNL     1      45.398   4.954  25.729  0.00  0.00    +0.000 N 
ATOM     14  O   UNL     1      41.019   5.732  27.830  0.00  0.00    +0.000 OA
ATOM     15  C   UNL     1      40.329   5.623  29.085  0.00  0.00    +0.000 C 
ATOM     16  C   UNL     1      40.411   4.223  29.629  0.00  0.00    +0.000 C 
ATOM     17  O   UNL     1      41.661   3.618  29.416  0.00  0.00    +0.000 OA
ENDBRANCH   3  13
ENDBRANCH   1   3
BRANCH   1  18
ATOM     18  C   UNL     1      44.068   6.472  22.771  0.00  0.00    +0.000 C 
BRANCH  18  19
ATOM     19  O   UNL     1      44.286   6.493  21.384  0.00  0.00    +0.000 OA
BRANCH  19  20
ATOM     20  C   UNL     1      43.261   6.478  20.457  0.00  0.00    +0.000 A 
ATOM     21  C   UNL     1      41.985   6.215  20.900  0.00  0.00    +0.000 A 
ATOM     22  C   UNL     1      40.935   6.187  20.029  0.00  0.00    +0.000 A 
ATOM     23  C   UNL     1      41.114   6.419  18.692  0.00  0.00    +0.000 A 
ATOM     24  C   UNL     1      42.405   6.685  18.248  0.00  0.00    +0.000 A 
ATOM     25  C   UNL     1      43.449   6.711  19.122  0.00  0.00    +0.000 A 
BRANCH  23  26
ATOM     26  C   UNL     1      39.960   6.382  17.770  0.00  0.00    +0.000 C 
ATOM     27  C   UNL     1      39.076   5.162  18.013  0.00  0.00    +0.000 C 
ATOM     28  C   UNL     1      40.484   6.316  16.347  0.00  0.00    +0.000 C 
BRANCH  26  29
ATOM     29  C   UNL     1      39.143   7.590  18.020  0.00  0.00    +0.000 A 
ATOM     30  C   UNL     1      39.653   8.806  17.584  0.00  0.00    +0.000 A 
ATOM     31  C   UNL     1      38.964   9.972  17.776  0.00  0.00    +0.000 A 
ATOM     32  C   UNL     1      37.746   9.917  18.413  0.00  0.00    +0.000 A 
ATOM     33  C   UNL     1      37.210   8.728  18.859  0.00  0.00    +0.000 A 
ATOM     34  C   UNL     1      37.919   7.555  18.658  0.00  0.00    +0.000 A 
ENDBRANCH  26  29
ENDBRANCH  23  26
ENDBRANCH  19  20
ENDBRANCH  18  19
ENDBRANCH   1  18
TORSDOF 7
ENDMDL
MODEL 10
REMARK VINA RESULT:      -7.6      5.647      8.468
REMARK  Name = 
REMARK  7 active torsions:
REMARK  status: ('A' for Active; 'I' for Inactive)
REMARK    1  A    between atoms: N_10  and  C_11
REMARK    2  A    between atoms: C_11  and  C_12
REMARK    3  A    between atoms: C_12  and  C_14
REMARK    4  A    between atoms: C_14  and  O_15
REMARK    5  A    between atoms: O_15  and  C_16
REMARK    6  A    between atoms: C_19  and  C_20
REMARK    7  A    between atoms: C_20  and  C_23
REMARK                            x       y       z     vdW  Elec       q    Type
REMARK                         _______ _______ _______ _____ _____    ______ ____
ROOT
ATOM      1  C   UNL     1      35.732  12.416  17.178  0.00  0.00    +0.000 C 
ATOM      2  O   UNL     1      35.766  13.929  17.362  0.00  0.00    +0.000 OA
ENDROOT
BRANCH   1   3
ATOM      3  C   UNL     1      36.346  12.493  15.639  0.00  0.00    +0.000 C 
BRANCH   3  13
ATOM      4  C   UNL     1      33.931  13.617  14.117  0.00  0.00    +0.000 C 
ATOM      5  C   UNL     1      34.321  12.167  14.166  0.00  0.00    +0.000 A 
ATOM      6  N   UNL     1      33.707  11.127  13.579  0.00  0.00    +0.000 NA
ATOM      7  C   UNL     1      34.409  10.014  13.900  0.00  0.00    +0.000 A 
ATOM      8  C   UNL     1      34.267   8.676  13.597  0.00  0.00    +0.000 A 
ATOM      9  C   UNL     1      35.178   7.754  14.095  0.00  0.00    +0.000 A 
ATOM     10  C   UNL     1      36.241   8.113  14.895  0.00  0.00    +0.000 A 
ATOM     11  C   UNL     1      36.383   9.459  15.199  0.00  0.00    +0.000 A 
ATOM     12  C   UNL     1      35.470  10.383  14.700  0.00  0.00    +0.000 A 
ATOM     13  N   UNL     1      35.383  11.717  14.842  0.00  0.00    +0.000 N 
ATOM     14  O   UNL     1      37.125   7.146  15.368  0.00  0.00    +0.000 OA
ATOM     15  C   UNL     1      37.233   5.889  14.681  0.00  0.00    +0.000 C 
ATOM     16  C   UNL     1      35.882   5.391  14.248  0.00  0.00    +0.000 C 
ATOM     17  O   UNL     1      35.034   6.413  13.790  0.00  0.00    +0.000 OA
ENDBRANCH   3  13
ENDBRANCH   1   3
BRANCH   1  18
ATOM     18  C   UNL     1      37.223  12.204  17.863  0.00  0.00    +0.000 C 
BRANCH  18  19
ATOM     19  O   UNL     1      37.057  11.105  18.720  0.00  0.00    +0.000 OA
BRANCH  19  20
ATOM     20  C   UNL     1      37.734   9.911  18.560  0.00  0.00    +0.000 A 
ATOM     21  C   UNL     1      38.948   9.932  17.913  0.00  0.00    +0.000 A 
ATOM     22  C   UNL     1      39.660   8.783  17.725  0.00  0.00    +0.000 A 
ATOM     23  C   UNL     1      39.194   7.577  18.172  0.00  0.00    +0.000 A 
ATOM     24  C   UNL     1      37.966   7.559  18.825  0.00  0.00    +0.000 A 
ATOM     25  C   UNL     1      37.260   8.709  19.010  0.00  0.00    +0.000 A 
BRANCH  23  26
ATOM     26  C   UNL     1      39.984   6.347  17.955  0.00  0.00    +0.000 C 
ATOM     27  C   UNL     1      40.388   6.180  16.493  0.00  0.00    +0.000 C 
ATOM     28  C   UNL     1      39.135   5.154  18.356  0.00  0.00    +0.000 C 
BRANCH  26  29
ATOM     29  C   UNL     1      41.223   6.459  18.757  0.00  0.00    +0.000 A 
ATOM     30  C   UNL     1      42.410   6.671  18.069  0.00  0.00    +0.000 A 
ATOM     31  C   UNL     1      43.602   6.785  18.732  0.00  0.00    +0.000 A 
ATOM     32  C   UNL     1      43.600   6.686  20.105  0.00  0.00    +0.000 A 
ATOM     33  C   UNL     1      42.441   6.477  20.819  0.00  0.00    +0.000 A 
ATOM     34  C   UNL     1      41.242   6.363  20.134  0.00  0.00    +0.000 A 
ENDBRANCH  26  29
ENDBRANCH  23  26
ENDBRANCH  19  20
ENDBRANCH  18  19
ENDBRANCH   1  18
TORSDOF 7
ENDMDL
