MODEL 1
REMARK VINA RESULT:      -6.3      0.000      0.000
REMARK  Name = 
REMARK  6 active torsions:
REMARK  status: ('A' for Active; 'I' for Inactive)
REMARK    1  A    between atoms: C_2  and  C_3
REMARK    2  A    between atoms: C_3  and  C_4
REMARK    3  A    between atoms: N_6  and  C_7
REMARK    4  A    between atoms: C_7  and  N_9
REMARK    5  A    between atoms: N_9  and  C_10
REMARK    6  A    between atoms: C_12  and  N_13
REMARK                            x       y       z     vdW  Elec       q    Type
REMARK                         _______ _______ _______ _____ _____    ______ ____
ROOT
ATOM      1  C   UNL     1      15.719  11.567  34.408  0.00  0.00    +0.000 A 
ATOM      2  C   UNL     1      14.813  12.492  33.875  0.00  0.00    +0.000 A 
ATOM      3  C   UNL     1      14.687  12.794  32.556  0.00  0.00    +0.000 A 
ATOM      4  C   UNL     1      15.533  12.119  31.691  0.00  0.00    +0.000 A 
ATOM      5  C   UNL     1      16.443  11.199  32.165  0.00  0.00    +0.000 A 
ATOM      6  C   UNL     1      16.568  10.899  33.481  0.00  0.00    +0.000 A 
ATOM      7  C   UNL     1      17.536   9.918  34.021  0.00  0.00    +0.000 C 
ENDROOT
BRANCH   3   8
ATOM      8  N   UNL     1      13.749  13.742  32.050  0.00  0.00    +0.000 N 
ATOM      9  O   UNL     1      13.289  13.657  30.898  0.00  0.00    +0.000 OA
ATOM     10  O   UNL     1      13.343  14.774  32.853  0.00  0.00    +0.000 OA
ENDBRANCH   3   8
BRANCH   1  11
ATOM     11  N   UNL     1      15.772  11.329  35.707  0.00  0.00    +0.000 NA
BRANCH  11  12
ATOM     12  C   UNL     1      15.824  11.095  36.990  0.00  0.00    +0.000 C 
ATOM     13  S   UNL     1      14.427  11.309  37.936  0.00  0.00    +0.000 S 
BRANCH  12  16
ATOM     14  C   UNL     1      18.149  11.311  37.950  0.00  0.00    +0.000 C 
ATOM     15  O   UNL     1      18.338  12.421  37.414  0.00  0.00    +0.000 OA
ATOM     16  N   UNL     1      16.933  10.661  37.750  0.00  0.00    +0.000 NA
BRANCH  14  17
ATOM     17  C   UNL     1      19.205  10.660  38.806  0.00  0.00    +0.000 C 
BRANCH  17  19
ATOM     18  C   UNL     1      21.014  10.064  37.280  0.00  0.00    +0.000 C 
ATOM     19  C   UNL     1      19.804   9.523  38.025  0.00  0.00    +0.000 C 
ENDBRANCH  17  19
ENDBRANCH  14  17
ENDBRANCH  12  16
ENDBRANCH  11  12
ENDBRANCH   1  11
TORSDOF 6
ENDMDL
MODEL 2
REMARK VINA RESULT:      -5.9      2.454      3.369
REMARK  Name = 
REMARK  6 active torsions:
REMARK  status: ('A' for Active; 'I' for Inactive)
REMARK    1  A    between atoms: C_2  and  C_3
REMARK    2  A    between atoms: C_3  and  C_4
REMARK    3  A    between atoms: N_6  and  C_7
REMARK    4  A    between atoms: C_7  and  N_9
REMARK    5  A    between atoms: N_9  and  C_10
REMARK    6  A    between atoms: C_12  and  N_13
REMARK                            x       y       z     vdW  Elec       q    Type
REMARK                         _______ _______ _______ _____ _____    ______ ____
ROOT
ATOM      1  C   UNL     1      16.932  10.857  35.727  0.00  0.00    +0.000 A 
ATOM      2  C   UNL     1      17.047  10.856  34.332  0.00  0.00    +0.000 A 
ATOM      3  C   UNL     1      16.115  11.336  33.469  0.00  0.00    +0.000 A 
ATOM      4  C   UNL     1      14.967  11.862  34.039  0.00  0.00    +0.000 A 
ATOM      5  C   UNL     1      14.804  11.886  35.408  0.00  0.00    +0.000 A 
ATOM      6  C   UNL     1      15.735  11.407  36.268  0.00  0.00    +0.000 A 
ATOM      7  C   UNL     1      15.589  11.417  37.741  0.00  0.00    +0.000 C 
ENDROOT
BRANCH   3   8
ATOM      8  N   UNL     1      16.269  11.320  32.050  0.00  0.00    +0.000 N 
ATOM      9  O   UNL     1      16.365  10.257  31.414  0.00  0.00    +0.000 OA
ATOM     10  O   UNL     1      16.312  12.508  31.370  0.00  0.00    +0.000 OA
ENDBRANCH   3   8
BRANCH   1  11
ATOM     11  N   UNL     1      17.893  10.374  36.496  0.00  0.00    +0.000 NA
BRANCH  11  12
ATOM     12  C   UNL     1      18.842   9.897  37.254  0.00  0.00    +0.000 C 
ATOM     13  S   UNL     1      18.432   8.986  38.631  0.00  0.00    +0.000 S 
BRANCH  12  16
ATOM     14  C   UNL     1      21.090  10.967  37.670  0.00  0.00    +0.000 C 
ATOM     15  O   UNL     1      20.615  11.819  38.446  0.00  0.00    +0.000 OA
ATOM     16  N   UNL     1      20.237  10.031  37.088  0.00  0.00    +0.000 NA
BRANCH  14  17
ATOM     17  C   UNL     1      22.562  10.930  37.349  0.00  0.00    +0.000 C 
BRANCH  17  19
ATOM     18  C   UNL     1      23.713   9.000  36.396  0.00  0.00    +0.000 C 
ATOM     19  C   UNL     1      22.745  10.132  36.088  0.00  0.00    +0.000 C 
ENDBRANCH  17  19
ENDBRANCH  14  17
ENDBRANCH  12  16
ENDBRANCH  11  12
ENDBRANCH   1  11
TORSDOF 6
ENDMDL
MODEL 3
REMARK VINA RESULT:      -5.8      3.631      4.345
REMARK  Name = 
REMARK  6 active torsions:
REMARK  status: ('A' for Active; 'I' for Inactive)
REMARK    1  A    between atoms: C_2  and  C_3
REMARK    2  A    between atoms: C_3  and  C_4
REMARK    3  A    between atoms: N_6  and  C_7
REMARK    4  A    between atoms: C_7  and  N_9
REMARK    5  A    between atoms: N_9  and  C_10
REMARK    6  A    between atoms: C_12  and  N_13
REMARK                            x       y       z     vdW  Elec       q    Type
REMARK                         _______ _______ _______ _____ _____    ______ ____
ROOT
ATOM      1  C   UNL     1      15.840  11.207  37.486  0.00  0.00    +0.000 A 
ATOM      2  C   UNL     1      14.538  10.858  37.865  0.00  0.00    +0.000 A 
ATOM      3  C   UNL     1      13.404  11.454  37.411  0.00  0.00    +0.000 A 
ATOM      4  C   UNL     1      13.577  12.484  36.501  0.00  0.00    +0.000 A 
ATOM      5  C   UNL     1      14.838  12.866  36.095  0.00  0.00    +0.000 A 
ATOM      6  C   UNL     1      15.968  12.271  36.549  0.00  0.00    +0.000 A 
ATOM      7  C   UNL     1      17.335  12.659  36.135  0.00  0.00    +0.000 C 
ENDROOT
BRANCH   3   8
ATOM      8  N   UNL     1      12.092  11.069  37.820  0.00  0.00    +0.000 N 
ATOM      9  O   UNL     1      11.904  10.163  38.649  0.00  0.00    +0.000 OA
ATOM     10  O   UNL     1      11.010  11.717  37.286  0.00  0.00    +0.000 OA
ENDBRANCH   3   8
BRANCH   1  11
ATOM     11  N   UNL     1      16.890  10.569  37.974  0.00  0.00    +0.000 NA
BRANCH  11  12
ATOM     12  C   UNL     1      17.927   9.941  38.456  0.00  0.00    +0.000 C 
ATOM     13  S   UNL     1      17.932   9.469  40.090  0.00  0.00    +0.000 S 
BRANCH  12  16
ATOM     14  C   UNL     1      20.247  10.341  37.544  0.00  0.00    +0.000 C 
ATOM     15  O   UNL     1      20.279  11.516  37.961  0.00  0.00    +0.000 OA
ATOM     16  N   UNL     1      19.110   9.570  37.780  0.00  0.00    +0.000 NA
BRANCH  14  17
ATOM     17  C   UNL     1      21.407   9.741  36.793  0.00  0.00    +0.000 C 
BRANCH  17  19
ATOM     18  C   UNL     1      23.569  10.372  35.852  0.00  0.00    +0.000 C 
ATOM     19  C   UNL     1      22.606  10.624  37.001  0.00  0.00    +0.000 C 
ENDBRANCH  17  19
ENDBRANCH  14  17
ENDBRANCH  12  16
ENDBRANCH  11  12
ENDBRANCH   1  11
TORSDOF 6
ENDMDL
MODEL 4
REMARK VINA RESULT:      -5.7      1.989      2.583
REMARK  Name = 
REMARK  6 active torsions:
REMARK  status: ('A' for Active; 'I' for Inactive)
REMARK    1  A    between atoms: C_2  and  C_3
REMARK    2  A    between atoms: C_3  and  C_4
REMARK    3  A    between atoms: N_6  and  C_7
REMARK    4  A    between atoms: C_7  and  N_9
REMARK    5  A    between atoms: N_9  and  C_10
REMARK    6  A    between atoms: C_12  and  N_13
REMARK                            x       y       z     vdW  Elec       q    Type
REMARK                         _______ _______ _______ _____ _____    ______ ____
ROOT
ATOM      1  C   UNL     1      16.556  11.149  35.633  0.00  0.00    +0.000 A 
ATOM      2  C   UNL     1      15.477  11.999  35.903  0.00  0.00    +0.000 A 
ATOM      3  C   UNL     1      14.668  12.560  34.967  0.00  0.00    +0.000 A 
ATOM      4  C   UNL     1      14.953  12.249  33.647  0.00  0.00    +0.000 A 
ATOM      5  C   UNL     1      16.005  11.417  33.328  0.00  0.00    +0.000 A 
ATOM      6  C   UNL     1      16.812  10.859  34.263  0.00  0.00    +0.000 A 
ATOM      7  C   UNL     1      17.949   9.964  33.953  0.00  0.00    +0.000 C 
ENDROOT
BRANCH   3   8
ATOM      8  N   UNL     1      13.574  13.421  35.281  0.00  0.00    +0.000 N 
ATOM      9  O   UNL     1      13.296  14.408  34.579  0.00  0.00    +0.000 OA
ATOM     10  O   UNL     1      12.810  13.153  36.385  0.00  0.00    +0.000 OA
ENDBRANCH   3   8
BRANCH   1  11
ATOM     11  N   UNL     1      17.291  10.643  36.608  0.00  0.00    +0.000 NA
BRANCH  11  12
ATOM     12  C   UNL     1      18.016  10.142  37.571  0.00  0.00    +0.000 C 
ATOM     13  S   UNL     1      17.319   9.900  39.103  0.00  0.00    +0.000 S 
BRANCH  12  16
ATOM     14  C   UNL     1      20.505  10.518  37.772  0.00  0.00    +0.000 C 
ATOM     15  O   UNL     1      20.365  11.717  38.084  0.00  0.00    +0.000 OA
ATOM     16  N   UNL     1      19.371   9.747  37.522  0.00  0.00    +0.000 NA
BRANCH  14  17
ATOM     17  C   UNL     1      21.869   9.888  37.661  0.00  0.00    +0.000 C 
BRANCH  17  19
ATOM     18  C   UNL     1      23.774   9.654  36.152  0.00  0.00    +0.000 C 
ATOM     19  C   UNL     1      22.276   9.906  36.213  0.00  0.00    +0.000 C 
ENDBRANCH  17  19
ENDBRANCH  14  17
ENDBRANCH  12  16
ENDBRANCH  11  12
ENDBRANCH   1  11
TORSDOF 6
ENDMDL
MODEL 5
REMARK VINA RESULT:      -5.5      4.634      8.653
REMARK  Name = 
REMARK  6 active torsions:
REMARK  status: ('A' for Active; 'I' for Inactive)
REMARK    1  A    between atoms: C_2  and  C_3
REMARK    2  A    between atoms: C_3  and  C_4
REMARK    3  A    between atoms: N_6  and  C_7
REMARK    4  A    between atoms: C_7  and  N_9
REMARK    5  A    between atoms: N_9  and  C_10
REMARK    6  A    between atoms: C_12  and  N_13
REMARK                            x       y       z     vdW  Elec       q    Type
REMARK                         _______ _______ _______ _____ _____    ______ ____
ROOT
ATOM      1  C   UNL     1      18.089   8.152  39.883  0.00  0.00    +0.000 A 
ATOM      2  C   UNL     1      18.780   6.935  39.907  0.00  0.00    +0.000 A 
ATOM      3  C   UNL     1      18.447   5.860  40.669  0.00  0.00    +0.000 A 
ATOM      4  C   UNL     1      17.331   6.006  41.478  0.00  0.00    +0.000 A 
ATOM      5  C   UNL     1      16.616   7.184  41.490  0.00  0.00    +0.000 A 
ATOM      6  C   UNL     1      16.949   8.255  40.730  0.00  0.00    +0.000 A 
ATOM      7  C   UNL     1      16.204   9.534  40.723  0.00  0.00    +0.000 C 
ENDROOT
BRANCH   3   8
ATOM      8  N   UNL     1      19.176   4.634  40.666  0.00  0.00    +0.000 N 
ATOM      9  O   UNL     1      20.031   4.382  39.800  0.00  0.00    +0.000 OA
ATOM     10  O   UNL     1      18.927   3.707  41.644  0.00  0.00    +0.000 OA
ENDBRANCH   3   8
BRANCH   1  11
ATOM     11  N   UNL     1      18.480   9.147  39.106  0.00  0.00    +0.000 NA
BRANCH  11  12
ATOM     12  C   UNL     1      18.865  10.130  38.338  0.00  0.00    +0.000 C 
ATOM     13  S   UNL     1      20.434  10.110  37.681  0.00  0.00    +0.000 S 
BRANCH  12  16
ATOM     14  C   UNL     1      17.024  11.334  37.099  0.00  0.00    +0.000 C 
ATOM     15  O   UNL     1      16.588  10.281  36.591  0.00  0.00    +0.000 OA
ATOM     16  N   UNL     1      18.128  11.269  37.948  0.00  0.00    +0.000 NA
BRANCH  14  17
ATOM     17  C   UNL     1      16.385  12.668  36.815  0.00  0.00    +0.000 C 
BRANCH  17  19
ATOM     18  C   UNL     1      14.532  12.881  35.240  0.00  0.00    +0.000 C 
ATOM     19  C   UNL     1      14.906  12.452  36.651  0.00  0.00    +0.000 C 
ENDBRANCH  17  19
ENDBRANCH  14  17
ENDBRANCH  12  16
ENDBRANCH  11  12
ENDBRANCH   1  11
TORSDOF 6
ENDMDL
MODEL 6
REMARK VINA RESULT:      -5.4     17.840     18.471
REMARK  Name = 
REMARK  6 active torsions:
REMARK  status: ('A' for Active; 'I' for Inactive)
REMARK    1  A    between atoms: C_2  and  C_3
REMARK    2  A    between atoms: C_3  and  C_4
REMARK    3  A    between atoms: N_6  and  C_7
REMARK    4  A    between atoms: C_7  and  N_9
REMARK    5  A    between atoms: N_9  and  C_10
REMARK    6  A    between atoms: C_12  and  N_13
REMARK                            x       y       z     vdW  Elec       q    Type
REMARK                         _______ _______ _______ _____ _____    ______ ____
ROOT
ATOM      1  C   UNL     1      28.659  22.742  26.699  0.00  0.00    +0.000 A 
ATOM      2  C   UNL     1      27.789  23.039  25.643  0.00  0.00    +0.000 A 
ATOM      3  C   UNL     1      28.133  23.064  24.329  0.00  0.00    +0.000 A 
ATOM      4  C   UNL     1      29.455  22.769  24.037  0.00  0.00    +0.000 A 
ATOM      5  C   UNL     1      30.352  22.470  25.041  0.00  0.00    +0.000 A 
ATOM      6  C   UNL     1      30.007  22.446  26.351  0.00  0.00    +0.000 A 
ATOM      7  C   UNL     1      30.946  22.131  27.452  0.00  0.00    +0.000 C 
ENDROOT
BRANCH   3   8
ATOM      8  N   UNL     1      27.217  23.370  23.279  0.00  0.00    +0.000 N 
ATOM      9  O   UNL     1      26.030  23.658  23.508  0.00  0.00    +0.000 OA
ATOM     10  O   UNL     1      27.657  23.346  21.982  0.00  0.00    +0.000 OA
ENDBRANCH   3   8
BRANCH   1  11
ATOM     11  N   UNL     1      28.238  22.734  27.953  0.00  0.00    +0.000 NA
BRANCH  11  12
ATOM     12  C   UNL     1      27.824  22.727  29.190  0.00  0.00    +0.000 C 
ATOM     13  S   UNL     1      26.314  23.412  29.569  0.00  0.00    +0.000 S 
BRANCH  12  16
ATOM     14  C   UNL     1      29.549  22.744  31.033  0.00  0.00    +0.000 C 
ATOM     15  O   UNL     1      30.027  23.836  30.665  0.00  0.00    +0.000 OA
ATOM     16  N   UNL     1      28.480  22.200  30.323  0.00  0.00    +0.000 NA
BRANCH  14  17
ATOM     17  C   UNL     1      30.102  22.005  32.224  0.00  0.00    +0.000 C 
BRANCH  17  19
ATOM     18  C   UNL     1      32.134  21.103  31.217  0.00  0.00    +0.000 C 
ATOM     19  C   UNL     1      31.599  22.132  32.200  0.00  0.00    +0.000 C 
ENDBRANCH  17  19
ENDBRANCH  14  17
ENDBRANCH  12  16
ENDBRANCH  11  12
ENDBRANCH   1  11
TORSDOF 6
ENDMDL
MODEL 7
REMARK VINA RESULT:      -5.4     18.817     20.345
REMARK  Name = 
REMARK  6 active torsions:
REMARK  status: ('A' for Active; 'I' for Inactive)
REMARK    1  A    between atoms: C_2  and  C_3
REMARK    2  A    between atoms: C_3  and  C_4
REMARK    3  A    between atoms: N_6  and  C_7
REMARK    4  A    between atoms: C_7  and  N_9
REMARK    5  A    between atoms: N_9  and  C_10
REMARK    6  A    between atoms: C_12  and  N_13
REMARK                            x       y       z     vdW  Elec       q    Type
REMARK                         _______ _______ _______ _____ _____    ______ ____
ROOT
ATOM      1  C   UNL     1      33.961   3.518  35.842  0.00  0.00    +0.000 A 
ATOM      2  C   UNL     1      34.100   4.428  36.897  0.00  0.00    +0.000 A 
ATOM      3  C   UNL     1      34.073   5.780  36.773  0.00  0.00    +0.000 A 
ATOM      4  C   UNL     1      33.891   6.274  35.491  0.00  0.00    +0.000 A 
ATOM      5  C   UNL     1      33.749   5.420  34.418  0.00  0.00    +0.000 A 
ATOM      6  C   UNL     1      33.777   4.071  34.544  0.00  0.00    +0.000 A 
ATOM      7  C   UNL     1      33.630   3.128  33.412  0.00  0.00    +0.000 C 
ENDROOT
BRANCH   3   8
ATOM      8  N   UNL     1      34.216   6.678  37.874  0.00  0.00    +0.000 N 
ATOM      9  O   UNL     1      34.621   6.293  38.984  0.00  0.00    +0.000 OA
ATOM     10  O   UNL     1      33.900   7.999  37.703  0.00  0.00    +0.000 OA
ENDBRANCH   3   8
BRANCH   1  11
ATOM     11  N   UNL     1      33.994   2.213  36.053  0.00  0.00    +0.000 NA
BRANCH  11  12
ATOM     12  C   UNL     1      34.028   0.925  36.261  0.00  0.00    +0.000 C 
ATOM     13  S   UNL     1      33.789   0.327  37.834  0.00  0.00    +0.000 S 
BRANCH  12  16
ATOM     14  C   UNL     1      33.373  -0.557  34.325  0.00  0.00    +0.000 C 
ATOM     15  O   UNL     1      32.252  -0.024  34.211  0.00  0.00    +0.000 OA
ATOM     16  N   UNL     1      34.241  -0.102  35.316  0.00  0.00    +0.000 NA
BRANCH  14  17
ATOM     17  C   UNL     1      33.808  -1.678  33.416  0.00  0.00    +0.000 C 
BRANCH  17  19
ATOM     18  C   UNL     1      33.513  -4.050  32.923  0.00  0.00    +0.000 C 
ATOM     19  C   UNL     1      33.221  -2.959  33.941  0.00  0.00    +0.000 C 
ENDBRANCH  17  19
ENDBRANCH  14  17
ENDBRANCH  12  16
ENDBRANCH  11  12
ENDBRANCH   1  11
TORSDOF 6
ENDMDL
MODEL 8
REMARK VINA RESULT:      -5.4     28.991     31.309
REMARK  Name = 
REMARK  6 active torsions:
REMARK  status: ('A' for Active; 'I' for Inactive)
REMARK    1  A    between atoms: C_2  and  C_3
REMARK    2  A    between atoms: C_3  and  C_4
REMARK    3  A    between atoms: N_6  and  C_7
REMARK    4  A    between atoms: C_7  and  N_9
REMARK    5  A    between atoms: N_9  and  C_10
REMARK    6  A    between atoms: C_12  and  N_13
REMARK                            x       y       z     vdW  Elec       q    Type
REMARK                         _______ _______ _______ _____ _____    ______ ____
ROOT
ATOM      1  C   UNL     1      30.827  21.409  10.409  0.00  0.00    +0.000 A 
ATOM      2  C   UNL     1      29.495  21.828  10.505  0.00  0.00    +0.000 A 
ATOM      3  C   UNL     1      28.913  22.339  11.622  0.00  0.00    +0.000 A 
ATOM      4  C   UNL     1      29.724  22.443  12.741  0.00  0.00    +0.000 A 
ATOM      5  C   UNL     1      31.043  22.044  12.699  0.00  0.00    +0.000 A 
ATOM      6  C   UNL     1      31.621  21.534  11.584  0.00  0.00    +0.000 A 
ATOM      7  C   UNL     1      33.033  21.094  11.507  0.00  0.00    +0.000 C 
ENDROOT
BRANCH   3   8
ATOM      8  N   UNL     1      27.551  22.758  11.681  0.00  0.00    +0.000 N 
ATOM      9  O   UNL     1      26.646  22.130  11.105  0.00  0.00    +0.000 OA
ATOM     10  O   UNL     1      27.229  23.883  12.392  0.00  0.00    +0.000 OA
ENDBRANCH   3   8
BRANCH   1  11
ATOM     11  N   UNL     1      31.315  20.927   9.279  0.00  0.00    +0.000 NA
BRANCH  11  12
ATOM     12  C   UNL     1      31.797  20.451   8.163  0.00  0.00    +0.000 C 
ATOM     13  S   UNL     1      33.480  20.416   7.928  0.00  0.00    +0.000 S 
BRANCH  12  16
ATOM     14  C   UNL     1      30.543  20.618   5.978  0.00  0.00    +0.000 C 
ATOM     15  O   UNL     1      30.676  21.857   5.921  0.00  0.00    +0.000 OA
ATOM     16  N   UNL     1      31.084  19.929   7.062  0.00  0.00    +0.000 NA
BRANCH  14  17
ATOM     17  C   UNL     1      29.812  19.854   4.904  0.00  0.00    +0.000 C 
BRANCH  17  19
ATOM     18  C   UNL     1      29.574  17.455   4.525  0.00  0.00    +0.000 C 
ATOM     19  C   UNL     1      29.291  18.580   5.508  0.00  0.00    +0.000 C 
ENDBRANCH  17  19
ENDBRANCH  14  17
ENDBRANCH  12  16
ENDBRANCH  11  12
ENDBRANCH   1  11
TORSDOF 6
ENDMDL
MODEL 9
REMARK VINA RESULT:      -5.4      2.815      3.505
REMARK  Name = 
REMARK  6 active torsions:
REMARK  status: ('A' for Active; 'I' for Inactive)
REMARK    1  A    between atoms: C_2  and  C_3
REMARK    2  A    between atoms: C_3  and  C_4
REMARK    3  A    between atoms: N_6  and  C_7
REMARK    4  A    between atoms: C_7  and  N_9
REMARK    5  A    between atoms: N_9  and  C_10
REMARK    6  A    between atoms: C_12  and  N_13
REMARK                            x       y       z     vdW  Elec       q    Type
REMARK                         _______ _______ _______ _____ _____    ______ ____
ROOT
ATOM      1  C   UNL     1      16.859  11.251  36.160  0.00  0.00    +0.000 A 
ATOM      2  C   UNL     1      15.779  12.142  36.187  0.00  0.00    +0.000 A 
ATOM      3  C   UNL     1      14.937  12.382  35.149  0.00  0.00    +0.000 A 
ATOM      4  C   UNL     1      15.187  11.677  33.982  0.00  0.00    +0.000 A 
ATOM      5  C   UNL     1      16.238  10.789  33.904  0.00  0.00    +0.000 A 
ATOM      6  C   UNL     1      17.078  10.550  34.941  0.00  0.00    +0.000 A 
ATOM      7  C   UNL     1      18.216   9.605  34.888  0.00  0.00    +0.000 C 
ENDROOT
BRANCH   3   8
ATOM      8  N   UNL     1      13.844  13.297  35.214  0.00  0.00    +0.000 N 
ATOM      9  O   UNL     1      13.699  14.206  34.379  0.00  0.00    +0.000 OA
ATOM     10  O   UNL     1      12.927  13.170  36.224  0.00  0.00    +0.000 OA
ENDBRANCH   3   8
BRANCH   1  11
ATOM     11  N   UNL     1      17.628  11.074  37.221  0.00  0.00    +0.000 NA
BRANCH  11  12
ATOM     12  C   UNL     1      18.387  10.898  38.268  0.00  0.00    +0.000 C 
ATOM     13  S   UNL     1      19.969  11.524  38.268  0.00  0.00    +0.000 S 
BRANCH  12  16
ATOM     14  C   UNL     1      18.194   8.874  39.764  0.00  0.00    +0.000 C 
ATOM     15  O   UNL     1      18.641   8.104  38.891  0.00  0.00    +0.000 OA
ATOM     16  N   UNL     1      18.068  10.230  39.470  0.00  0.00    +0.000 NA
BRANCH  14  17
ATOM     17  C   UNL     1      17.788   8.370  41.125  0.00  0.00    +0.000 C 
BRANCH  17  19
ATOM     18  C   UNL     1      16.316   9.658  42.584  0.00  0.00    +0.000 C 
ATOM     19  C   UNL     1      16.355   8.758  41.360  0.00  0.00    +0.000 C 
ENDBRANCH  17  19
ENDBRANCH  14  17
ENDBRANCH  12  16
ENDBRANCH  11  12
ENDBRANCH   1  11
TORSDOF 6
ENDMDL
MODEL 10
REMARK VINA RESULT:      -5.3     18.150     19.267
REMARK  Name = 
REMARK  6 active torsions:
REMARK  status: ('A' for Active; 'I' for Inactive)
REMARK    1  A    between atoms: C_2  and  C_3
REMARK    2  A    between atoms: C_3  and  C_4
REMARK    3  A    between atoms: N_6  and  C_7
REMARK    4  A    between atoms: C_7  and  N_9
REMARK    5  A    between atoms: N_9  and  C_10
REMARK    6  A    between atoms: C_12  and  N_13
REMARK                            x       y       z     vdW  Elec       q    Type
REMARK                         _______ _______ _______ _____ _____    ______ ____
ROOT
ATOM      1  C   UNL     1      28.313  23.154  26.141  0.00  0.00    +0.000 A 
ATOM      2  C   UNL     1      27.984  23.398  24.803  0.00  0.00    +0.000 A 
ATOM      3  C   UNL     1      28.825  23.239  23.748  0.00  0.00    +0.000 A 
ATOM      4  C   UNL     1      30.104  22.799  24.046  0.00  0.00    +0.000 A 
ATOM      5  C   UNL     1      30.479  22.544  25.348  0.00  0.00    +0.000 A 
ATOM      6  C   UNL     1      29.639  22.703  26.400  0.00  0.00    +0.000 A 
ATOM      7  C   UNL     1      30.011  22.440  27.808  0.00  0.00    +0.000 C 
ENDROOT
BRANCH   3   8
ATOM      8  N   UNL     1      28.452  23.497  22.395  0.00  0.00    +0.000 N 
ATOM      9  O   UNL     1      27.293  23.306  21.987  0.00  0.00    +0.000 OA
ATOM     10  O   UNL     1      29.395  23.969  21.521  0.00  0.00    +0.000 OA
ENDBRANCH   3   8
BRANCH   1  11
ATOM     11  N   UNL     1      27.430  23.330  27.109  0.00  0.00    +0.000 NA
BRANCH  11  12
ATOM     12  C   UNL     1      26.557  23.504  28.063  0.00  0.00    +0.000 C 
ATOM     13  S   UNL     1      26.742  22.659  29.528  0.00  0.00    +0.000 S 
BRANCH  12  16
ATOM     14  C   UNL     1      25.316  25.657  28.508  0.00  0.00    +0.000 C 
ATOM     15  O   UNL     1      26.325  26.217  28.982  0.00  0.00    +0.000 OA
ATOM     16  N   UNL     1      25.421  24.342  28.060  0.00  0.00    +0.000 NA
BRANCH  14  17
ATOM     17  C   UNL     1      23.992  26.371  28.411  0.00  0.00    +0.000 C 
BRANCH  17  19
ATOM     18  C   UNL     1      21.841  26.184  27.274  0.00  0.00    +0.000 C 
ATOM     19  C   UNL     1      23.338  25.967  27.119  0.00  0.00    +0.000 C 
ENDBRANCH  17  19
ENDBRANCH  14  17
ENDBRANCH  12  16
ENDBRANCH  11  12
ENDBRANCH   1  11
TORSDOF 6
ENDMDL
