MODEL 1
REMARK VINA RESULT:      -6.9      0.000      0.000
REMARK  Name = 
REMARK  4 active torsions:
REMARK  status: ('A' for Active; 'I' for Inactive)
REMARK    1  A    between atoms: C_2  and  N_3
REMARK    2  A    between atoms: C_2  and  C_14
REMARK    3  A    between atoms: N_3  and  N_4
REMARK    4  A    between atoms: C_5  and  C_7
REMARK                            x       y       z     vdW  Elec       q    Type
REMARK                         _______ _______ _______ _____ _____    ______ ____
ROOT
ATOM      1  N   UNL     1      18.650   9.402  37.635  0.00  0.00    +0.000 NA
ENDROOT
BRANCH   1   2
ATOM      2  N   UNL     1      18.008  10.300  36.772  0.00  0.00    +0.000 NA
ATOM      3  C   UNL     1      17.400   9.776  35.614  0.00  0.00    +0.000 C 
ATOM      4  O   UNL     1      17.467   8.537  35.424  0.00  0.00    +0.000 OA
BRANCH   3   5
ATOM      5  C   UNL     1      16.702  10.601  34.635  0.00  0.00    +0.000 A 
ATOM      6  C   UNL     1      16.929  10.689  33.282  0.00  0.00    +0.000 A 
ATOM      7  C   UNL     1      16.007  11.623  32.798  0.00  0.00    +0.000 A 
ATOM      8  C   UNL     1      15.943  11.998  31.363  0.00  0.00    +0.000 C 
ATOM      9  O   UNL     1      15.274  12.065  33.793  0.00  0.00    +0.000 OA
ATOM     10  C   UNL     1      15.662  11.476  34.909  0.00  0.00    +0.000 A 
ATOM     11  C   UNL     1      15.103  11.676  36.299  0.00  0.00    +0.000 C 
ENDBRANCH   3   5
ENDBRANCH   1   2
BRANCH   1  13
ATOM     12  C   UNL     1      19.470  10.557  39.580  0.00  0.00    +0.000 C 
ATOM     13  C   UNL     1      18.621   9.687  39.032  0.00  0.00    +0.000 C 
BRANCH  13  14
ATOM     14  C   UNL     1      17.665   9.013  39.900  0.00  0.00    +0.000 A 
ATOM     15  C   UNL     1      16.517   9.673  40.334  0.00  0.00    +0.000 A 
ATOM     16  C   UNL     1      15.624   9.013  41.149  0.00  0.00    +0.000 A 
ATOM     17  C   UNL     1      15.911   7.731  41.500  0.00  0.00    +0.000 A 
ATOM     18  C   UNL     1      17.039   7.055  41.089  0.00  0.00    +0.000 A 
ATOM     19  C   UNL     1      17.927   7.697  40.282  0.00  0.00    +0.000 A 
ATOM     20  F   UNL     1      19.061   7.079  39.840  0.00  0.00    +0.000 F 
ENDBRANCH  13  14
ENDBRANCH   1  13
TORSDOF 4
ENDMDL
MODEL 2
REMARK VINA RESULT:      -6.5      3.051      4.082
REMARK  Name = 
REMARK  4 active torsions:
REMARK  status: ('A' for Active; 'I' for Inactive)
REMARK    1  A    between atoms: C_2  and  N_3
REMARK    2  A    between atoms: C_2  and  C_14
REMARK    3  A    between atoms: N_3  and  N_4
REMARK    4  A    between atoms: C_5  and  C_7
REMARK                            x       y       z     vdW  Elec       q    Type
REMARK                         _______ _______ _______ _____ _____    ______ ____
ROOT
ATOM      1  N   UNL     1      19.052   9.970  37.262  0.00  0.00    +0.000 NA
ENDROOT
BRANCH   1   2
ATOM      2  N   UNL     1      18.199  10.680  36.406  0.00  0.00    +0.000 NA
ATOM      3  C   UNL     1      17.625   9.984  35.325  0.00  0.00    +0.000 C 
ATOM      4  O   UNL     1      17.910   8.768  35.189  0.00  0.00    +0.000 OA
BRANCH   3   5
ATOM      5  C   UNL     1      16.723  10.605  34.362  0.00  0.00    +0.000 A 
ATOM      6  C   UNL     1      16.779  10.553  32.989  0.00  0.00    +0.000 A 
ATOM      7  C   UNL     1      15.700  11.318  32.532  0.00  0.00    +0.000 A 
ATOM      8  C   UNL     1      15.425  11.508  31.086  0.00  0.00    +0.000 C 
ATOM      9  O   UNL     1      15.041  11.797  33.561  0.00  0.00    +0.000 OA
ATOM     10  C   UNL     1      15.624  11.391  34.674  0.00  0.00    +0.000 A 
ATOM     11  C   UNL     1      15.212  11.697  36.095  0.00  0.00    +0.000 C 
ENDBRANCH   3   5
ENDBRANCH   1   2
BRANCH   1  13
ATOM     12  C   UNL     1      20.121  11.833  38.344  0.00  0.00    +0.000 C 
ATOM     13  C   UNL     1      20.209  10.640  37.754  0.00  0.00    +0.000 C 
BRANCH  13  14
ATOM     14  C   UNL     1      21.527  10.038  37.605  0.00  0.00    +0.000 A 
ATOM     15  C   UNL     1      22.166  10.034  36.366  0.00  0.00    +0.000 A 
ATOM     16  C   UNL     1      23.415   9.464  36.250  0.00  0.00    +0.000 A 
ATOM     17  C   UNL     1      23.972   8.921  37.366  0.00  0.00    +0.000 A 
ATOM     18  C   UNL     1      23.362   8.908  38.601  0.00  0.00    +0.000 A 
ATOM     19  C   UNL     1      22.129   9.470  38.728  0.00  0.00    +0.000 A 
ATOM     20  F   UNL     1      21.476   9.489  39.926  0.00  0.00    +0.000 F 
ENDBRANCH  13  14
ENDBRANCH   1  13
TORSDOF 4
ENDMDL
MODEL 3
REMARK VINA RESULT:      -6.3      3.691      6.265
REMARK  Name = 
REMARK  4 active torsions:
REMARK  status: ('A' for Active; 'I' for Inactive)
REMARK    1  A    between atoms: C_2  and  N_3
REMARK    2  A    between atoms: C_2  and  C_14
REMARK    3  A    between atoms: N_3  and  N_4
REMARK    4  A    between atoms: C_5  and  C_7
REMARK                            x       y       z     vdW  Elec       q    Type
REMARK                         _______ _______ _______ _____ _____    ______ ____
ROOT
ATOM      1  N   UNL     1      17.690  11.020  37.818  0.00  0.00    +0.000 NA
ENDROOT
BRANCH   1   2
ATOM      2  N   UNL     1      19.003  11.380  37.485  0.00  0.00    +0.000 NA
ATOM      3  C   UNL     1      20.035  10.485  37.830  0.00  0.00    +0.000 C 
ATOM      4  O   UNL     1      19.720   9.419  38.413  0.00  0.00    +0.000 OA
BRANCH   3   5
ATOM      5  C   UNL     1      21.443  10.740  37.543  0.00  0.00    +0.000 A 
ATOM      6  C   UNL     1      22.260  10.084  36.652  0.00  0.00    +0.000 A 
ATOM      7  C   UNL     1      23.513  10.696  36.761  0.00  0.00    +0.000 A 
ATOM      8  C   UNL     1      24.678  10.257  35.951  0.00  0.00    +0.000 C 
ATOM      9  O   UNL     1      23.453  11.655  37.655  0.00  0.00    +0.000 OA
ATOM     10  C   UNL     1      22.228  11.710  38.146  0.00  0.00    +0.000 A 
ATOM     11  C   UNL     1      21.698  12.658  39.197  0.00  0.00    +0.000 C 
ENDBRANCH   3   5
ENDBRANCH   1   2
BRANCH   1  13
ATOM     12  C   UNL     1      17.057   9.651  35.944  0.00  0.00    +0.000 C 
ATOM     13  C   UNL     1      16.804  10.680  36.753  0.00  0.00    +0.000 C 
BRANCH  13  14
ATOM     14  C   UNL     1      15.603  11.468  36.516  0.00  0.00    +0.000 A 
ATOM     15  C   UNL     1      15.488  12.254  35.371  0.00  0.00    +0.000 A 
ATOM     16  C   UNL     1      14.340  12.987  35.165  0.00  0.00    +0.000 A 
ATOM     17  C   UNL     1      13.360  12.910  36.104  0.00  0.00    +0.000 A 
ATOM     18  C   UNL     1      13.447  12.145  37.246  0.00  0.00    +0.000 A 
ATOM     19  C   UNL     1      14.577  11.415  37.460  0.00  0.00    +0.000 A 
ATOM     20  F   UNL     1      14.721  10.637  38.571  0.00  0.00    +0.000 F 
ENDBRANCH  13  14
ENDBRANCH   1  13
TORSDOF 4
ENDMDL
MODEL 4
REMARK VINA RESULT:      -6.2     18.669     20.489
REMARK  Name = 
REMARK  4 active torsions:
REMARK  status: ('A' for Active; 'I' for Inactive)
REMARK    1  A    between atoms: C_2  and  N_3
REMARK    2  A    between atoms: C_2  and  C_14
REMARK    3  A    between atoms: N_3  and  N_4
REMARK    4  A    between atoms: C_5  and  C_7
REMARK                            x       y       z     vdW  Elec       q    Type
REMARK                         _______ _______ _______ _____ _____    ______ ____
ROOT
ATOM      1  N   UNL     1      33.436   0.646  34.573  0.00  0.00    +0.000 NA
ENDROOT
BRANCH   1   2
ATOM      2  N   UNL     1      33.997  -0.588  34.215  0.00  0.00    +0.000 NA
ATOM      3  C   UNL     1      33.191  -1.737  34.346  0.00  0.00    +0.000 C 
ATOM      4  O   UNL     1      32.020  -1.589  34.775  0.00  0.00    +0.000 OA
BRANCH   3   5
ATOM      5  C   UNL     1      33.653  -3.079  34.010  0.00  0.00    +0.000 A 
ATOM      6  C   UNL     1      33.519  -3.749  32.817  0.00  0.00    +0.000 A 
ATOM      7  C   UNL     1      34.115  -5.000  33.012  0.00  0.00    +0.000 A 
ATOM      8  C   UNL     1      34.166  -6.024  31.938  0.00  0.00    +0.000 C 
ATOM      9  O   UNL     1      34.576  -5.075  34.238  0.00  0.00    +0.000 OA
ATOM     10  C   UNL     1      34.317  -3.944  34.867  0.00  0.00    +0.000 A 
ATOM     11  C   UNL     1      34.663  -3.581  36.292  0.00  0.00    +0.000 C 
ENDBRANCH   3   5
ENDBRANCH   1   2
BRANCH   1  13
ATOM     12  C   UNL     1      34.073   1.591  32.455  0.00  0.00    +0.000 C 
ATOM     13  C   UNL     1      33.681   1.760  33.718  0.00  0.00    +0.000 C 
BRANCH  13  14
ATOM     14  C   UNL     1      33.524   3.119  34.219  0.00  0.00    +0.000 A 
ATOM     15  C   UNL     1      32.874   4.084  33.451  0.00  0.00    +0.000 A 
ATOM     16  C   UNL     1      32.732   5.361  33.947  0.00  0.00    +0.000 A 
ATOM     17  C   UNL     1      33.243   5.625  35.180  0.00  0.00    +0.000 A 
ATOM     18  C   UNL     1      33.893   4.692  35.959  0.00  0.00    +0.000 A 
ATOM     19  C   UNL     1      34.038   3.426  35.479  0.00  0.00    +0.000 A 
ATOM     20  F   UNL     1      34.670   2.459  36.205  0.00  0.00    +0.000 F 
ENDBRANCH  13  14
ENDBRANCH   1  13
TORSDOF 4
ENDMDL
MODEL 5
REMARK VINA RESULT:      -6.2      3.775      6.634
REMARK  Name = 
REMARK  4 active torsions:
REMARK  status: ('A' for Active; 'I' for Inactive)
REMARK    1  A    between atoms: C_2  and  N_3
REMARK    2  A    between atoms: C_2  and  C_14
REMARK    3  A    between atoms: N_3  and  N_4
REMARK    4  A    between atoms: C_5  and  C_7
REMARK                            x       y       z     vdW  Elec       q    Type
REMARK                         _______ _______ _______ _____ _____    ______ ____
ROOT
ATOM      1  N   UNL     1      17.010  12.325  37.653  0.00  0.00    +0.000 NA
ENDROOT
BRANCH   1   2
ATOM      2  N   UNL     1      18.344  12.151  37.257  0.00  0.00    +0.000 NA
ATOM      3  C   UNL     1      19.154  11.303  38.036  0.00  0.00    +0.000 C 
ATOM      4  O   UNL     1      18.637  10.751  39.039  0.00  0.00    +0.000 OA
BRANCH   3   5
ATOM      5  C   UNL     1      20.556  11.038  37.735  0.00  0.00    +0.000 A 
ATOM      6  C   UNL     1      21.097   9.947  37.097  0.00  0.00    +0.000 A 
ATOM      7  C   UNL     1      22.478  10.166  37.067  0.00  0.00    +0.000 A 
ATOM      8  C   UNL     1      23.418   9.193  36.456  0.00  0.00    +0.000 C 
ATOM      9  O   UNL     1      22.749  11.312  37.646  0.00  0.00    +0.000 OA
ATOM     10  C   UNL     1      21.623  11.864  38.059  0.00  0.00    +0.000 A 
ATOM     11  C   UNL     1      21.450  13.182  38.777  0.00  0.00    +0.000 C 
ENDBRANCH   3   5
ENDBRANCH   1   2
BRANCH   1  13
ATOM     12  C   UNL     1      14.922  11.133  37.568  0.00  0.00    +0.000 C 
ATOM     13  C   UNL     1      16.007  11.597  36.948  0.00  0.00    +0.000 C 
BRANCH  13  14
ATOM     14  C   UNL     1      16.158  11.329  35.524  0.00  0.00    +0.000 A 
ATOM     15  C   UNL     1      17.026  10.332  35.081  0.00  0.00    +0.000 A 
ATOM     16  C   UNL     1      17.147  10.092  33.730  0.00  0.00    +0.000 A 
ATOM     17  C   UNL     1      16.407  10.852  32.880  0.00  0.00    +0.000 A 
ATOM     18  C   UNL     1      15.544  11.846  33.289  0.00  0.00    +0.000 A 
ATOM     19  C   UNL     1      15.415  12.091  34.622  0.00  0.00    +0.000 A 
ATOM     20  F   UNL     1      14.575  13.060  35.089  0.00  0.00    +0.000 F 
ENDBRANCH  13  14
ENDBRANCH   1  13
TORSDOF 4
ENDMDL
MODEL 6
REMARK VINA RESULT:      -6.2     20.216     21.689
REMARK  Name = 
REMARK  4 active torsions:
REMARK  status: ('A' for Active; 'I' for Inactive)
REMARK    1  A    between atoms: C_2  and  N_3
REMARK    2  A    between atoms: C_2  and  C_14
REMARK    3  A    between atoms: N_3  and  N_4
REMARK    4  A    between atoms: C_5  and  C_7
REMARK                            x       y       z     vdW  Elec       q    Type
REMARK                         _______ _______ _______ _____ _____    ______ ____
ROOT
ATOM      1  N   UNL     1      33.056  -4.038  33.601  0.00  0.00    +0.000 NA
ENDROOT
BRANCH   1   2
ATOM      2  N   UNL     1      33.490  -2.705  33.573  0.00  0.00    +0.000 NA
ATOM      3  C   UNL     1      32.771  -1.766  34.338  0.00  0.00    +0.000 C 
ATOM      4  O   UNL     1      31.785  -2.175  34.999  0.00  0.00    +0.000 OA
BRANCH   3   5
ATOM      5  C   UNL     1      33.117  -0.350  34.396  0.00  0.00    +0.000 A 
ATOM      6  C   UNL     1      33.147   0.560  33.365  0.00  0.00    +0.000 A 
ATOM      7  C   UNL     1      33.550   1.772  33.936  0.00  0.00    +0.000 A 
ATOM      8  C   UNL     1      33.708   3.009  33.131  0.00  0.00    +0.000 C 
ATOM      9  O   UNL     1      33.747   1.602  35.223  0.00  0.00    +0.000 OA
ATOM     10  C   UNL     1      33.498   0.343  35.535  0.00  0.00    +0.000 A 
ATOM     11  C   UNL     1      33.592  -0.305  36.896  0.00  0.00    +0.000 C 
ENDBRANCH   3   5
ENDBRANCH   1   2
BRANCH   1  13
ATOM     12  C   UNL     1      34.946  -5.525  33.619  0.00  0.00    +0.000 C 
ATOM     13  C   UNL     1      33.886  -5.020  32.986  0.00  0.00    +0.000 C 
BRANCH  13  14
ATOM     14  C   UNL     1      33.601  -5.484  31.636  0.00  0.00    +0.000 A 
ATOM     15  C   UNL     1      34.458  -5.165  30.583  0.00  0.00    +0.000 A 
ATOM     16  C   UNL     1      34.171  -5.620  29.315  0.00  0.00    +0.000 A 
ATOM     17  C   UNL     1      33.046  -6.366  29.146  0.00  0.00    +0.000 A 
ATOM     18  C   UNL     1      32.181  -6.693  30.167  0.00  0.00    +0.000 A 
ATOM     19  C   UNL     1      32.455  -6.251  31.425  0.00  0.00    +0.000 A 
ATOM     20  F   UNL     1      31.636  -6.545  32.476  0.00  0.00    +0.000 F 
ENDBRANCH  13  14
ENDBRANCH   1  13
TORSDOF 4
ENDMDL
MODEL 7
REMARK VINA RESULT:      -6.1      3.975      6.677
REMARK  Name = 
REMARK  4 active torsions:
REMARK  status: ('A' for Active; 'I' for Inactive)
REMARK    1  A    between atoms: C_2  and  N_3
REMARK    2  A    between atoms: C_2  and  C_14
REMARK    3  A    between atoms: N_3  and  N_4
REMARK    4  A    between atoms: C_5  and  C_7
REMARK                            x       y       z     vdW  Elec       q    Type
REMARK                         _______ _______ _______ _____ _____    ______ ____
ROOT
ATOM      1  N   UNL     1      19.494   9.397  38.130  0.00  0.00    +0.000 NA
ENDROOT
BRANCH   1   2
ATOM      2  N   UNL     1      20.500  10.246  37.647  0.00  0.00    +0.000 NA
ATOM      3  C   UNL     1      21.788  10.117  38.202  0.00  0.00    +0.000 C 
ATOM      4  O   UNL     1      21.961   9.251  39.095  0.00  0.00    +0.000 OA
BRANCH   3   5
ATOM      5  C   UNL     1      22.922  10.937  37.791  0.00  0.00    +0.000 A 
ATOM      6  C   UNL     1      23.290  12.175  38.262  0.00  0.00    +0.000 A 
ATOM      7  C   UNL     1      24.432  12.536  37.539  0.00  0.00    +0.000 A 
ATOM      8  C   UNL     1      25.131  13.827  37.762  0.00  0.00    +0.000 C 
ATOM      9  O   UNL     1      24.730  11.579  36.692  0.00  0.00    +0.000 OA
ATOM     10  C   UNL     1      23.847  10.605  36.813  0.00  0.00    +0.000 A 
ATOM     11  C   UNL     1      23.796   9.307  36.042  0.00  0.00    +0.000 C 
ENDBRANCH   3   5
ENDBRANCH   1   2
BRANCH   1  13
ATOM     12  C   UNL     1      17.372   9.774  39.198  0.00  0.00    +0.000 C 
ATOM     13  C   UNL     1      18.154   9.885  38.124  0.00  0.00    +0.000 C 
BRANCH  13  14
ATOM     14  C   UNL     1      17.602  10.504  36.927  0.00  0.00    +0.000 A 
ATOM     15  C   UNL     1      17.286  11.862  36.915  0.00  0.00    +0.000 A 
ATOM     16  C   UNL     1      16.771  12.427  35.770  0.00  0.00    +0.000 A 
ATOM     17  C   UNL     1      16.588  11.621  34.690  0.00  0.00    +0.000 A 
ATOM     18  C   UNL     1      16.888  10.276  34.674  0.00  0.00    +0.000 A 
ATOM     19  C   UNL     1      17.400   9.707  35.800  0.00  0.00    +0.000 A 
ATOM     20  F   UNL     1      17.718   8.381  35.845  0.00  0.00    +0.000 F 
ENDBRANCH  13  14
ENDBRANCH   1  13
TORSDOF 4
ENDMDL
MODEL 8
REMARK VINA RESULT:      -6.1      2.935      7.424
REMARK  Name = 
REMARK  4 active torsions:
REMARK  status: ('A' for Active; 'I' for Inactive)
REMARK    1  A    between atoms: C_2  and  N_3
REMARK    2  A    between atoms: C_2  and  C_14
REMARK    3  A    between atoms: N_3  and  N_4
REMARK    4  A    between atoms: C_5  and  C_7
REMARK                            x       y       z     vdW  Elec       q    Type
REMARK                         _______ _______ _______ _____ _____    ______ ____
ROOT
ATOM      1  N   UNL     1      15.761  10.708  36.279  0.00  0.00    +0.000 NA
ENDROOT
BRANCH   1   2
ATOM      2  N   UNL     1      16.310  10.741  37.568  0.00  0.00    +0.000 NA
ATOM      3  C   UNL     1      17.462   9.968  37.810  0.00  0.00    +0.000 C 
ATOM      4  O   UNL     1      17.931   9.296  36.859  0.00  0.00    +0.000 OA
BRANCH   3   5
ATOM      5  C   UNL     1      18.130   9.914  39.105  0.00  0.00    +0.000 A 
ATOM      6  C   UNL     1      17.772   9.187  40.216  0.00  0.00    +0.000 A 
ATOM      7  C   UNL     1      18.725   9.489  41.195  0.00  0.00    +0.000 A 
ATOM      8  C   UNL     1      18.674   8.895  42.555  0.00  0.00    +0.000 C 
ATOM      9  O   UNL     1      19.597  10.338  40.705  0.00  0.00    +0.000 OA
ATOM     10  C   UNL     1      19.273  10.617  39.456  0.00  0.00    +0.000 A 
ATOM     11  C   UNL     1      19.991  11.543  38.502  0.00  0.00    +0.000 C 
ENDBRANCH   3   5
ENDBRANCH   1   2
BRANCH   1  13
ATOM     12  C   UNL     1      16.574  12.931  35.854  0.00  0.00    +0.000 C 
ATOM     13  C   UNL     1      16.068  11.786  35.397  0.00  0.00    +0.000 C 
BRANCH  13  14
ATOM     14  C   UNL     1      15.815  11.661  33.969  0.00  0.00    +0.000 A 
ATOM     15  C   UNL     1      16.544  10.757  33.198  0.00  0.00    +0.000 A 
ATOM     16  C   UNL     1      16.284  10.652  31.850  0.00  0.00    +0.000 A 
ATOM     17  C   UNL     1      15.316  11.451  31.325  0.00  0.00    +0.000 A 
ATOM     18  C   UNL     1      14.582  12.355  32.062  0.00  0.00    +0.000 A 
ATOM     19  C   UNL     1      14.830  12.466  33.396  0.00  0.00    +0.000 A 
ATOM     20  F   UNL     1      14.135  13.342  34.177  0.00  0.00    +0.000 F 
ENDBRANCH  13  14
ENDBRANCH   1  13
TORSDOF 4
ENDMDL
MODEL 9
REMARK VINA RESULT:      -6.1     19.764     22.258
REMARK  Name = 
REMARK  4 active torsions:
REMARK  status: ('A' for Active; 'I' for Inactive)
REMARK    1  A    between atoms: C_2  and  N_3
REMARK    2  A    between atoms: C_2  and  C_14
REMARK    3  A    between atoms: N_3  and  N_4
REMARK    4  A    between atoms: C_5  and  C_7
REMARK                            x       y       z     vdW  Elec       q    Type
REMARK                         _______ _______ _______ _____ _____    ______ ____
ROOT
ATOM      1  N   UNL     1      26.844  24.725  23.602  0.00  0.00    +0.000 NA
ENDROOT
BRANCH   1   2
ATOM      2  N   UNL     1      26.930  24.895  24.990  0.00  0.00    +0.000 NA
ATOM      3  C   UNL     1      26.305  23.933  25.808  0.00  0.00    +0.000 C 
ATOM      4  O   UNL     1      25.709  22.980  25.247  0.00  0.00    +0.000 OA
BRANCH   3   5
ATOM      5  C   UNL     1      26.318  23.993  27.265  0.00  0.00    +0.000 A 
ATOM      6  C   UNL     1      25.564  24.796  28.089  0.00  0.00    +0.000 A 
ATOM      7  C   UNL     1      25.958  24.482  29.394  0.00  0.00    +0.000 A 
ATOM      8  C   UNL     1      25.366  25.152  30.579  0.00  0.00    +0.000 C 
ATOM      9  O   UNL     1      26.884  23.552  29.357  0.00  0.00    +0.000 OA
ATOM     10  C   UNL     1      27.126  23.235  28.099  0.00  0.00    +0.000 A 
ATOM     11  C   UNL     1      28.113  22.215  27.579  0.00  0.00    +0.000 C 
ENDBRANCH   3   5
ENDBRANCH   1   2
BRANCH   1  13
ATOM     12  C   UNL     1      28.088  24.453  21.561  0.00  0.00    +0.000 C 
ATOM     13  C   UNL     1      28.045  24.426  22.893  0.00  0.00    +0.000 C 
BRANCH  13  14
ATOM     14  C   UNL     1      29.256  24.066  23.618  0.00  0.00    +0.000 A 
ATOM     15  C   UNL     1      29.457  22.756  24.050  0.00  0.00    +0.000 A 
ATOM     16  C   UNL     1      30.613  22.437  24.728  0.00  0.00    +0.000 A 
ATOM     17  C   UNL     1      31.515  23.431  24.950  0.00  0.00    +0.000 A 
ATOM     18  C   UNL     1      31.341  24.734  24.538  0.00  0.00    +0.000 A 
ATOM     19  C   UNL     1      30.203  25.060  23.865  0.00  0.00    +0.000 A 
ATOM     20  F   UNL     1      29.975  26.333  23.430  0.00  0.00    +0.000 F 
ENDBRANCH  13  14
ENDBRANCH   1  13
TORSDOF 4
ENDMDL
MODEL 10
REMARK VINA RESULT:      -6.1     18.461     21.965
REMARK  Name = 
REMARK  4 active torsions:
REMARK  status: ('A' for Active; 'I' for Inactive)
REMARK    1  A    between atoms: C_2  and  N_3
REMARK    2  A    between atoms: C_2  and  C_14
REMARK    3  A    between atoms: N_3  and  N_4
REMARK    4  A    between atoms: C_5  and  C_7
REMARK                            x       y       z     vdW  Elec       q    Type
REMARK                         _______ _______ _______ _____ _____    ______ ____
ROOT
ATOM      1  N   UNL     1      27.028  22.911  25.130  0.00  0.00    +0.000 NA
ENDROOT
BRANCH   1   2
ATOM      2  N   UNL     1      26.317  23.290  26.276  0.00  0.00    +0.000 NA
ATOM      3  C   UNL     1      27.055  23.592  27.437  0.00  0.00    +0.000 C 
ATOM      4  O   UNL     1      28.307  23.504  27.378  0.00  0.00    +0.000 OA
BRANCH   3   5
ATOM      5  C   UNL     1      26.438  23.997  28.694  0.00  0.00    +0.000 A 
ATOM      6  C   UNL     1      25.811  25.185  28.989  0.00  0.00    +0.000 A 
ATOM      7  C   UNL     1      25.405  25.083  30.323  0.00  0.00    +0.000 A 
ATOM      8  C   UNL     1      24.688  26.184  31.016  0.00  0.00    +0.000 C 
ATOM      9  O   UNL     1      25.763  23.913  30.798  0.00  0.00    +0.000 OA
ATOM     10  C   UNL     1      26.385  23.235  29.852  0.00  0.00    +0.000 A 
ATOM     11  C   UNL     1      26.969  21.845  29.946  0.00  0.00    +0.000 C 
ENDBRANCH   3   5
ENDBRANCH   1   2
BRANCH   1  13
ATOM     12  C   UNL     1      25.389  23.108  23.380  0.00  0.00    +0.000 C 
ATOM     13  C   UNL     1      26.587  23.422  23.874  0.00  0.00    +0.000 C 
BRANCH  13  14
ATOM     14  C   UNL     1      27.453  24.291  23.089  0.00  0.00    +0.000 A 
ATOM     15  C   UNL     1      28.390  23.749  22.211  0.00  0.00    +0.000 A 
ATOM     16  C   UNL     1      29.194  24.591  21.475  0.00  0.00    +0.000 A 
ATOM     17  C   UNL     1      29.035  25.931  21.644  0.00  0.00    +0.000 A 
ATOM     18  C   UNL     1      28.120  26.494  22.506  0.00  0.00    +0.000 A 
ATOM     19  C   UNL     1      27.319  25.671  23.238  0.00  0.00    +0.000 A 
ATOM     20  F   UNL     1      26.392  26.170  24.107  0.00  0.00    +0.000 F 
ENDBRANCH  13  14
ENDBRANCH   1  13
TORSDOF 4
ENDMDL
