MODEL 1
REMARK VINA RESULT:      -8.5      0.000      0.000
REMARK  Name = 
REMARK  8 active torsions:
REMARK  status: ('A' for Active; 'I' for Inactive)
REMARK    1  A    between atoms: O_2  and  C_3
REMARK    2  A    between atoms: C_6  and  C_7
REMARK    3  A    between atoms: C_7  and  C_8
REMARK    4  A    between atoms: C_7  and  C_25
REMARK    5  A    between atoms: C_8  and  N_9
REMARK    6  A    between atoms: C_10  and  C_12
REMARK    7  A    between atoms: C_25  and  C_26
REMARK    8  A    between atoms: C_33  and  O_34
REMARK                            x       y       z     vdW  Elec       q    Type
REMARK                         _______ _______ _______ _____ _____    ______ ____
ROOT
ATOM      1  C   UNL     1      43.640   5.928  21.913  0.00  0.00    +0.000 C 
ENDROOT
BRANCH   1   5
ATOM      2  C   UNL     1      47.585   4.662  20.625  0.00  0.00    +0.000 A 
ATOM      3  C   UNL     1      47.136   5.953  20.476  0.00  0.00    +0.000 A 
ATOM      4  C   UNL     1      45.844   6.300  20.916  0.00  0.00    +0.000 A 
ATOM      5  C   UNL     1      45.035   5.348  21.492  0.00  0.00    +0.000 A 
ATOM      6  C   UNL     1      45.479   4.119  21.626  0.00  0.00    +0.000 A 
ATOM      7  C   UNL     1      46.745   3.748  21.203  0.00  0.00    +0.000 A 
BRANCH   2   9
ATOM      8  C   UNL     1      49.116   4.007  18.822  0.00  0.00    +0.000 C 
ATOM      9  O   UNL     1      48.880   4.294  20.189  0.00  0.00    +0.000 OA
ENDBRANCH   2   9
BRANCH   7  10
ATOM     10  O   UNL     1      47.168   2.448  21.365  0.00  0.00    +0.000 OA
ATOM     11  C   UNL     1      46.835   1.424  20.452  0.00  0.00    +0.000 C 
ENDBRANCH   7  10
ENDBRANCH   1   5
BRANCH   1  12
ATOM     12  C   UNL     1      44.076   6.622  23.275  0.00  0.00    +0.000 C 
BRANCH  12  13
ATOM     13  N   UNL     1      43.841   6.000  24.443  0.00  0.00    +0.000 NA
ATOM     14  C   UNL     1      44.440   5.141  25.352  0.00  0.00    +0.000 C 
ATOM     15  O   UNL     1      45.602   4.757  25.094  0.00  0.00    +0.000 OA
BRANCH  14  16
ATOM     16  C   UNL     1      43.819   4.650  26.584  0.00  0.00    +0.000 A 
ATOM     17  C   UNL     1      44.223   3.526  27.262  0.00  0.00    +0.000 A 
ATOM     18  C   UNL     1      43.601   3.104  28.427  0.00  0.00    +0.000 A 
ATOM     19  C   UNL     1      42.531   3.825  28.948  0.00  0.00    +0.000 A 
ATOM     20  O   UNL     1      41.757   3.702  29.984  0.00  0.00    +0.000 OA
ATOM     21  C   UNL     1      40.864   4.663  30.052  0.00  0.00    +0.000 A 
ATOM     22  C   UNL     1      39.844   4.985  30.922  0.00  0.00    +0.000 A 
ATOM     23  C   UNL     1      39.036   6.087  30.744  0.00  0.00    +0.000 A 
ATOM     24  C   UNL     1      39.225   6.926  29.662  0.00  0.00    +0.000 A 
ATOM     25  C   UNL     1      40.245   6.603  28.791  0.00  0.00    +0.000 A 
ATOM     26  C   UNL     1      41.061   5.504  28.958  0.00  0.00    +0.000 A 
ATOM     27  C   UNL     1      42.119   4.944  28.285  0.00  0.00    +0.000 A 
ATOM     28  C   UNL     1      42.750   5.336  27.141  0.00  0.00    +0.000 A 
ENDBRANCH  14  16
ENDBRANCH  12  13
ENDBRANCH   1  12
BRANCH   1  29
ATOM     29  C   UNL     1      43.527   7.244  20.983  0.00  0.00    +0.000 C 
BRANCH  29  30
ATOM     30  C   UNL     1      42.463   6.852  20.011  0.00  0.00    +0.000 A 
ATOM     31  C   UNL     1      41.176   6.540  20.363  0.00  0.00    +0.000 A 
ATOM     32  C   UNL     1      40.225   6.183  19.426  0.00  0.00    +0.000 A 
ATOM     33  C   UNL     1      40.519   6.121  18.080  0.00  0.00    +0.000 A 
ATOM     34  C   UNL     1      41.805   6.429  17.704  0.00  0.00    +0.000 A 
ATOM     35  C   UNL     1      42.754   6.785  18.640  0.00  0.00    +0.000 A 
ENDBRANCH  29  30
ENDBRANCH   1  29
TORSDOF 8
ENDMDL
MODEL 2
REMARK VINA RESULT:      -8.3      6.750     10.874
REMARK  Name = 
REMARK  8 active torsions:
REMARK  status: ('A' for Active; 'I' for Inactive)
REMARK    1  A    between atoms: O_2  and  C_3
REMARK    2  A    between atoms: C_6  and  C_7
REMARK    3  A    between atoms: C_7  and  C_8
REMARK    4  A    between atoms: C_7  and  C_25
REMARK    5  A    between atoms: C_8  and  N_9
REMARK    6  A    between atoms: C_10  and  C_12
REMARK    7  A    between atoms: C_25  and  C_26
REMARK    8  A    between atoms: C_33  and  O_34
REMARK                            x       y       z     vdW  Elec       q    Type
REMARK                         _______ _______ _______ _____ _____    ______ ____
ROOT
ATOM      1  C   UNL     1      36.370   3.830  15.211  0.00  0.00    +0.000 C 
ENDROOT
BRANCH   1   5
ATOM      2  C   UNL     1      35.388  -0.282  16.188  0.00  0.00    +0.000 A 
ATOM      3  C   UNL     1      34.939   0.783  16.933  0.00  0.00    +0.000 A 
ATOM      4  C   UNL     1      35.293   2.096  16.562  0.00  0.00    +0.000 A 
ATOM      5  C   UNL     1      36.087   2.307  15.458  0.00  0.00    +0.000 A 
ATOM      6  C   UNL     1      36.508   1.278  14.759  0.00  0.00    +0.000 A 
ATOM      7  C   UNL     1      36.177  -0.024  15.099  0.00  0.00    +0.000 A 
BRANCH   2   9
ATOM      8  C   UNL     1      35.802  -2.303  17.518  0.00  0.00    +0.000 C 
ATOM      9  O   UNL     1      35.044  -1.607  16.545  0.00  0.00    +0.000 OA
ENDBRANCH   2   9
BRANCH   7  10
ATOM     10  O   UNL     1      36.640  -1.071  14.336  0.00  0.00    +0.000 OA
ATOM     11  C   UNL     1      37.951  -1.580  14.466  0.00  0.00    +0.000 C 
ENDBRANCH   7  10
ENDBRANCH   1   5
BRANCH   1  12
ATOM     12  C   UNL     1      37.912   3.847  15.593  0.00  0.00    +0.000 C 
BRANCH  12  13
ATOM     13  N   UNL     1      38.360   4.718  16.514  0.00  0.00    +0.000 NA
ATOM     14  C   UNL     1      38.581   4.835  17.878  0.00  0.00    +0.000 C 
ATOM     15  O   UNL     1      38.310   3.841  18.587  0.00  0.00    +0.000 OA
BRANCH  14  16
ATOM     16  C   UNL     1      39.105   6.027  18.548  0.00  0.00    +0.000 A 
ATOM     17  C   UNL     1      38.409   7.200  18.699  0.00  0.00    +0.000 A 
ATOM     18  C   UNL     1      38.951   8.302  19.343  0.00  0.00    +0.000 A 
ATOM     19  C   UNL     1      40.239   8.242  19.864  0.00  0.00    +0.000 A 
ATOM     20  O   UNL     1      41.013   9.068  20.502  0.00  0.00    +0.000 OA
ATOM     21  C   UNL     1      42.177   8.533  20.791  0.00  0.00    +0.000 A 
ATOM     22  C   UNL     1      43.316   8.969  21.436  0.00  0.00    +0.000 A 
ATOM     23  C   UNL     1      44.427   8.171  21.602  0.00  0.00    +0.000 A 
ATOM     24  C   UNL     1      44.437   6.876  21.118  0.00  0.00    +0.000 A 
ATOM     25  C   UNL     1      43.298   6.440  20.472  0.00  0.00    +0.000 A 
ATOM     26  C   UNL     1      42.180   7.230  20.300  0.00  0.00    +0.000 A 
ATOM     27  C   UNL     1      40.943   7.082  19.722  0.00  0.00    +0.000 A 
ATOM     28  C   UNL     1      40.385   6.013  19.083  0.00  0.00    +0.000 A 
ENDBRANCH  14  16
ENDBRANCH  12  13
ENDBRANCH   1  12
BRANCH   1  29
ATOM     29  C   UNL     1      36.507   3.891  13.603  0.00  0.00    +0.000 C 
BRANCH  29  30
ATOM     30  C   UNL     1      35.669   5.079  13.260  0.00  0.00    +0.000 A 
ATOM     31  C   UNL     1      35.749   5.761  12.074  0.00  0.00    +0.000 A 
ATOM     32  C   UNL     1      34.951   6.856  11.803  0.00  0.00    +0.000 A 
ATOM     33  C   UNL     1      34.026   7.325  12.713  0.00  0.00    +0.000 A 
ATOM     34  C   UNL     1      33.930   6.656  13.910  0.00  0.00    +0.000 A 
ATOM     35  C   UNL     1      34.727   5.563  14.181  0.00  0.00    +0.000 A 
ENDBRANCH  29  30
ENDBRANCH   1  29
TORSDOF 8
ENDMDL
MODEL 3
REMARK VINA RESULT:      -8.2      9.435     13.671
REMARK  Name = 
REMARK  8 active torsions:
REMARK  status: ('A' for Active; 'I' for Inactive)
REMARK    1  A    between atoms: O_2  and  C_3
REMARK    2  A    between atoms: C_6  and  C_7
REMARK    3  A    between atoms: C_7  and  C_8
REMARK    4  A    between atoms: C_7  and  C_25
REMARK    5  A    between atoms: C_8  and  N_9
REMARK    6  A    between atoms: C_10  and  C_12
REMARK    7  A    between atoms: C_25  and  C_26
REMARK    8  A    between atoms: C_33  and  O_34
REMARK                            x       y       z     vdW  Elec       q    Type
REMARK                         _______ _______ _______ _____ _____    ______ ____
ROOT
ATOM      1  C   UNL     1      36.285   5.074  14.679  0.00  0.00    +0.000 C 
ENDROOT
BRANCH   1   5
ATOM      2  C   UNL     1      35.558   6.190  10.549  0.00  0.00    +0.000 A 
ATOM      3  C   UNL     1      34.918   6.797  11.604  0.00  0.00    +0.000 A 
ATOM      4  C   UNL     1      35.199   6.389  12.923  0.00  0.00    +0.000 A 
ATOM      5  C   UNL     1      36.111   5.384  13.152  0.00  0.00    +0.000 A 
ATOM      6  C   UNL     1      36.713   4.815  12.133  0.00  0.00    +0.000 A 
ATOM      7  C   UNL     1      36.458   5.195  10.825  0.00  0.00    +0.000 A 
BRANCH   2   9
ATOM      8  C   UNL     1      34.084   7.261   8.906  0.00  0.00    +0.000 C 
ATOM      9  O   UNL     1      35.289   6.586   9.218  0.00  0.00    +0.000 OA
ENDBRANCH   2   9
BRANCH   7  10
ATOM     10  O   UNL     1      37.113   4.570   9.789  0.00  0.00    +0.000 OA
ATOM     11  C   UNL     1      38.424   4.922   9.399  0.00  0.00    +0.000 C 
ENDBRANCH   7  10
ENDBRANCH   1   5
BRANCH   1  12
ATOM     12  C   UNL     1      35.195   3.925  14.810  0.00  0.00    +0.000 C 
BRANCH  12  13
ATOM     13  N   UNL     1      35.583   2.668  15.086  0.00  0.00    +0.000 NA
ATOM     14  C   UNL     1      35.287   1.602  15.922  0.00  0.00    +0.000 C 
ATOM     15  O   UNL     1      34.345   1.755  16.731  0.00  0.00    +0.000 OA
BRANCH  14  16
ATOM     16  C   UNL     1      35.988   0.316  15.929  0.00  0.00    +0.000 A 
ATOM     17  C   UNL     1      35.431  -0.869  16.343  0.00  0.00    +0.000 A 
ATOM     18  C   UNL     1      36.138  -2.061  16.330  0.00  0.00    +0.000 A 
ATOM     19  C   UNL     1      37.456  -2.085  15.888  0.00  0.00    +0.000 A 
ATOM     20  O   UNL     1      38.365  -3.005  15.755  0.00  0.00    +0.000 OA
ATOM     21  C   UNL     1      39.492  -2.523  15.281  0.00  0.00    +0.000 A 
ATOM     22  C   UNL     1      40.724  -3.057  14.966  0.00  0.00    +0.000 A 
ATOM     23  C   UNL     1      41.759  -2.295  14.471  0.00  0.00    +0.000 A 
ATOM     24  C   UNL     1      41.594  -0.937  14.268  0.00  0.00    +0.000 A 
ATOM     25  C   UNL     1      40.362  -0.403  14.584  0.00  0.00    +0.000 A 
ATOM     26  C   UNL     1      39.318  -1.155  15.081  0.00  0.00    +0.000 A 
ATOM     27  C   UNL     1      38.023  -0.916  15.474  0.00  0.00    +0.000 A 
ATOM     28  C   UNL     1      37.304   0.243  15.497  0.00  0.00    +0.000 A 
ENDBRANCH  14  16
ENDBRANCH  12  13
ENDBRANCH   1  12
BRANCH   1  29
ATOM     29  C   UNL     1      37.617   4.161  14.689  0.00  0.00    +0.000 C 
BRANCH  29  30
ATOM     30  C   UNL     1      38.362   4.705  15.864  0.00  0.00    +0.000 A 
ATOM     31  C   UNL     1      38.058   4.415  17.169  0.00  0.00    +0.000 A 
ATOM     32  C   UNL     1      38.778   4.943  18.224  0.00  0.00    +0.000 A 
ATOM     33  C   UNL     1      39.846   5.793  18.022  0.00  0.00    +0.000 A 
ATOM     34  C   UNL     1      40.168   6.097  16.720  0.00  0.00    +0.000 A 
ATOM     35  C   UNL     1      39.448   5.570  15.668  0.00  0.00    +0.000 A 
ENDBRANCH  29  30
ENDBRANCH   1  29
TORSDOF 8
ENDMDL
MODEL 4
REMARK VINA RESULT:      -8.2      6.840     11.509
REMARK  Name = 
REMARK  8 active torsions:
REMARK  status: ('A' for Active; 'I' for Inactive)
REMARK    1  A    between atoms: O_2  and  C_3
REMARK    2  A    between atoms: C_6  and  C_7
REMARK    3  A    between atoms: C_7  and  C_8
REMARK    4  A    between atoms: C_7  and  C_25
REMARK    5  A    between atoms: C_8  and  N_9
REMARK    6  A    between atoms: C_10  and  C_12
REMARK    7  A    between atoms: C_25  and  C_26
REMARK    8  A    between atoms: C_33  and  O_34
REMARK                            x       y       z     vdW  Elec       q    Type
REMARK                         _______ _______ _______ _____ _____    ______ ____
ROOT
ATOM      1  C   UNL     1      39.412   6.477  18.941  0.00  0.00    +0.000 C 
ENDROOT
BRANCH   1   5
ATOM      2  C   UNL     1      38.615  10.549  20.208  0.00  0.00    +0.000 A 
ATOM      3  C   UNL     1      38.417   9.466  21.031  0.00  0.00    +0.000 A 
ATOM      4  C   UNL     1      38.696   8.167  20.559  0.00  0.00    +0.000 A 
ATOM      5  C   UNL     1      39.164   7.988  19.277  0.00  0.00    +0.000 A 
ATOM      6  C   UNL     1      39.347   9.034  18.505  0.00  0.00    +0.000 A 
ATOM      7  C   UNL     1      39.082  10.322  18.940  0.00  0.00    +0.000 A 
BRANCH   2   9
ATOM      8  C   UNL     1      39.063  12.400  21.756  0.00  0.00    +0.000 C 
ATOM      9  O   UNL     1      38.341  11.860  20.664  0.00  0.00    +0.000 OA
ENDBRANCH   2   9
BRANCH   7  10
ATOM     10  O   UNL     1      39.290  11.388  18.096  0.00  0.00    +0.000 OA
ATOM     11  C   UNL     1      39.911  11.246  16.835  0.00  0.00    +0.000 C 
ENDBRANCH   7  10
ENDBRANCH   1   5
BRANCH   1  12
ATOM     12  C   UNL     1      38.269   6.288  17.852  0.00  0.00    +0.000 C 
BRANCH  12  13
ATOM     13  N   UNL     1      38.165   5.123  17.192  0.00  0.00    +0.000 NA
ATOM     14  C   UNL     1      37.716   4.593  15.991  0.00  0.00    +0.000 C 
ATOM     15  O   UNL     1      37.228   5.393  15.162  0.00  0.00    +0.000 OA
BRANCH  14  16
ATOM     16  C   UNL     1      37.769   3.178  15.621  0.00  0.00    +0.000 A 
ATOM     17  C   UNL     1      38.714   2.629  14.789  0.00  0.00    +0.000 A 
ATOM     18  C   UNL     1      38.721   1.280  14.470  0.00  0.00    +0.000 A 
ATOM     19  C   UNL     1      37.751   0.433  14.995  0.00  0.00    +0.000 A 
ATOM     20  O   UNL     1      37.486  -0.836  14.897  0.00  0.00    +0.000 OA
ATOM     21  C   UNL     1      36.433  -1.177  15.603  0.00  0.00    +0.000 A 
ATOM     22  C   UNL     1      35.755  -2.356  15.833  0.00  0.00    +0.000 A 
ATOM     23  C   UNL     1      34.643  -2.428  16.644  0.00  0.00    +0.000 A 
ATOM     24  C   UNL     1      34.159  -1.295  17.269  0.00  0.00    +0.000 A 
ATOM     25  C   UNL     1      34.837  -0.115  17.039  0.00  0.00    +0.000 A 
ATOM     26  C   UNL     1      35.950  -0.030  16.229  0.00  0.00    +0.000 A 
ATOM     27  C   UNL     1      36.806   0.964  15.823  0.00  0.00    +0.000 A 
ATOM     28  C   UNL     1      36.823   2.296  16.121  0.00  0.00    +0.000 A 
ENDBRANCH  14  16
ENDBRANCH  12  13
ENDBRANCH   1  12
BRANCH   1  29
ATOM     29  C   UNL     1      40.689   6.556  17.955  0.00  0.00    +0.000 C 
BRANCH  29  30
ATOM     30  C   UNL     1      41.832   6.521  18.917  0.00  0.00    +0.000 A 
ATOM     31  C   UNL     1      41.719   6.153  20.232  0.00  0.00    +0.000 A 
ATOM     32  C   UNL     1      42.806   6.137  21.085  0.00  0.00    +0.000 A 
ATOM     33  C   UNL     1      44.070   6.491  20.658  0.00  0.00    +0.000 A 
ATOM     34  C   UNL     1      44.206   6.864  19.342  0.00  0.00    +0.000 A 
ATOM     35  C   UNL     1      43.119   6.880  18.492  0.00  0.00    +0.000 A 
ENDBRANCH  29  30
ENDBRANCH   1  29
TORSDOF 8
ENDMDL
MODEL 5
REMARK VINA RESULT:      -8.2      7.695     11.130
REMARK  Name = 
REMARK  8 active torsions:
REMARK  status: ('A' for Active; 'I' for Inactive)
REMARK    1  A    between atoms: O_2  and  C_3
REMARK    2  A    between atoms: C_6  and  C_7
REMARK    3  A    between atoms: C_7  and  C_8
REMARK    4  A    between atoms: C_7  and  C_25
REMARK    5  A    between atoms: C_8  and  N_9
REMARK    6  A    between atoms: C_10  and  C_12
REMARK    7  A    between atoms: C_25  and  C_26
REMARK    8  A    between atoms: C_33  and  O_34
REMARK                            x       y       z     vdW  Elec       q    Type
REMARK                         _______ _______ _______ _____ _____    ______ ____
ROOT
ATOM      1  C   UNL     1      36.304   4.088  15.148  0.00  0.00    +0.000 C 
ENDROOT
BRANCH   1   5
ATOM      2  C   UNL     1      35.937  -0.201  15.691  0.00  0.00    +0.000 A 
ATOM      3  C   UNL     1      36.363   0.362  14.511  0.00  0.00    +0.000 A 
ATOM      4  C   UNL     1      36.461   1.763  14.399  0.00  0.00    +0.000 A 
ATOM      5  C   UNL     1      36.131   2.563  15.469  0.00  0.00    +0.000 A 
ATOM      6  C   UNL     1      35.725   2.009  16.588  0.00  0.00    +0.000 A 
ATOM      7  C   UNL     1      35.619   0.634  16.729  0.00  0.00    +0.000 A 
BRANCH   2   9
ATOM      8  C   UNL     1      37.000  -2.401  15.922  0.00  0.00    +0.000 C 
ATOM      9  O   UNL     1      35.832  -1.606  15.823  0.00  0.00    +0.000 OA
ENDBRANCH   2   9
BRANCH   7  10
ATOM     10  O   UNL     1      35.191   0.098  17.921  0.00  0.00    +0.000 OA
ATOM     11  C   UNL     1      36.048  -0.061  19.032  0.00  0.00    +0.000 C 
ENDBRANCH   7  10
ENDBRANCH   1   5
BRANCH   1  12
ATOM     12  C   UNL     1      37.849   4.226  15.495  0.00  0.00    +0.000 C 
BRANCH  12  13
ATOM     13  N   UNL     1      38.236   5.032  16.498  0.00  0.00    +0.000 NA
ATOM     14  C   UNL     1      38.519   5.012  17.856  0.00  0.00    +0.000 C 
ATOM     15  O   UNL     1      38.415   3.912  18.444  0.00  0.00    +0.000 OA
BRANCH  14  16
ATOM     16  C   UNL     1      38.926   6.173  18.650  0.00  0.00    +0.000 A 
ATOM     17  C   UNL     1      39.927   6.156  19.590  0.00  0.00    +0.000 A 
ATOM     18  C   UNL     1      40.276   7.285  20.315  0.00  0.00    +0.000 A 
ATOM     19  C   UNL     1      39.607   8.485  20.104  0.00  0.00    +0.000 A 
ATOM     20  O   UNL     1      39.688   9.683  20.601  0.00  0.00    +0.000 OA
ATOM     21  C   UNL     1      38.814  10.503  20.061  0.00  0.00    +0.000 A 
ATOM     22  C   UNL     1      38.496  11.834  20.228  0.00  0.00    +0.000 A 
ATOM     23  C   UNL     1      37.501  12.456  19.505  0.00  0.00    +0.000 A 
ATOM     24  C   UNL     1      36.771  11.750  18.567  0.00  0.00    +0.000 A 
ATOM     25  C   UNL     1      37.089  10.417  18.401  0.00  0.00    +0.000 A 
ATOM     26  C   UNL     1      38.083   9.784  19.118  0.00  0.00    +0.000 A 
ATOM     27  C   UNL     1      38.611   8.517  19.173  0.00  0.00    +0.000 A 
ATOM     28  C   UNL     1      38.288   7.391  18.472  0.00  0.00    +0.000 A 
ENDBRANCH  14  16
ENDBRANCH  12  13
ENDBRANCH   1  12
BRANCH   1  29
ATOM     29  C   UNL     1      36.407   4.083  13.536  0.00  0.00    +0.000 C 
BRANCH  29  30
ATOM     30  C   UNL     1      35.555   5.253  13.163  0.00  0.00    +0.000 A 
ATOM     31  C   UNL     1      34.591   5.792  13.975  0.00  0.00    +0.000 A 
ATOM     32  C   UNL     1      33.827   6.876  13.586  0.00  0.00    +0.000 A 
ATOM     33  C   UNL     1      33.993   7.477  12.354  0.00  0.00    +0.000 A 
ATOM     34  C   UNL     1      34.954   6.952  11.524  0.00  0.00    +0.000 A 
ATOM     35  C   UNL     1      35.716   5.869  11.914  0.00  0.00    +0.000 A 
ENDBRANCH  29  30
ENDBRANCH   1  29
TORSDOF 8
ENDMDL
MODEL 6
REMARK VINA RESULT:      -7.9     21.610     25.065
REMARK  Name = 
REMARK  8 active torsions:
REMARK  status: ('A' for Active; 'I' for Inactive)
REMARK    1  A    between atoms: O_2  and  C_3
REMARK    2  A    between atoms: C_6  and  C_7
REMARK    3  A    between atoms: C_7  and  C_8
REMARK    4  A    between atoms: C_7  and  C_25
REMARK    5  A    between atoms: C_8  and  N_9
REMARK    6  A    between atoms: C_10  and  C_12
REMARK    7  A    between atoms: C_25  and  C_26
REMARK    8  A    between atoms: C_33  and  O_34
REMARK                            x       y       z     vdW  Elec       q    Type
REMARK                         _______ _______ _______ _____ _____    ______ ____
ROOT
ATOM      1  C   UNL     1      26.025  16.870  36.921  0.00  0.00    +0.000 C 
ENDROOT
BRANCH   1   5
ATOM      2  C   UNL     1      23.552  15.599  40.252  0.00  0.00    +0.000 A 
ATOM      3  C   UNL     1      23.944  14.741  39.251  0.00  0.00    +0.000 A 
ATOM      4  C   UNL     1      24.748  15.217  38.196  0.00  0.00    +0.000 A 
ATOM      5  C   UNL     1      25.139  16.536  38.170  0.00  0.00    +0.000 A 
ATOM      6  C   UNL     1      24.755  17.341  39.135  0.00  0.00    +0.000 A 
ATOM      7  C   UNL     1      23.965  16.903  40.185  0.00  0.00    +0.000 A 
BRANCH   2   9
ATOM      8  C   UNL     1      21.334  15.139  41.195  0.00  0.00    +0.000 C 
ATOM      9  O   UNL     1      22.745  15.140  41.319  0.00  0.00    +0.000 OA
ENDBRANCH   2   9
BRANCH   7  10
ATOM     10  O   UNL     1      23.588  17.783  41.173  0.00  0.00    +0.000 OA
ATOM     11  C   UNL     1      22.619  18.788  40.964  0.00  0.00    +0.000 C 
ENDBRANCH   7  10
ENDBRANCH   1   5
BRANCH   1  12
ATOM     12  C   UNL     1      27.397  17.150  37.674  0.00  0.00    +0.000 C 
BRANCH  12  13
ATOM     13  N   UNL     1      28.107  16.121  38.166  0.00  0.00    +0.000 NA
ATOM     14  C   UNL     1      28.451  15.517  39.367  0.00  0.00    +0.000 C 
ATOM     15  O   UNL     1      27.987  16.022  40.413  0.00  0.00    +0.000 OA
BRANCH  14  16
ATOM     16  C   UNL     1      29.311  14.340  39.503  0.00  0.00    +0.000 A 
ATOM     17  C   UNL     1      30.604  14.268  39.045  0.00  0.00    +0.000 A 
ATOM     18  C   UNL     1      31.378  13.128  39.200  0.00  0.00    +0.000 A 
ATOM     19  C   UNL     1      30.853  12.009  39.836  0.00  0.00    +0.000 A 
ATOM     20  O   UNL     1      31.299  10.824  40.131  0.00  0.00    +0.000 OA
ATOM     21  C   UNL     1      30.400  10.098  40.755  0.00  0.00    +0.000 A 
ATOM     22  C   UNL     1      30.367   8.818  41.268  0.00  0.00    +0.000 A 
ATOM     23  C   UNL     1      29.255   8.296  41.891  0.00  0.00    +0.000 A 
ATOM     24  C   UNL     1      28.108   9.054  42.026  0.00  0.00    +0.000 A 
ATOM     25  C   UNL     1      28.140  10.335  41.512  0.00  0.00    +0.000 A 
ATOM     26  C   UNL     1      29.247  10.869  40.887  0.00  0.00    +0.000 A 
ATOM     27  C   UNL     1      29.570  12.066  40.296  0.00  0.00    +0.000 A 
ATOM     28  C   UNL     1      28.831  13.201  40.130  0.00  0.00    +0.000 A 
ENDBRANCH  14  16
ENDBRANCH  12  13
ENDBRANCH   1  12
BRANCH   1  29
ATOM     29  C   UNL     1      26.353  15.400  36.337  0.00  0.00    +0.000 C 
BRANCH  29  30
ATOM     30  C   UNL     1      25.849  15.500  34.934  0.00  0.00    +0.000 A 
ATOM     31  C   UNL     1      25.903  14.477  34.024  0.00  0.00    +0.000 A 
ATOM     32  C   UNL     1      25.423  14.616  32.735  0.00  0.00    +0.000 A 
ATOM     33  C   UNL     1      24.862  15.797  32.293  0.00  0.00    +0.000 A 
ATOM     34  C   UNL     1      24.798  16.836  33.190  0.00  0.00    +0.000 A 
ATOM     35  C   UNL     1      25.278  16.696  34.476  0.00  0.00    +0.000 A 
ENDBRANCH  29  30
ENDBRANCH   1  29
TORSDOF 8
ENDMDL
MODEL 7
REMARK VINA RESULT:      -7.9     22.735     26.609
REMARK  Name = 
REMARK  8 active torsions:
REMARK  status: ('A' for Active; 'I' for Inactive)
REMARK    1  A    between atoms: O_2  and  C_3
REMARK    2  A    between atoms: C_6  and  C_7
REMARK    3  A    between atoms: C_7  and  C_8
REMARK    4  A    between atoms: C_7  and  C_25
REMARK    5  A    between atoms: C_8  and  N_9
REMARK    6  A    between atoms: C_10  and  C_12
REMARK    7  A    between atoms: C_25  and  C_26
REMARK    8  A    between atoms: C_33  and  O_34
REMARK                            x       y       z     vdW  Elec       q    Type
REMARK                         _______ _______ _______ _____ _____    ______ ____
ROOT
ATOM      1  C   UNL     1      25.836  15.269  40.191  0.00  0.00    +0.000 C 
ENDROOT
BRANCH   1   5
ATOM      2  C   UNL     1      25.576  11.782  42.761  0.00  0.00    +0.000 A 
ATOM      3  C   UNL     1      25.076  13.010  43.126  0.00  0.00    +0.000 A 
ATOM      4  C   UNL     1      25.192  14.104  42.245  0.00  0.00    +0.000 A 
ATOM      5  C   UNL     1      25.804  13.941  41.023  0.00  0.00    +0.000 A 
ATOM      6  C   UNL     1      26.277  12.761  40.691  0.00  0.00    +0.000 A 
ATOM      7  C   UNL     1      26.178  11.667  41.536  0.00  0.00    +0.000 A 
BRANCH   2   9
ATOM      8  C   UNL     1      24.347   9.813  43.556  0.00  0.00    +0.000 C 
ATOM      9  O   UNL     1      25.470  10.673  43.632  0.00  0.00    +0.000 OA
ENDBRANCH   2   9
BRANCH   7  10
ATOM     10  O   UNL     1      26.687  10.450  41.145  0.00  0.00    +0.000 OA
ATOM     11  C   UNL     1      28.040  10.277  40.780  0.00  0.00    +0.000 C 
ENDBRANCH   7  10
ENDBRANCH   1   5
BRANCH   1  12
ATOM     12  C   UNL     1      26.844  14.808  39.052  0.00  0.00    +0.000 C 
BRANCH  12  13
ATOM     13  N   UNL     1      26.587  15.119  37.770  0.00  0.00    +0.000 NA
ATOM     14  C   UNL     1      27.228  15.459  36.588  0.00  0.00    +0.000 C 
ATOM     15  O   UNL     1      28.477  15.519  36.613  0.00  0.00    +0.000 OA
BRANCH  14  16
ATOM     16  C   UNL     1      26.557  15.752  35.320  0.00  0.00    +0.000 A 
ATOM     17  C   UNL     1      26.492  14.883  34.259  0.00  0.00    +0.000 A 
ATOM     18  C   UNL     1      25.844  15.209  33.077  0.00  0.00    +0.000 A 
ATOM     19  C   UNL     1      25.231  16.449  32.937  0.00  0.00    +0.000 A 
ATOM     20  O   UNL     1      24.564  17.044  31.993  0.00  0.00    +0.000 OA
ATOM     21  C   UNL     1      24.176  18.249  32.345  0.00  0.00    +0.000 A 
ATOM     22  C   UNL     1      23.465  19.260  31.734  0.00  0.00    +0.000 A 
ATOM     23  C   UNL     1      23.196  20.460  32.356  0.00  0.00    +0.000 A 
ATOM     24  C   UNL     1      23.639  20.695  33.644  0.00  0.00    +0.000 A 
ATOM     25  C   UNL     1      24.351  19.683  34.255  0.00  0.00    +0.000 A 
ATOM     26  C   UNL     1      24.627  18.479  33.643  0.00  0.00    +0.000 A 
ATOM     27  C   UNL     1      25.287  17.323  33.983  0.00  0.00    +0.000 A 
ATOM     28  C   UNL     1      25.932  16.976  35.134  0.00  0.00    +0.000 A 
ENDBRANCH  14  16
ENDBRANCH  12  13
ENDBRANCH   1  12
BRANCH   1  29
ATOM     29  C   UNL     1      24.455  15.177  39.357  0.00  0.00    +0.000 C 
BRANCH  29  30
ATOM     30  C   UNL     1      23.958  16.585  39.416  0.00  0.00    +0.000 A 
ATOM     31  C   UNL     1      23.396  17.156  40.527  0.00  0.00    +0.000 A 
ATOM     32  C   UNL     1      22.949  18.464  40.533  0.00  0.00    +0.000 A 
ATOM     33  C   UNL     1      23.046  19.270  39.417  0.00  0.00    +0.000 A 
ATOM     34  C   UNL     1      23.607  18.716  38.291  0.00  0.00    +0.000 A 
ATOM     35  C   UNL     1      24.051  17.410  38.286  0.00  0.00    +0.000 A 
ENDBRANCH  29  30
ENDBRANCH   1  29
TORSDOF 8
ENDMDL
MODEL 8
REMARK VINA RESULT:      -7.9      8.123     11.772
REMARK  Name = 
REMARK  8 active torsions:
REMARK  status: ('A' for Active; 'I' for Inactive)
REMARK    1  A    between atoms: O_2  and  C_3
REMARK    2  A    between atoms: C_6  and  C_7
REMARK    3  A    between atoms: C_7  and  C_8
REMARK    4  A    between atoms: C_7  and  C_25
REMARK    5  A    between atoms: C_8  and  N_9
REMARK    6  A    between atoms: C_10  and  C_12
REMARK    7  A    between atoms: C_25  and  C_26
REMARK    8  A    between atoms: C_33  and  O_34
REMARK                            x       y       z     vdW  Elec       q    Type
REMARK                         _______ _______ _______ _____ _____    ______ ____
ROOT
ATOM      1  C   UNL     1      38.993  -0.814  15.460  0.00  0.00    +0.000 C 
ENDROOT
BRANCH   1   5
ATOM      2  C   UNL     1      41.197  -2.218  11.996  0.00  0.00    +0.000 A 
ATOM      3  C   UNL     1      39.841  -2.398  12.134  0.00  0.00    +0.000 A 
ATOM      4  C   UNL     1      39.184  -1.917  13.284  0.00  0.00    +0.000 A 
ATOM      5  C   UNL     1      39.900  -1.270  14.265  0.00  0.00    +0.000 A 
ATOM      6  C   UNL     1      41.194  -1.107  14.118  0.00  0.00    +0.000 A 
ATOM      7  C   UNL     1      41.869  -1.568  12.998  0.00  0.00    +0.000 A 
BRANCH   2   9
ATOM      8  C   UNL     1      42.200  -4.067  10.733  0.00  0.00    +0.000 C 
ATOM      9  O   UNL     1      41.875  -2.693  10.849  0.00  0.00    +0.000 OA
ENDBRANCH   2   9
BRANCH   7  10
ATOM     10  O   UNL     1      43.226  -1.374  12.887  0.00  0.00    +0.000 OA
ATOM     11  C   UNL     1      44.167  -2.219  13.515  0.00  0.00    +0.000 C 
ENDBRANCH   7  10
ENDBRANCH   1   5
BRANCH   1  12
ATOM     12  C   UNL     1      38.012   0.145  14.657  0.00  0.00    +0.000 C 
BRANCH  12  13
ATOM     13  N   UNL     1      38.022   1.465  14.903  0.00  0.00    +0.000 NA
ATOM     14  C   UNL     1      38.821   2.589  14.754  0.00  0.00    +0.000 C 
ATOM     15  O   UNL     1      39.934   2.429  14.205  0.00  0.00    +0.000 OA
BRANCH  14  16
ATOM     16  C   UNL     1      38.464   3.942  15.186  0.00  0.00    +0.000 A 
ATOM     17  C   UNL     1      37.688   4.809  14.457  0.00  0.00    +0.000 A 
ATOM     18  C   UNL     1      37.378   6.082  14.912  0.00  0.00    +0.000 A 
ATOM     19  C   UNL     1      37.853   6.518  16.144  0.00  0.00    +0.000 A 
ATOM     20  O   UNL     1      37.748   7.613  16.835  0.00  0.00    +0.000 OA
ATOM     21  C   UNL     1      38.396   7.543  17.976  0.00  0.00    +0.000 A 
ATOM     22  C   UNL     1      38.595   8.401  19.037  0.00  0.00    +0.000 A 
ATOM     23  C   UNL     1      39.344   8.055  20.141  0.00  0.00    +0.000 A 
ATOM     24  C   UNL     1      39.935   6.808  20.224  0.00  0.00    +0.000 A 
ATOM     25  C   UNL     1      39.736   5.950  19.161  0.00  0.00    +0.000 A 
ATOM     26  C   UNL     1      38.988   6.284  18.051  0.00  0.00    +0.000 A 
ATOM     27  C   UNL     1      38.624   5.666  16.880  0.00  0.00    +0.000 A 
ATOM     28  C   UNL     1      38.915   4.419  16.407  0.00  0.00    +0.000 A 
ENDBRANCH  14  16
ENDBRANCH  12  13
ENDBRANCH   1  12
BRANCH   1  29
ATOM     29  C   UNL     1      38.012  -2.084  15.643  0.00  0.00    +0.000 C 
BRANCH  29  30
ATOM     30  C   UNL     1      37.970  -2.237  17.129  0.00  0.00    +0.000 A 
ATOM     31  C   UNL     1      38.720  -3.145  17.830  0.00  0.00    +0.000 A 
ATOM     32  C   UNL     1      38.647  -3.249  19.207  0.00  0.00    +0.000 A 
ATOM     33  C   UNL     1      37.812  -2.442  19.953  0.00  0.00    +0.000 A 
ATOM     34  C   UNL     1      37.051  -1.525  19.269  0.00  0.00    +0.000 A 
ATOM     35  C   UNL     1      37.124  -1.422  17.895  0.00  0.00    +0.000 A 
ENDBRANCH  29  30
ENDBRANCH   1  29
TORSDOF 8
ENDMDL
MODEL 9
REMARK VINA RESULT:      -7.9      4.472      9.895
REMARK  Name = 
REMARK  8 active torsions:
REMARK  status: ('A' for Active; 'I' for Inactive)
REMARK    1  A    between atoms: O_2  and  C_3
REMARK    2  A    between atoms: C_6  and  C_7
REMARK    3  A    between atoms: C_7  and  C_8
REMARK    4  A    between atoms: C_7  and  C_25
REMARK    5  A    between atoms: C_8  and  N_9
REMARK    6  A    between atoms: C_10  and  C_12
REMARK    7  A    between atoms: C_25  and  C_26
REMARK    8  A    between atoms: C_33  and  O_34
REMARK                            x       y       z     vdW  Elec       q    Type
REMARK                         _______ _______ _______ _____ _____    ______ ____
ROOT
ATOM      1  C   UNL     1      41.807   7.473  19.646  0.00  0.00    +0.000 C 
ENDROOT
BRANCH   1   5
ATOM      2  C   UNL     1      44.667   6.986  22.873  0.00  0.00    +0.000 A 
ATOM      3  C   UNL     1      44.168   8.213  22.504  0.00  0.00    +0.000 A 
ATOM      4  C   UNL     1      43.241   8.304  21.448  0.00  0.00    +0.000 A 
ATOM      5  C   UNL     1      42.837   7.166  20.787  0.00  0.00    +0.000 A 
ATOM      6  C   UNL     1      43.324   6.002  21.152  0.00  0.00    +0.000 A 
ATOM      7  C   UNL     1      44.237   5.881  22.187  0.00  0.00    +0.000 A 
BRANCH   2   9
ATOM      8  C   UNL     1      45.148   6.794  25.272  0.00  0.00    +0.000 C 
ATOM      9  O   UNL     1      45.599   6.875  23.931  0.00  0.00    +0.000 OA
ENDBRANCH   2   9
BRANCH   7  10
ATOM     10  O   UNL     1      44.719   4.640  22.535  0.00  0.00    +0.000 OA
ATOM     11  C   UNL     1      45.804   4.034  21.865  0.00  0.00    +0.000 C 
ENDBRANCH   7  10
ENDBRANCH   1   5
BRANCH   1  12
ATOM     12  C   UNL     1      42.553   6.736  18.452  0.00  0.00    +0.000 C 
BRANCH  12  13
ATOM     13  N   UNL     1      41.835   6.195  17.452  0.00  0.00    +0.000 NA
ATOM     14  C   UNL     1      41.195   6.537  16.271  0.00  0.00    +0.000 C 
ATOM     15  O   UNL     1      41.249   7.736  15.919  0.00  0.00    +0.000 OA
BRANCH  14  16
ATOM     16  C   UNL     1      40.464   5.606  15.408  0.00  0.00    +0.000 A 
ATOM     17  C   UNL     1      40.795   5.336  14.103  0.00  0.00    +0.000 A 
ATOM     18  C   UNL     1      40.070   4.445  13.327  0.00  0.00    +0.000 A 
ATOM     19  C   UNL     1      38.968   3.789  13.864  0.00  0.00    +0.000 A 
ATOM     20  O   UNL     1      38.106   2.924  13.419  0.00  0.00    +0.000 OA
ATOM     21  C   UNL     1      37.221   2.594  14.332  0.00  0.00    +0.000 A 
ATOM     22  C   UNL     1      36.132   1.747  14.372  0.00  0.00    +0.000 A 
ATOM     23  C   UNL     1      35.355   1.590  15.499  0.00  0.00    +0.000 A 
ATOM     24  C   UNL     1      35.646   2.291  16.653  0.00  0.00    +0.000 A 
ATOM     25  C   UNL     1      36.734   3.139  16.613  0.00  0.00    +0.000 A 
ATOM     26  C   UNL     1      37.520   3.305  15.492  0.00  0.00    +0.000 A 
ATOM     27  C   UNL     1      38.627   4.047  15.159  0.00  0.00    +0.000 A 
ATOM     28  C   UNL     1      39.359   4.929  15.900  0.00  0.00    +0.000 A 
ENDBRANCH  14  16
ENDBRANCH  12  13
ENDBRANCH   1  12
BRANCH   1  29
ATOM     29  C   UNL     1      40.650   6.382  19.934  0.00  0.00    +0.000 C 
BRANCH  29  30
ATOM     30  C   UNL     1      39.406   7.193  19.770  0.00  0.00    +0.000 A 
ATOM     31  C   UNL     1      38.550   7.081  18.706  0.00  0.00    +0.000 A 
ATOM     32  C   UNL     1      37.409   7.854  18.598  0.00  0.00    +0.000 A 
ATOM     33  C   UNL     1      37.067   8.783  19.560  0.00  0.00    +0.000 A 
ATOM     34  C   UNL     1      37.913   8.911  20.636  0.00  0.00    +0.000 A 
ATOM     35  C   UNL     1      39.052   8.140  20.742  0.00  0.00    +0.000 A 
ENDBRANCH  29  30
ENDBRANCH   1  29
TORSDOF 8
ENDMDL
MODEL 10
REMARK VINA RESULT:      -7.8      7.275     11.387
REMARK  Name = 
REMARK  8 active torsions:
REMARK  status: ('A' for Active; 'I' for Inactive)
REMARK    1  A    between atoms: O_2  and  C_3
REMARK    2  A    between atoms: C_6  and  C_7
REMARK    3  A    between atoms: C_7  and  C_8
REMARK    4  A    between atoms: C_7  and  C_25
REMARK    5  A    between atoms: C_8  and  N_9
REMARK    6  A    between atoms: C_10  and  C_12
REMARK    7  A    between atoms: C_25  and  C_26
REMARK    8  A    between atoms: C_33  and  O_34
REMARK                            x       y       z     vdW  Elec       q    Type
REMARK                         _______ _______ _______ _____ _____    ______ ____
ROOT
ATOM      1  C   UNL     1      39.426   4.915  16.650  0.00  0.00    +0.000 C 
ENDROOT
BRANCH   1   5
ATOM      2  C   UNL     1      41.238   7.444  19.674  0.00  0.00    +0.000 A 
ATOM      3  C   UNL     1      41.947   6.940  18.609  0.00  0.00    +0.000 A 
ATOM      4  C   UNL     1      41.299   6.125  17.660  0.00  0.00    +0.000 A 
ATOM      5  C   UNL     1      39.961   5.834  17.802  0.00  0.00    +0.000 A 
ATOM      6  C   UNL     1      39.300   6.322  18.826  0.00  0.00    +0.000 A 
ATOM      7  C   UNL     1      39.910   7.127  19.775  0.00  0.00    +0.000 A 
BRANCH   2   9
ATOM      8  C   UNL     1      42.342   9.551  20.278  0.00  0.00    +0.000 C 
ATOM      9  O   UNL     1      41.871   8.264  20.638  0.00  0.00    +0.000 OA
ENDBRANCH   2   9
BRANCH   7  10
ATOM     10  O   UNL     1      39.177   7.617  20.832  0.00  0.00    +0.000 OA
ATOM     11  C   UNL     1      38.180   8.605  20.669  0.00  0.00    +0.000 C 
ENDBRANCH   7  10
ENDBRANCH   1   5
BRANCH   1  12
ATOM     12  C   UNL     1      37.940   4.718  17.178  0.00  0.00    +0.000 C 
BRANCH  12  13
ATOM     13  N   UNL     1      37.361   3.508  17.101  0.00  0.00    +0.000 NA
ATOM     14  C   UNL     1      36.360   2.826  16.425  0.00  0.00    +0.000 C 
ATOM     15  O   UNL     1      35.717   3.465  15.563  0.00  0.00    +0.000 OA
BRANCH  14  16
ATOM     16  C   UNL     1      36.000   1.424  16.641  0.00  0.00    +0.000 A 
ATOM     17  C   UNL     1      34.736   0.987  16.953  0.00  0.00    +0.000 A 
ATOM     18  C   UNL     1      34.446  -0.354  17.148  0.00  0.00    +0.000 A 
ATOM     19  C   UNL     1      35.450  -1.310  17.029  0.00  0.00    +0.000 A 
ATOM     20  O   UNL     1      35.507  -2.603  17.145  0.00  0.00    +0.000 OA
ATOM     21  C   UNL     1      36.719  -3.065  16.933  0.00  0.00    +0.000 A 
ATOM     22  C   UNL     1      37.297  -4.318  16.935  0.00  0.00    +0.000 A 
ATOM     23  C   UNL     1      38.634  -4.518  16.671  0.00  0.00    +0.000 A 
ATOM     24  C   UNL     1      39.460  -3.446  16.389  0.00  0.00    +0.000 A 
ATOM     25  C   UNL     1      38.882  -2.194  16.388  0.00  0.00    +0.000 A 
ATOM     26  C   UNL     1      37.545  -1.980  16.650  0.00  0.00    +0.000 A 
ATOM     27  C   UNL     1      36.710  -0.891  16.720  0.00  0.00    +0.000 A 
ATOM     28  C   UNL     1      36.968   0.436  16.533  0.00  0.00    +0.000 A 
ENDBRANCH  14  16
ENDBRANCH  12  13
ENDBRANCH   1  12
BRANCH   1  29
ATOM     29  C   UNL     1      39.137   5.983  15.473  0.00  0.00    +0.000 C 
BRANCH  29  30
ATOM     30  C   UNL     1      39.054   5.106  14.266  0.00  0.00    +0.000 A 
ATOM     31  C   UNL     1      37.989   5.084  13.404  0.00  0.00    +0.000 A 
ATOM     32  C   UNL     1      37.957   4.254  12.299  0.00  0.00    +0.000 A 
ATOM     33  C   UNL     1      39.000   3.401  12.001  0.00  0.00    +0.000 A 
ATOM     34  C   UNL     1      40.079   3.407  12.853  0.00  0.00    +0.000 A 
ATOM     35  C   UNL     1      40.108   4.235  13.957  0.00  0.00    +0.000 A 
ENDBRANCH  29  30
ENDBRANCH   1  29
TORSDOF 8
ENDMDL
