MODEL 1
REMARK VINA RESULT:      -5.5      0.000      0.000
REMARK  Name = 
REMARK  5 active torsions:
REMARK  status: ('A' for Active; 'I' for Inactive)
REMARK    1  A    between atoms: C_2  and  O_3
REMARK    2  A    between atoms: O_3  and  C_4
REMARK    3  A    between atoms: C_4  and  C_6
REMARK    4  A    between atoms: C_13  and  C_14
REMARK    5  A    between atoms: C_17  and  O_18
REMARK                            x       y       z     vdW  Elec       q    Type
REMARK                         _______ _______ _______ _____ _____    ______ ____
ROOT
ATOM      1  C   UNL     1      27.685  25.009  22.754  0.00  0.00    +0.000 C 
ATOM      2  C   UNL     1      27.671  26.168  22.261  0.00  0.00    +0.000 C 
ATOM      3  C   UNL     1      26.720  27.166  22.856  0.00  0.00    +0.000 C 
ATOM      4  N   UNL     1      28.471  26.571  21.215  0.00  0.00    +0.000 NA
ATOM      5  C   UNL     1      29.385  25.729  20.590  0.00  0.00    +0.000 C 
ATOM      6  O   UNL     1      30.135  26.080  19.621  0.00  0.00    +0.000 OA
ATOM      7  N   UNL     1      29.431  24.499  21.081  0.00  0.00    +0.000 NA
ATOM      8  C   UNL     1      28.651  23.833  22.221  0.00  0.00    +0.000 C 
ENDROOT
BRANCH   8   9
ATOM      9  C   UNL     1      29.723  23.951  23.408  0.00  0.00    +0.000 A 
ATOM     10  C   UNL     1      29.883  22.794  24.140  0.00  0.00    +0.000 A 
ATOM     11  C   UNL     1      30.796  22.766  25.211  0.00  0.00    +0.000 A 
ATOM     12  C   UNL     1      31.517  23.892  25.517  0.00  0.00    +0.000 A 
ATOM     13  C   UNL     1      31.322  25.015  24.762  0.00  0.00    +0.000 A 
ATOM     14  C   UNL     1      30.419  25.021  23.712  0.00  0.00    +0.000 A 
BRANCH  12  15
ATOM     15  O   UNL     1      32.425  23.841  26.594  0.00  0.00    +0.000 OA
ATOM     16  C   UNL     1      33.506  24.716  26.682  0.00  0.00    +0.000 C 
ENDBRANCH  12  15
ENDBRANCH   8   9
BRANCH   1  17
ATOM     17  C   UNL     1      26.830  24.567  23.878  0.00  0.00    +0.000 C 
ATOM     18  O   UNL     1      25.929  23.726  23.708  0.00  0.00    +0.000 OA
BRANCH  17  19
ATOM     19  O   UNL     1      27.038  25.094  25.124  0.00  0.00    +0.000 OA
BRANCH  19  21
ATOM     20  C   UNL     1      28.373  25.026  27.076  0.00  0.00    +0.000 C 
ATOM     21  C   UNL     1      27.263  24.340  26.285  0.00  0.00    +0.000 C 
ENDBRANCH  19  21
ENDBRANCH  17  19
ENDBRANCH   1  17
TORSDOF 5
ENDMDL
MODEL 2
REMARK VINA RESULT:      -5.4      1.850      2.275
REMARK  Name = 
REMARK  5 active torsions:
REMARK  status: ('A' for Active; 'I' for Inactive)
REMARK    1  A    between atoms: C_2  and  O_3
REMARK    2  A    between atoms: O_3  and  C_4
REMARK    3  A    between atoms: C_4  and  C_6
REMARK    4  A    between atoms: C_13  and  C_14
REMARK    5  A    between atoms: C_17  and  O_18
REMARK                            x       y       z     vdW  Elec       q    Type
REMARK                         _______ _______ _______ _____ _____    ______ ____
ROOT
ATOM      1  C   UNL     1      27.074  25.002  23.808  0.00  0.00    +0.000 C 
ATOM      2  C   UNL     1      27.727  25.942  23.282  0.00  0.00    +0.000 C 
ATOM      3  C   UNL     1      27.507  27.328  23.818  0.00  0.00    +0.000 C 
ATOM      4  N   UNL     1      28.626  25.775  22.252  0.00  0.00    +0.000 NA
ATOM      5  C   UNL     1      28.905  24.538  21.681  0.00  0.00    +0.000 C 
ATOM      6  O   UNL     1      29.732  24.359  20.728  0.00  0.00    +0.000 OA
ATOM      7  N   UNL     1      28.237  23.521  22.207  0.00  0.00    +0.000 NA
ATOM      8  C   UNL     1      27.204  23.465  23.340  0.00  0.00    +0.000 C 
ENDROOT
BRANCH   8   9
ATOM      9  C   UNL     1      28.139  23.002  24.557  0.00  0.00    +0.000 A 
ATOM     10  C   UNL     1      29.481  22.942  24.246  0.00  0.00    +0.000 A 
ATOM     11  C   UNL     1      30.409  22.549  25.229  0.00  0.00    +0.000 A 
ATOM     12  C   UNL     1      29.969  22.229  26.487  0.00  0.00    +0.000 A 
ATOM     13  C   UNL     1      28.628  22.303  26.747  0.00  0.00    +0.000 A 
ATOM     14  C   UNL     1      27.732  22.692  25.765  0.00  0.00    +0.000 A 
BRANCH  12  15
ATOM     15  O   UNL     1      30.915  21.838  27.456  0.00  0.00    +0.000 OA
ATOM     16  C   UNL     1      31.162  22.607  28.592  0.00  0.00    +0.000 C 
ENDBRANCH  12  15
ENDBRANCH   8   9
BRANCH   1  17
ATOM     17  C   UNL     1      26.107  25.171  24.915  0.00  0.00    +0.000 C 
ATOM     18  O   UNL     1      24.900  24.913  24.760  0.00  0.00    +0.000 OA
BRANCH  17  19
ATOM     19  O   UNL     1      26.552  25.621  26.129  0.00  0.00    +0.000 OA
BRANCH  19  21
ATOM     20  C   UNL     1      25.662  24.602  28.070  0.00  0.00    +0.000 C 
ATOM     21  C   UNL     1      25.732  25.879  27.237  0.00  0.00    +0.000 C 
ENDBRANCH  19  21
ENDBRANCH  17  19
ENDBRANCH   1  17
TORSDOF 5
ENDMDL
MODEL 3
REMARK VINA RESULT:      -5.2     33.592     35.114
REMARK  Name = 
REMARK  5 active torsions:
REMARK  status: ('A' for Active; 'I' for Inactive)
REMARK    1  A    between atoms: C_2  and  O_3
REMARK    2  A    between atoms: O_3  and  C_4
REMARK    3  A    between atoms: C_4  and  C_6
REMARK    4  A    between atoms: C_13  and  C_14
REMARK    5  A    between atoms: C_17  and  O_18
REMARK                            x       y       z     vdW  Elec       q    Type
REMARK                         _______ _______ _______ _____ _____    ______ ____
ROOT
ATOM      1  C   UNL     1      18.658  -7.335  26.075  0.00  0.00    +0.000 C 
ATOM      2  C   UNL     1      19.541  -6.441  25.992  0.00  0.00    +0.000 C 
ATOM      3  C   UNL     1      19.112  -5.016  26.192  0.00  0.00    +0.000 C 
ATOM      4  N   UNL     1      20.870  -6.691  25.729  0.00  0.00    +0.000 NA
ATOM      5  C   UNL     1      21.375  -7.971  25.527  0.00  0.00    +0.000 C 
ATOM      6  O   UNL     1      22.599  -8.227  25.282  0.00  0.00    +0.000 OA
ATOM      7  N   UNL     1      20.475  -8.942  25.607  0.00  0.00    +0.000 NA
ATOM      8  C   UNL     1      18.968  -8.905  25.884  0.00  0.00    +0.000 C 
ENDROOT
BRANCH   8   9
ATOM      9  C   UNL     1      18.955  -9.265  27.447  0.00  0.00    +0.000 A 
ATOM     10  C   UNL     1      20.194  -9.583  27.962  0.00  0.00    +0.000 A 
ATOM     11  C   UNL     1      20.320  -9.919  29.323  0.00  0.00    +0.000 A 
ATOM     12  C   UNL     1      19.207  -9.927  30.125  0.00  0.00    +0.000 A 
ATOM     13  C   UNL     1      18.000  -9.605  29.567  0.00  0.00    +0.000 A 
ATOM     14  C   UNL     1      17.899  -9.277  28.226  0.00  0.00    +0.000 A 
BRANCH  12  15
ATOM     15  O   UNL     1      19.355 -10.266  31.485  0.00  0.00    +0.000 OA
ATOM     16  C   UNL     1      18.364 -10.956  32.181  0.00  0.00    +0.000 C 
ENDBRANCH  12  15
ENDBRANCH   8   9
BRANCH   1  17
ATOM     17  C   UNL     1      17.229  -7.075  26.358  0.00  0.00    +0.000 C 
ATOM     18  O   UNL     1      16.882  -6.373  27.325  0.00  0.00    +0.000 OA
BRANCH  17  19
ATOM     19  O   UNL     1      16.275  -7.619  25.540  0.00  0.00    +0.000 OA
BRANCH  19  21
ATOM     20  C   UNL     1      15.360  -9.800  25.458  0.00  0.00    +0.000 C 
ATOM     21  C   UNL     1      15.181  -8.378  25.981  0.00  0.00    +0.000 C 
ENDBRANCH  19  21
ENDBRANCH  17  19
ENDBRANCH   1  17
TORSDOF 5
ENDMDL
MODEL 4
REMARK VINA RESULT:      -5.2      0.711      1.241
REMARK  Name = 
REMARK  5 active torsions:
REMARK  status: ('A' for Active; 'I' for Inactive)
REMARK    1  A    between atoms: C_2  and  O_3
REMARK    2  A    between atoms: O_3  and  C_4
REMARK    3  A    between atoms: C_4  and  C_6
REMARK    4  A    between atoms: C_13  and  C_14
REMARK    5  A    between atoms: C_17  and  O_18
REMARK                            x       y       z     vdW  Elec       q    Type
REMARK                         _______ _______ _______ _____ _____    ______ ____
ROOT
ATOM      1  C   UNL     1      27.581  24.561  23.044  0.00  0.00    +0.000 C 
ATOM      2  C   UNL     1      27.525  25.757  22.651  0.00  0.00    +0.000 C 
ATOM      3  C   UNL     1      26.561  26.674  23.345  0.00  0.00    +0.000 C 
ATOM      4  N   UNL     1      28.293  26.269  21.628  0.00  0.00    +0.000 NA
ATOM      5  C   UNL     1      29.216  25.509  20.918  0.00  0.00    +0.000 C 
ATOM      6  O   UNL     1      29.937  25.961  19.969  0.00  0.00    +0.000 OA
ATOM      7  N   UNL     1      29.305  24.244  21.302  0.00  0.00    +0.000 NA
ATOM      8  C   UNL     1      28.566  23.462  22.396  0.00  0.00    +0.000 C 
ENDROOT
BRANCH   8   9
ATOM      9  C   UNL     1      29.658  23.510  23.569  0.00  0.00    +0.000 A 
ATOM     10  C   UNL     1      30.312  24.719  23.682  0.00  0.00    +0.000 A 
ATOM     11  C   UNL     1      31.295  24.892  24.674  0.00  0.00    +0.000 A 
ATOM     12  C   UNL     1      31.594  23.854  25.519  0.00  0.00    +0.000 A 
ATOM     13  C   UNL     1      30.919  22.674  25.367  0.00  0.00    +0.000 A 
ATOM     14  C   UNL     1      29.955  22.526  24.384  0.00  0.00    +0.000 A 
BRANCH  12  15
ATOM     15  O   UNL     1      32.583  24.048  26.506  0.00  0.00    +0.000 OA
ATOM     16  C   UNL     1      33.723  24.810  26.261  0.00  0.00    +0.000 C 
ENDBRANCH  12  15
ENDBRANCH   8   9
BRANCH   1  17
ATOM     17  C   UNL     1      26.761  24.002  24.141  0.00  0.00    +0.000 C 
ATOM     18  O   UNL     1      25.775  23.281  23.904  0.00  0.00    +0.000 OA
BRANCH  17  19
ATOM     19  O   UNL     1      27.096  24.286  25.438  0.00  0.00    +0.000 OA
BRANCH  19  21
ATOM     20  C   UNL     1      27.644  22.878  27.258  0.00  0.00    +0.000 C 
ATOM     21  C   UNL     1      26.536  23.664  26.564  0.00  0.00    +0.000 C 
ENDBRANCH  19  21
ENDBRANCH  17  19
ENDBRANCH   1  17
TORSDOF 5
ENDMDL
MODEL 5
REMARK VINA RESULT:      -5.2     21.406     23.453
REMARK  Name = 
REMARK  5 active torsions:
REMARK  status: ('A' for Active; 'I' for Inactive)
REMARK    1  A    between atoms: C_2  and  O_3
REMARK    2  A    between atoms: O_3  and  C_4
REMARK    3  A    between atoms: C_4  and  C_6
REMARK    4  A    between atoms: C_13  and  C_14
REMARK    5  A    between atoms: C_17  and  O_18
REMARK                            x       y       z     vdW  Elec       q    Type
REMARK                         _______ _______ _______ _____ _____    ______ ____
ROOT
ATOM      1  C   UNL     1      17.942   9.270  38.831  0.00  0.00    +0.000 C 
ATOM      2  C   UNL     1      16.888   9.831  39.232  0.00  0.00    +0.000 C 
ATOM      3  C   UNL     1      16.493   9.629  40.667  0.00  0.00    +0.000 C 
ATOM      4  N   UNL     1      16.080  10.615  38.437  0.00  0.00    +0.000 NA
ATOM      5  C   UNL     1      16.352  10.868  37.097  0.00  0.00    +0.000 C 
ATOM      6  O   UNL     1      15.620  11.589  36.342  0.00  0.00    +0.000 OA
ATOM      7  N   UNL     1      17.454  10.295  36.636  0.00  0.00    +0.000 NA
ATOM      8  C   UNL     1      18.491   9.396  37.321  0.00  0.00    +0.000 C 
ENDROOT
BRANCH   8   9
ATOM      9  C   UNL     1      19.631  10.475  37.651  0.00  0.00    +0.000 A 
ATOM     10  C   UNL     1      20.904  10.075  37.304  0.00  0.00    +0.000 A 
ATOM     11  C   UNL     1      21.995  10.932  37.542  0.00  0.00    +0.000 A 
ATOM     12  C   UNL     1      21.780  12.158  38.118  0.00  0.00    +0.000 A 
ATOM     13  C   UNL     1      20.500  12.509  38.445  0.00  0.00    +0.000 A 
ATOM     14  C   UNL     1      19.441  11.651  38.202  0.00  0.00    +0.000 A 
BRANCH  12  15
ATOM     15  O   UNL     1      22.887  13.000  38.347  0.00  0.00    +0.000 OA
ATOM     16  C   UNL     1      24.196  12.552  38.183  0.00  0.00    +0.000 C 
ENDBRANCH  12  15
ENDBRANCH   8   9
BRANCH   1  17
ATOM     17  C   UNL     1      18.815   8.428  39.678  0.00  0.00    +0.000 C 
ATOM     18  O   UNL     1      19.627   8.937  40.471  0.00  0.00    +0.000 OA
BRANCH  17  19
ATOM     19  O   UNL     1      18.725   7.065  39.583  0.00  0.00    +0.000 OA
BRANCH  19  21
ATOM     20  C   UNL     1      17.267   6.050  41.145  0.00  0.00    +0.000 C 
ATOM     21  C   UNL     1      18.712   6.186  40.676  0.00  0.00    +0.000 C 
ENDBRANCH  19  21
ENDBRANCH  17  19
ENDBRANCH   1  17
TORSDOF 5
ENDMDL
MODEL 6
REMARK VINA RESULT:      -5.2      2.674      4.650
REMARK  Name = 
REMARK  5 active torsions:
REMARK  status: ('A' for Active; 'I' for Inactive)
REMARK    1  A    between atoms: C_2  and  O_3
REMARK    2  A    between atoms: O_3  and  C_4
REMARK    3  A    between atoms: C_4  and  C_6
REMARK    4  A    between atoms: C_13  and  C_14
REMARK    5  A    between atoms: C_17  and  O_18
REMARK                            x       y       z     vdW  Elec       q    Type
REMARK                         _______ _______ _______ _____ _____    ______ ____
ROOT
ATOM      1  C   UNL     1      27.861  25.053  24.260  0.00  0.00    +0.000 C 
ATOM      2  C   UNL     1      28.175  24.340  23.270  0.00  0.00    +0.000 C 
ATOM      3  C   UNL     1      29.589  24.424  22.772  0.00  0.00    +0.000 C 
ATOM      4  N   UNL     1      27.303  23.494  22.620  0.00  0.00    +0.000 NA
ATOM      5  C   UNL     1      25.973  23.340  22.997  0.00  0.00    +0.000 C 
ATOM      6  O   UNL     1      25.149  22.564  22.412  0.00  0.00    +0.000 OA
ATOM      7  N   UNL     1      25.603  24.073  24.037  0.00  0.00    +0.000 NA
ATOM      8  C   UNL     1      26.383  25.069  24.904  0.00  0.00    +0.000 C 
ENDROOT
BRANCH   8   9
ATOM      9  C   UNL     1      26.742  24.135  26.158  0.00  0.00    +0.000 A 
ATOM     10  C   UNL     1      26.241  24.588  27.360  0.00  0.00    +0.000 A 
ATOM     11  C   UNL     1      26.485  23.858  28.539  0.00  0.00    +0.000 A 
ATOM     12  C   UNL     1      27.221  22.702  28.479  0.00  0.00    +0.000 A 
ATOM     13  C   UNL     1      27.696  22.294  27.264  0.00  0.00    +0.000 A 
ATOM     14  C   UNL     1      27.444  23.027  26.117  0.00  0.00    +0.000 A 
BRANCH  12  15
ATOM     15  O   UNL     1      27.453  21.987  29.672  0.00  0.00    +0.000 OA
ATOM     16  C   UNL     1      26.407  21.564  30.489  0.00  0.00    +0.000 C 
ENDBRANCH  12  15
ENDBRANCH   8   9
BRANCH   1  17
ATOM     17  C   UNL     1      28.790  25.963  24.964  0.00  0.00    +0.000 C 
ATOM     18  O   UNL     1      28.675  27.199  24.869  0.00  0.00    +0.000 OA
BRANCH  17  19
ATOM     19  O   UNL     1      29.792  25.434  25.732  0.00  0.00    +0.000 OA
BRANCH  19  21
ATOM     20  C   UNL     1      29.965  25.211  28.081  0.00  0.00    +0.000 C 
ATOM     21  C   UNL     1      30.343  26.051  26.865  0.00  0.00    +0.000 C 
ENDBRANCH  19  21
ENDBRANCH  17  19
ENDBRANCH   1  17
TORSDOF 5
ENDMDL
MODEL 7
REMARK VINA RESULT:      -5.1      4.175      7.007
REMARK  Name = 
REMARK  5 active torsions:
REMARK  status: ('A' for Active; 'I' for Inactive)
REMARK    1  A    between atoms: C_2  and  O_3
REMARK    2  A    between atoms: O_3  and  C_4
REMARK    3  A    between atoms: C_4  and  C_6
REMARK    4  A    between atoms: C_13  and  C_14
REMARK    5  A    between atoms: C_17  and  O_18
REMARK                            x       y       z     vdW  Elec       q    Type
REMARK                         _______ _______ _______ _____ _____    ______ ____
ROOT
ATOM      1  C   UNL     1      27.852  24.390  29.429  0.00  0.00    +0.000 C 
ATOM      2  C   UNL     1      26.874  24.569  30.202  0.00  0.00    +0.000 C 
ATOM      3  C   UNL     1      26.529  25.982  30.575  0.00  0.00    +0.000 C 
ATOM      4  N   UNL     1      26.105  23.551  30.723  0.00  0.00    +0.000 NA
ATOM      5  C   UNL     1      26.336  22.208  30.444  0.00  0.00    +0.000 C 
ATOM      6  O   UNL     1      25.639  21.249  30.914  0.00  0.00    +0.000 OA
ATOM      7  N   UNL     1      27.359  21.977  29.633  0.00  0.00    +0.000 NA
ATOM      8  C   UNL     1      28.340  22.933  28.942  0.00  0.00    +0.000 C 
ENDROOT
BRANCH   8   9
ATOM      9  C   UNL     1      27.677  23.018  27.484  0.00  0.00    +0.000 A 
ATOM     10  C   UNL     1      28.527  22.663  26.458  0.00  0.00    +0.000 A 
ATOM     11  C   UNL     1      28.067  22.695  25.127  0.00  0.00    +0.000 A 
ATOM     12  C   UNL     1      26.777  23.080  24.866  0.00  0.00    +0.000 A 
ATOM     13  C   UNL     1      25.973  23.423  25.918  0.00  0.00    +0.000 A 
ATOM     14  C   UNL     1      26.446  23.384  27.219  0.00  0.00    +0.000 A 
BRANCH  12  15
ATOM     15  O   UNL     1      26.337  23.105  23.527  0.00  0.00    +0.000 OA
ATOM     16  C   UNL     1      26.932  23.930  22.575  0.00  0.00    +0.000 C 
ENDBRANCH  12  15
ENDBRANCH   8   9
BRANCH   1  17
ATOM     17  C   UNL     1      28.682  25.477  28.865  0.00  0.00    +0.000 C 
ATOM     18  O   UNL     1      29.854  25.654  29.244  0.00  0.00    +0.000 OA
BRANCH  17  19
ATOM     19  O   UNL     1      28.148  26.300  27.909  0.00  0.00    +0.000 OA
BRANCH  19  21
ATOM     20  C   UNL     1      28.548  26.324  25.578  0.00  0.00    +0.000 C 
ATOM     21  C   UNL     1      28.889  26.963  26.920  0.00  0.00    +0.000 C 
ENDBRANCH  19  21
ENDBRANCH  17  19
ENDBRANCH   1  17
TORSDOF 5
ENDMDL
MODEL 8
REMARK VINA RESULT:      -5.0     33.845     35.564
REMARK  Name = 
REMARK  5 active torsions:
REMARK  status: ('A' for Active; 'I' for Inactive)
REMARK    1  A    between atoms: C_2  and  O_3
REMARK    2  A    between atoms: O_3  and  C_4
REMARK    3  A    between atoms: C_4  and  C_6
REMARK    4  A    between atoms: C_13  and  C_14
REMARK    5  A    between atoms: C_17  and  O_18
REMARK                            x       y       z     vdW  Elec       q    Type
REMARK                         _______ _______ _______ _____ _____    ______ ____
ROOT
ATOM      1  C   UNL     1      19.591  -8.152  26.668  0.00  0.00    +0.000 C 
ATOM      2  C   UNL     1      20.084  -7.331  25.850  0.00  0.00    +0.000 C 
ATOM      3  C   UNL     1      21.175  -7.822  24.942  0.00  0.00    +0.000 C 
ATOM      4  N   UNL     1      19.685  -6.017  25.739  0.00  0.00    +0.000 NA
ATOM      5  C   UNL     1      18.686  -5.459  26.530  0.00  0.00    +0.000 C 
ATOM      6  O   UNL     1      18.301  -4.247  26.445  0.00  0.00    +0.000 OA
ATOM      7  N   UNL     1      18.140  -6.291  27.404  0.00  0.00    +0.000 NA
ATOM      8  C   UNL     1      18.416  -7.770  27.704  0.00  0.00    +0.000 C 
ENDROOT
BRANCH   8   9
ATOM      9  C   UNL     1      17.232  -8.457  26.868  0.00  0.00    +0.000 A 
ATOM     10  C   UNL     1      16.746  -9.618  27.428  0.00  0.00    +0.000 A 
ATOM     11  C   UNL     1      15.704 -10.319  26.792  0.00  0.00    +0.000 A 
ATOM     12  C   UNL     1      15.182  -9.838  25.618  0.00  0.00    +0.000 A 
ATOM     13  C   UNL     1      15.699  -8.682  25.101  0.00  0.00    +0.000 A 
ATOM     14  C   UNL     1      16.724  -8.008  25.744  0.00  0.00    +0.000 A 
BRANCH  12  15
ATOM     15  O   UNL     1      14.139 -10.555  24.998  0.00  0.00    +0.000 OA
ATOM     16  C   UNL     1      12.900  -9.971  24.742  0.00  0.00    +0.000 C 
ENDBRANCH  12  15
ENDBRANCH   8   9
BRANCH   1  17
ATOM     17  C   UNL     1      20.013  -9.564  26.793  0.00  0.00    +0.000 C 
ATOM     18  O   UNL     1      19.684 -10.411  25.943  0.00  0.00    +0.000 OA
BRANCH  17  19
ATOM     19  O   UNL     1      20.777  -9.942  27.864  0.00  0.00    +0.000 OA
BRANCH  19  21
ATOM     20  C   UNL     1      20.085  -9.958  30.127  0.00  0.00    +0.000 C 
ATOM     21  C   UNL     1      20.353 -10.804  28.886  0.00  0.00    +0.000 C 
ENDBRANCH  19  21
ENDBRANCH  17  19
ENDBRANCH   1  17
TORSDOF 5
ENDMDL
MODEL 9
REMARK VINA RESULT:      -5.0      2.159      5.226
REMARK  Name = 
REMARK  5 active torsions:
REMARK  status: ('A' for Active; 'I' for Inactive)
REMARK    1  A    between atoms: C_2  and  O_3
REMARK    2  A    between atoms: O_3  and  C_4
REMARK    3  A    between atoms: C_4  and  C_6
REMARK    4  A    between atoms: C_13  and  C_14
REMARK    5  A    between atoms: C_17  and  O_18
REMARK                            x       y       z     vdW  Elec       q    Type
REMARK                         _______ _______ _______ _____ _____    ______ ____
ROOT
ATOM      1  C   UNL     1      28.201  24.814  24.009  0.00  0.00    +0.000 C 
ATOM      2  C   UNL     1      27.076  24.720  24.567  0.00  0.00    +0.000 C 
ATOM      3  C   UNL     1      26.890  25.422  25.882  0.00  0.00    +0.000 C 
ATOM      4  N   UNL     1      26.012  24.016  24.047  0.00  0.00    +0.000 NA
ATOM      5  C   UNL     1      26.076  23.330  22.839  0.00  0.00    +0.000 C 
ATOM      6  O   UNL     1      25.105  22.673  22.338  0.00  0.00    +0.000 OA
ATOM      7  N   UNL     1      27.245  23.405  22.219  0.00  0.00    +0.000 NA
ATOM      8  C   UNL     1      28.549  24.116  22.598  0.00  0.00    +0.000 C 
ENDROOT
BRANCH   8   9
ATOM      9  C   UNL     1      28.414  25.450  21.718  0.00  0.00    +0.000 A 
ATOM     10  C   UNL     1      29.535  25.752  20.976  0.00  0.00    +0.000 A 
ATOM     11  C   UNL     1      29.545  26.899  20.159  0.00  0.00    +0.000 A 
ATOM     12  C   UNL     1      28.437  27.706  20.112  0.00  0.00    +0.000 A 
ATOM     13  C   UNL     1      27.350  27.365  20.868  0.00  0.00    +0.000 A 
ATOM     14  C   UNL     1      27.361  26.232  21.664  0.00  0.00    +0.000 A 
BRANCH  12  15
ATOM     15  O   UNL     1      28.468  28.849  19.288  0.00  0.00    +0.000 OA
ATOM     16  C   UNL     1      29.387  28.979  18.249  0.00  0.00    +0.000 C 
ENDBRANCH  12  15
ENDBRANCH   8   9
BRANCH   1  17
ATOM     17  C   UNL     1      29.349  25.568  24.560  0.00  0.00    +0.000 C 
ATOM     18  O   UNL     1      29.462  26.793  24.374  0.00  0.00    +0.000 OA
BRANCH  17  19
ATOM     19  O   UNL     1      30.300  24.903  25.287  0.00  0.00    +0.000 OA
BRANCH  19  21
ATOM     20  C   UNL     1      31.621  23.091  24.535  0.00  0.00    +0.000 C 
ATOM     21  C   UNL     1      31.586  24.588  24.824  0.00  0.00    +0.000 C 
ENDBRANCH  19  21
ENDBRANCH  17  19
ENDBRANCH   1  17
TORSDOF 5
ENDMDL
MODEL 10
REMARK VINA RESULT:      -4.9     38.538     40.444
REMARK  Name = 
REMARK  5 active torsions:
REMARK  status: ('A' for Active; 'I' for Inactive)
REMARK    1  A    between atoms: C_2  and  O_3
REMARK    2  A    between atoms: O_3  and  C_4
REMARK    3  A    between atoms: C_4  and  C_6
REMARK    4  A    between atoms: C_13  and  C_14
REMARK    5  A    between atoms: C_17  and  O_18
REMARK                            x       y       z     vdW  Elec       q    Type
REMARK                         _______ _______ _______ _____ _____    ______ ____
ROOT
ATOM      1  C   UNL     1      -1.142  -2.495  20.295  0.00  0.00    +0.000 C 
ATOM      2  C   UNL     1      -2.244  -3.020  20.602  0.00  0.00    +0.000 C 
ATOM      3  C   UNL     1      -2.775  -4.101  19.705  0.00  0.00    +0.000 C 
ATOM      4  N   UNL     1      -2.988  -2.665  21.707  0.00  0.00    +0.000 NA
ATOM      5  C   UNL     1      -2.591  -1.678  22.602  0.00  0.00    +0.000 C 
ATOM      6  O   UNL     1      -3.261  -1.333  23.630  0.00  0.00    +0.000 OA
ATOM      7  N   UNL     1      -1.434  -1.100  22.314  0.00  0.00    +0.000 NA
ATOM      8  C   UNL     1      -0.448  -1.325  21.161  0.00  0.00    +0.000 C 
ENDROOT
BRANCH   8   9
ATOM      9  C   UNL     1       0.626  -2.272  21.883  0.00  0.00    +0.000 A 
ATOM     10  C   UNL     1       1.933  -2.012  21.532  0.00  0.00    +0.000 A 
ATOM     11  C   UNL     1       2.973  -2.774  22.097  0.00  0.00    +0.000 A 
ATOM     12  C   UNL     1       2.675  -3.770  22.992  0.00  0.00    +0.000 A 
ATOM     13  C   UNL     1       1.363  -3.989  23.308  0.00  0.00    +0.000 A 
ATOM     14  C   UNL     1       0.355  -3.228  22.741  0.00  0.00    +0.000 A 
BRANCH  12  15
ATOM     15  O   UNL     1       3.732  -4.520  23.546  0.00  0.00    +0.000 OA
ATOM     16  C   UNL     1       4.348  -5.551  22.838  0.00  0.00    +0.000 C 
ENDBRANCH  12  15
ENDBRANCH   8   9
BRANCH   1  17
ATOM     17  C   UNL     1      -0.337  -2.870  19.112  0.00  0.00    +0.000 C 
ATOM     18  O   UNL     1      -0.169  -2.075  18.170  0.00  0.00    +0.000 OA
BRANCH  17  19
ATOM     19  O   UNL     1       0.231  -4.115  19.057  0.00  0.00    +0.000 OA
BRANCH  19  21
ATOM     20  C   UNL     1       2.109  -5.418  19.666  0.00  0.00    +0.000 C 
ATOM     21  C   UNL     1       1.564  -4.371  18.701  0.00  0.00    +0.000 C 
ENDBRANCH  19  21
ENDBRANCH  17  19
ENDBRANCH   1  17
TORSDOF 5
ENDMDL
