MODEL 1
REMARK VINA RESULT:      -6.3      0.000      0.000
REMARK  Name = 
REMARK  3 active torsions:
REMARK  status: ('A' for Active; 'I' for Inactive)
REMARK    1  A    between atoms: C_2  and  C_3
REMARK    2  A    between atoms: C_4  and  C_5
REMARK    3  A    between atoms: N_17  and  C_18
REMARK                            x       y       z     vdW  Elec       q    Type
REMARK                         _______ _______ _______ _____ _____    ______ ____
ROOT
ATOM      1  C   UNL     1      27.493  24.857  23.557  0.00  0.00    +0.000 A 
ATOM      2  C   UNL     1      26.948  23.691  24.037  0.00  0.00    +0.000 A 
ATOM      3  N   UNL     1      26.586  23.015  22.918  0.00  0.00    +0.000 NA
ATOM      4  N   UNL     1      26.901  23.745  21.855  0.00  0.00    +0.000 NA
ATOM      5  N   UNL     1      27.466  24.894  22.213  0.00  0.00    +0.000 N 
ENDROOT
BRANCH   2   6
ATOM      6  C   UNL     1      26.803  23.292  25.428  0.00  0.00    +0.000 C 
ATOM      7  O   UNL     1      25.672  23.453  25.960  0.00  0.00    +0.000 OA
ATOM      8  N   UNL     1      27.867  22.742  26.186  0.00  0.00    +0.000 N 
ATOM      9  C   UNL     1      27.625  22.386  27.528  0.00  0.00    +0.000 C 
ATOM     10  C   UNL     1      28.472  23.402  28.494  0.00  0.00    +0.000 C 
ATOM     11  C   UNL     1      28.176  24.768  27.639  0.00  0.00    +0.000 C 
ATOM     12  C   UNL     1      29.920  22.976  27.899  0.00  0.00    +0.000 C 
ATOM     13  C   UNL     1      30.039  23.699  26.449  0.00  0.00    +0.000 C 
ATOM     14  C   UNL     1      31.491  23.010  26.127  0.00  0.00    +0.000 C 
ATOM     15  C   UNL     1      29.198  22.523  25.657  0.00  0.00    +0.000 C 
ENDBRANCH   2   6
BRANCH   5  16
ATOM     16  C   UNL     1      27.942  25.945  21.385  0.00  0.00    +0.000 A 
ATOM     17  C   UNL     1      29.214  25.829  20.871  0.00  0.00    +0.000 A 
ATOM     18  C   UNL     1      29.739  26.821  20.054  0.00  0.00    +0.000 A 
ATOM     19  C   UNL     1      29.016  27.935  19.736  0.00  0.00    +0.000 A 
ATOM     20  C   UNL     1      27.741  28.073  20.239  0.00  0.00    +0.000 A 
ATOM     21  F   UNL     1      27.050  29.188  19.907  0.00  0.00    +0.000 F 
ATOM     22  C   UNL     1      27.225  27.073  21.057  0.00  0.00    +0.000 A 
ENDBRANCH   5  16
BRANCH   1  24
ATOM     23  C   UNL     1      27.011  26.940  24.816  0.00  0.00    +0.000 C 
ATOM     24  C   UNL     1      28.038  25.927  24.431  0.00  0.00    +0.000 C 
ENDBRANCH   1  24
TORSDOF 3
ENDMDL
MODEL 2
REMARK VINA RESULT:      -6.2      3.317      7.154
REMARK  Name = 
REMARK  3 active torsions:
REMARK  status: ('A' for Active; 'I' for Inactive)
REMARK    1  A    between atoms: C_2  and  C_3
REMARK    2  A    between atoms: C_4  and  C_5
REMARK    3  A    between atoms: N_17  and  C_18
REMARK                            x       y       z     vdW  Elec       q    Type
REMARK                         _______ _______ _______ _____ _____    ______ ____
ROOT
ATOM      1  C   UNL     1      29.318  23.296  25.698  0.00  0.00    +0.000 A 
ATOM      2  C   UNL     1      28.192  23.137  24.927  0.00  0.00    +0.000 A 
ATOM      3  N   UNL     1      27.334  22.467  25.737  0.00  0.00    +0.000 NA
ATOM      4  N   UNL     1      27.927  22.250  26.905  0.00  0.00    +0.000 NA
ATOM      5  N   UNL     1      29.159  22.751  26.918  0.00  0.00    +0.000 N 
ENDROOT
BRANCH   2   6
ATOM      6  C   UNL     1      27.986  23.591  23.561  0.00  0.00    +0.000 C 
ATOM      7  O   UNL     1      28.398  22.841  22.635  0.00  0.00    +0.000 OA
ATOM      8  N   UNL     1      27.354  24.819  23.245  0.00  0.00    +0.000 N 
ATOM      9  C   UNL     1      27.202  25.170  21.889  0.00  0.00    +0.000 C 
ATOM     10  C   UNL     1      28.163  26.459  21.576  0.00  0.00    +0.000 C 
ATOM     11  C   UNL     1      29.452  25.951  22.451  0.00  0.00    +0.000 C 
ATOM     12  C   UNL     1      27.431  27.435  22.645  0.00  0.00    +0.000 C 
ATOM     13  C   UNL     1      27.951  26.964  24.111  0.00  0.00    +0.000 C 
ATOM     14  C   UNL     1      26.993  28.039  24.893  0.00  0.00    +0.000 C 
ATOM     15  C   UNL     1      26.852  25.742  24.243  0.00  0.00    +0.000 C 
ENDBRANCH   2   6
BRANCH   5  16
ATOM     16  C   UNL     1      30.115  22.728  27.967  0.00  0.00    +0.000 A 
ATOM     17  C   UNL     1      29.958  23.629  28.996  0.00  0.00    +0.000 A 
ATOM     18  C   UNL     1      30.858  23.659  30.052  0.00  0.00    +0.000 A 
ATOM     19  C   UNL     1      31.920  22.803  30.105  0.00  0.00    +0.000 A 
ATOM     20  C   UNL     1      32.098  21.893  29.086  0.00  0.00    +0.000 A 
ATOM     21  F   UNL     1      33.161  21.059  29.165  0.00  0.00    +0.000 F 
ATOM     22  C   UNL     1      31.191  21.872  28.032  0.00  0.00    +0.000 A 
ENDBRANCH   5  16
BRANCH   1  24
ATOM     23  C   UNL     1      31.485  23.074  24.510  0.00  0.00    +0.000 C 
ATOM     24  C   UNL     1      30.544  23.987  25.224  0.00  0.00    +0.000 C 
ENDBRANCH   1  24
TORSDOF 3
ENDMDL
MODEL 3
REMARK VINA RESULT:      -6.1      1.396      1.726
REMARK  Name = 
REMARK  3 active torsions:
REMARK  status: ('A' for Active; 'I' for Inactive)
REMARK    1  A    between atoms: C_2  and  C_3
REMARK    2  A    between atoms: C_4  and  C_5
REMARK    3  A    between atoms: N_17  and  C_18
REMARK                            x       y       z     vdW  Elec       q    Type
REMARK                         _______ _______ _______ _____ _____    ______ ____
ROOT
ATOM      1  C   UNL     1      27.261  24.542  25.076  0.00  0.00    +0.000 A 
ATOM      2  C   UNL     1      26.516  23.653  25.813  0.00  0.00    +0.000 A 
ATOM      3  N   UNL     1      25.877  22.908  24.876  0.00  0.00    +0.000 NA
ATOM      4  N   UNL     1      26.230  23.339  23.671  0.00  0.00    +0.000 NA
ATOM      5  N   UNL     1      27.087  24.351  23.756  0.00  0.00    +0.000 N 
ENDROOT
BRANCH   2   6
ATOM      6  C   UNL     1      26.442  23.550  27.262  0.00  0.00    +0.000 C 
ATOM      7  O   UNL     1      25.470  24.113  27.832  0.00  0.00    +0.000 OA
ATOM      8  N   UNL     1      27.407  22.856  28.033  0.00  0.00    +0.000 N 
ATOM      9  C   UNL     1      27.248  22.814  29.433  0.00  0.00    +0.000 C 
ATOM     10  C   UNL     1      28.447  23.694  30.118  0.00  0.00    +0.000 C 
ATOM     11  C   UNL     1      28.421  24.924  29.037  0.00  0.00    +0.000 C 
ATOM     12  C   UNL     1      29.645  22.781  29.514  0.00  0.00    +0.000 C 
ATOM     13  C   UNL     1      29.772  23.187  27.946  0.00  0.00    +0.000 C 
ATOM     14  C   UNL     1      30.936  22.070  27.661  0.00  0.00    +0.000 C 
ATOM     15  C   UNL     1      28.557  22.183  27.463  0.00  0.00    +0.000 C 
ENDBRANCH   2   6
BRANCH   5  16
ATOM     16  C   UNL     1      27.698  25.088  22.707  0.00  0.00    +0.000 A 
ATOM     17  C   UNL     1      28.788  24.526  22.080  0.00  0.00    +0.000 A 
ATOM     18  C   UNL     1      29.430  25.193  21.047  0.00  0.00    +0.000 A 
ATOM     19  C   UNL     1      29.006  26.420  20.621  0.00  0.00    +0.000 A 
ATOM     20  C   UNL     1      27.918  27.002  21.234  0.00  0.00    +0.000 A 
ATOM     21  F   UNL     1      27.522  28.218  20.791  0.00  0.00    +0.000 F 
ATOM     22  C   UNL     1      27.282  26.325  22.269  0.00  0.00    +0.000 A 
ENDBRANCH   5  16
BRANCH   1  24
ATOM     23  C   UNL     1      27.422  26.850  25.973  0.00  0.00    +0.000 C 
ATOM     24  C   UNL     1      28.140  25.573  25.684  0.00  0.00    +0.000 C 
ENDBRANCH   1  24
TORSDOF 3
ENDMDL
MODEL 4
REMARK VINA RESULT:      -6.1     20.252     23.587
REMARK  Name = 
REMARK  3 active torsions:
REMARK  status: ('A' for Active; 'I' for Inactive)
REMARK    1  A    between atoms: C_2  and  C_3
REMARK    2  A    between atoms: C_4  and  C_5
REMARK    3  A    between atoms: N_17  and  C_18
REMARK                            x       y       z     vdW  Elec       q    Type
REMARK                         _______ _______ _______ _____ _____    ______ ____
ROOT
ATOM      1  C   UNL     1      20.277   9.461  38.923  0.00  0.00    +0.000 A 
ATOM      2  C   UNL     1      18.928   9.204  38.961  0.00  0.00    +0.000 A 
ATOM      3  N   UNL     1      18.519   9.417  37.685  0.00  0.00    +0.000 NA
ATOM      4  N   UNL     1      19.566   9.776  36.953  0.00  0.00    +0.000 NA
ATOM      5  N   UNL     1      20.674   9.814  37.687  0.00  0.00    +0.000 N 
ENDROOT
BRANCH   2   6
ATOM      6  C   UNL     1      18.139   8.799  40.114  0.00  0.00    +0.000 C 
ATOM      7  O   UNL     1      17.579   9.710  40.780  0.00  0.00    +0.000 OA
ATOM      8  N   UNL     1      17.986   7.445  40.503  0.00  0.00    +0.000 N 
ATOM      9  C   UNL     1      17.200   7.154  41.636  0.00  0.00    +0.000 C 
ATOM     10  C   UNL     1      18.184   6.587  42.817  0.00  0.00    +0.000 C 
ATOM     11  C   UNL     1      19.413   7.640  42.561  0.00  0.00    +0.000 C 
ATOM     12  C   UNL     1      18.695   5.306  41.962  0.00  0.00    +0.000 C 
ATOM     13  C   UNL     1      19.757   5.886  40.877  0.00  0.00    +0.000 C 
ATOM     14  C   UNL     1      19.975   4.420  40.177  0.00  0.00    +0.000 C 
ATOM     15  C   UNL     1      18.594   6.335  39.798  0.00  0.00    +0.000 C 
ENDBRANCH   2   6
BRANCH   5  16
ATOM     16  C   UNL     1      21.994  10.150  37.285  0.00  0.00    +0.000 A 
ATOM     17  C   UNL     1      22.680   9.238  36.514  0.00  0.00    +0.000 A 
ATOM     18  C   UNL     1      23.973   9.505  36.087  0.00  0.00    +0.000 A 
ATOM     19  C   UNL     1      24.603  10.672  36.416  0.00  0.00    +0.000 A 
ATOM     20  C   UNL     1      23.937  11.598  37.187  0.00  0.00    +0.000 A 
ATOM     21  F   UNL     1      24.587  12.744  37.497  0.00  0.00    +0.000 F 
ATOM     22  C   UNL     1      22.641  11.320  37.609  0.00  0.00    +0.000 A 
ENDBRANCH   5  16
BRANCH   1  24
ATOM     23  C   UNL     1      21.161  10.591  40.947  0.00  0.00    +0.000 C 
ATOM     24  C   UNL     1      21.165   9.356  40.109  0.00  0.00    +0.000 C 
ENDBRANCH   1  24
TORSDOF 3
ENDMDL
MODEL 5
REMARK VINA RESULT:      -6.1      3.395      7.135
REMARK  Name = 
REMARK  3 active torsions:
REMARK  status: ('A' for Active; 'I' for Inactive)
REMARK    1  A    between atoms: C_2  and  C_3
REMARK    2  A    between atoms: C_4  and  C_5
REMARK    3  A    between atoms: N_17  and  C_18
REMARK                            x       y       z     vdW  Elec       q    Type
REMARK                         _______ _______ _______ _____ _____    ______ ____
ROOT
ATOM      1  C   UNL     1      29.689  23.219  26.750  0.00  0.00    +0.000 A 
ATOM      2  C   UNL     1      28.433  23.761  26.626  0.00  0.00    +0.000 A 
ATOM      3  N   UNL     1      28.273  24.476  27.768  0.00  0.00    +0.000 NA
ATOM      4  N   UNL     1      29.368  24.353  28.509  0.00  0.00    +0.000 NA
ATOM      5  N   UNL     1      30.269  23.581  27.908  0.00  0.00    +0.000 N 
ENDROOT
BRANCH   2   6
ATOM      6  C   UNL     1      27.505  23.596  25.519  0.00  0.00    +0.000 C 
ATOM      7  O   UNL     1      26.848  22.522  25.471  0.00  0.00    +0.000 OA
ATOM      8  N   UNL     1      27.322  24.580  24.516  0.00  0.00    +0.000 N 
ATOM      9  C   UNL     1      26.399  24.326  23.483  0.00  0.00    +0.000 C 
ATOM     10  C   UNL     1      27.226  24.143  22.081  0.00  0.00    +0.000 C 
ATOM     11  C   UNL     1      28.461  23.266  22.703  0.00  0.00    +0.000 C 
ATOM     12  C   UNL     1      27.865  25.634  22.107  0.00  0.00    +0.000 C 
ATOM     13  C   UNL     1      29.051  25.594  23.216  0.00  0.00    +0.000 C 
ATOM     14  C   UNL     1      29.383  27.190  23.048  0.00  0.00    +0.000 C 
ATOM     15  C   UNL     1      28.035  25.841  24.490  0.00  0.00    +0.000 C 
ENDBRANCH   2   6
BRANCH   5  16
ATOM     16  C   UNL     1      31.560  23.205  28.364  0.00  0.00    +0.000 A 
ATOM     17  C   UNL     1      31.678  22.008  29.036  0.00  0.00    +0.000 A 
ATOM     18  C   UNL     1      32.911  21.581  29.507  0.00  0.00    +0.000 A 
ATOM     19  C   UNL     1      34.040  22.328  29.321  0.00  0.00    +0.000 A 
ATOM     20  C   UNL     1      33.946  23.529  28.652  0.00  0.00    +0.000 A 
ATOM     21  F   UNL     1      35.081  24.246  28.484  0.00  0.00    +0.000 F 
ATOM     22  C   UNL     1      32.705  23.947  28.185  0.00  0.00    +0.000 A 
ENDBRANCH   5  16
BRANCH   1  24
ATOM     23  C   UNL     1      31.268  23.076  24.840  0.00  0.00    +0.000 C 
ATOM     24  C   UNL     1      30.309  22.345  25.721  0.00  0.00    +0.000 C 
ENDBRANCH   1  24
TORSDOF 3
ENDMDL
MODEL 6
REMARK VINA RESULT:      -6.1      4.240      7.777
REMARK  Name = 
REMARK  3 active torsions:
REMARK  status: ('A' for Active; 'I' for Inactive)
REMARK    1  A    between atoms: C_2  and  C_3
REMARK    2  A    between atoms: C_4  and  C_5
REMARK    3  A    between atoms: N_17  and  C_18
REMARK                            x       y       z     vdW  Elec       q    Type
REMARK                         _______ _______ _______ _____ _____    ______ ____
ROOT
ATOM      1  C   UNL     1      28.805  23.709  28.291  0.00  0.00    +0.000 A 
ATOM      2  C   UNL     1      28.320  24.869  27.738  0.00  0.00    +0.000 A 
ATOM      3  N   UNL     1      29.233  25.806  28.095  0.00  0.00    +0.000 NA
ATOM      4  N   UNL     1      30.188  25.225  28.812  0.00  0.00    +0.000 NA
ATOM      5  N   UNL     1      29.956  23.924  28.953  0.00  0.00    +0.000 N 
ENDROOT
BRANCH   2   6
ATOM      6  C   UNL     1      27.106  25.033  26.954  0.00  0.00    +0.000 C 
ATOM      7  O   UNL     1      26.021  25.140  27.585  0.00  0.00    +0.000 OA
ATOM      8  N   UNL     1      27.106  25.075  25.537  0.00  0.00    +0.000 N 
ATOM      9  C   UNL     1      25.876  25.238  24.868  0.00  0.00    +0.000 C 
ATOM     10  C   UNL     1      25.533  23.850  24.069  0.00  0.00    +0.000 C 
ATOM     11  C   UNL     1      26.025  22.825  25.248  0.00  0.00    +0.000 C 
ATOM     12  C   UNL     1      26.859  23.903  23.135  0.00  0.00    +0.000 C 
ATOM     13  C   UNL     1      28.097  23.455  24.088  0.00  0.00    +0.000 C 
ATOM     14  C   UNL     1      29.208  23.702  22.910  0.00  0.00    +0.000 C 
ATOM     15  C   UNL     1      28.304  24.959  24.731  0.00  0.00    +0.000 C 
ENDBRANCH   2   6
BRANCH   5  16
ATOM     16  C   UNL     1      30.729  22.954  29.644  0.00  0.00    +0.000 A 
ATOM     17  C   UNL     1      31.794  22.390  28.977  0.00  0.00    +0.000 A 
ATOM     18  C   UNL     1      32.590  21.437  29.596  0.00  0.00    +0.000 A 
ATOM     19  C   UNL     1      32.346  21.030  30.877  0.00  0.00    +0.000 A 
ATOM     20  C   UNL     1      31.286  21.580  31.564  0.00  0.00    +0.000 A 
ATOM     21  F   UNL     1      31.069  21.157  32.830  0.00  0.00    +0.000 F 
ATOM     22  C   UNL     1      30.494  22.534  30.934  0.00  0.00    +0.000 A 
ENDBRANCH   5  16
BRANCH   1  24
ATOM     23  C   UNL     1      27.167  22.123  29.270  0.00  0.00    +0.000 C 
ATOM     24  C   UNL     1      28.127  22.393  28.160  0.00  0.00    +0.000 C 
ENDBRANCH   1  24
TORSDOF 3
ENDMDL
MODEL 7
REMARK VINA RESULT:      -5.9     20.346     23.592
REMARK  Name = 
REMARK  3 active torsions:
REMARK  status: ('A' for Active; 'I' for Inactive)
REMARK    1  A    between atoms: C_2  and  C_3
REMARK    2  A    between atoms: C_4  and  C_5
REMARK    3  A    between atoms: N_17  and  C_18
REMARK                            x       y       z     vdW  Elec       q    Type
REMARK                         _______ _______ _______ _____ _____    ______ ____
ROOT
ATOM      1  C   UNL     1      20.078   9.443  39.043  0.00  0.00    +0.000 A 
ATOM      2  C   UNL     1      20.680   9.890  37.892  0.00  0.00    +0.000 A 
ATOM      3  N   UNL     1      19.708   9.781  36.952  0.00  0.00    +0.000 NA
ATOM      4  N   UNL     1      18.611   9.299  37.522  0.00  0.00    +0.000 NA
ATOM      5  N   UNL     1      18.803   9.078  38.819  0.00  0.00    +0.000 N 
ENDROOT
BRANCH   2   6
ATOM      6  C   UNL     1      22.046  10.367  37.738  0.00  0.00    +0.000 C 
ATOM      7  O   UNL     1      22.919   9.521  37.404  0.00  0.00    +0.000 OA
ATOM      8  N   UNL     1      22.416  11.719  37.947  0.00  0.00    +0.000 N 
ATOM      9  C   UNL     1      23.766  12.082  37.772  0.00  0.00    +0.000 C 
ATOM     10  C   UNL     1      24.389  12.480  39.234  0.00  0.00    +0.000 C 
ATOM     11  C   UNL     1      23.666  11.280  40.082  0.00  0.00    +0.000 C 
ATOM     12  C   UNL     1      23.355  13.704  39.491  0.00  0.00    +0.000 C 
ATOM     13  C   UNL     1      21.939  13.017  39.895  0.00  0.00    +0.000 C 
ATOM     14  C   UNL     1      21.164  14.458  39.981  0.00  0.00    +0.000 C 
ATOM     15  C   UNL     1      21.481  12.756  38.332  0.00  0.00    +0.000 C 
ENDBRANCH   2   6
BRANCH   5  16
ATOM     16  C   UNL     1      17.887   8.569  39.778  0.00  0.00    +0.000 A 
ATOM     17  C   UNL     1      16.927   9.428  40.265  0.00  0.00    +0.000 A 
ATOM     18  C   UNL     1      16.001   8.993  41.203  0.00  0.00    +0.000 A 
ATOM     19  C   UNL     1      16.013   7.709  41.671  0.00  0.00    +0.000 A 
ATOM     20  C   UNL     1      16.965   6.833  41.198  0.00  0.00    +0.000 A 
ATOM     21  F   UNL     1      16.951   5.569  41.680  0.00  0.00    +0.000 F 
ATOM     22  C   UNL     1      17.888   7.279  40.258  0.00  0.00    +0.000 A 
ENDBRANCH   5  16
BRANCH   1  24
ATOM     23  C   UNL     1      21.531   8.111  40.551  0.00  0.00    +0.000 C 
ATOM     24  C   UNL     1      20.768   9.380  40.357  0.00  0.00    +0.000 C 
ENDBRANCH   1  24
TORSDOF 3
ENDMDL
MODEL 8
REMARK VINA RESULT:      -5.9     34.292     36.633
REMARK  Name = 
REMARK  3 active torsions:
REMARK  status: ('A' for Active; 'I' for Inactive)
REMARK    1  A    between atoms: C_2  and  C_3
REMARK    2  A    between atoms: C_4  and  C_5
REMARK    3  A    between atoms: N_17  and  C_18
REMARK                            x       y       z     vdW  Elec       q    Type
REMARK                         _______ _______ _______ _____ _____    ______ ____
ROOT
ATOM      1  C   UNL     1      18.283  -9.708  28.605  0.00  0.00    +0.000 A 
ATOM      2  C   UNL     1      17.419 -10.736  28.895  0.00  0.00    +0.000 A 
ATOM      3  N   UNL     1      16.389 -10.549  28.032  0.00  0.00    +0.000 NA
ATOM      4  N   UNL     1      16.641  -9.479  27.288  0.00  0.00    +0.000 NA
ATOM      5  N   UNL     1      17.807  -8.931  27.615  0.00  0.00    +0.000 N 
ENDROOT
BRANCH   2   6
ATOM      6  C   UNL     1      17.588 -11.774  29.900  0.00  0.00    +0.000 C 
ATOM      7  O   UNL     1      18.164 -12.836  29.541  0.00  0.00    +0.000 OA
ATOM      8  N   UNL     1      17.136 -11.633  31.235  0.00  0.00    +0.000 N 
ATOM      9  C   UNL     1      17.347 -12.697  32.134  0.00  0.00    +0.000 C 
ATOM     10  C   UNL     1      15.894 -13.349  32.516  0.00  0.00    +0.000 C 
ATOM     11  C   UNL     1      15.254 -13.283  31.010  0.00  0.00    +0.000 C 
ATOM     12  C   UNL     1      15.300 -11.984  33.162  0.00  0.00    +0.000 C 
ATOM     13  C   UNL     1      14.927 -11.020  31.908  0.00  0.00    +0.000 C 
ATOM     14  C   UNL     1      14.476  -9.782  32.882  0.00  0.00    +0.000 C 
ATOM     15  C   UNL     1      16.464 -10.450  31.733  0.00  0.00    +0.000 C 
ENDBRANCH   2   6
BRANCH   5  16
ATOM     16  C   UNL     1      18.435  -7.783  27.063  0.00  0.00    +0.000 A 
ATOM     17  C   UNL     1      17.899  -6.552  27.370  0.00  0.00    +0.000 A 
ATOM     18  C   UNL     1      18.466  -5.390  26.863  0.00  0.00    +0.000 A 
ATOM     19  C   UNL     1      19.563  -5.430  26.051  0.00  0.00    +0.000 A 
ATOM     20  C   UNL     1      20.115  -6.651  25.730  0.00  0.00    +0.000 A 
ATOM     21  F   UNL     1      21.201  -6.659  24.923  0.00  0.00    +0.000 F 
ATOM     22  C   UNL     1      19.540  -7.809  26.243  0.00  0.00    +0.000 A 
ENDBRANCH   5  16
BRANCH   1  24
ATOM     23  C   UNL     1      20.692 -10.293  28.714  0.00  0.00    +0.000 C 
ATOM     24  C   UNL     1      19.575  -9.501  29.308  0.00  0.00    +0.000 C 
ENDBRANCH   1  24
TORSDOF 3
ENDMDL
MODEL 9
REMARK VINA RESULT:      -5.7     37.722     39.739
REMARK  Name = 
REMARK  3 active torsions:
REMARK  status: ('A' for Active; 'I' for Inactive)
REMARK    1  A    between atoms: C_2  and  C_3
REMARK    2  A    between atoms: C_4  and  C_5
REMARK    3  A    between atoms: N_17  and  C_18
REMARK                            x       y       z     vdW  Elec       q    Type
REMARK                         _______ _______ _______ _____ _____    ______ ____
ROOT
ATOM      1  C   UNL     1       0.396   6.088  44.747  0.00  0.00    +0.000 A 
ATOM      2  C   UNL     1       0.913   5.721  45.966  0.00  0.00    +0.000 A 
ATOM      3  N   UNL     1      -0.112   5.929  46.830  0.00  0.00    +0.000 NA
ATOM      4  N   UNL     1      -1.158   6.389  46.154  0.00  0.00    +0.000 NA
ATOM      5  N   UNL     1      -0.880   6.500  44.859  0.00  0.00    +0.000 N 
ENDROOT
BRANCH   2   6
ATOM      6  C   UNL     1       2.252   5.227  46.244  0.00  0.00    +0.000 C 
ATOM      7  O   UNL     1       3.176   6.079  46.331  0.00  0.00    +0.000 OA
ATOM      8  N   UNL     1       2.544   3.850  46.415  0.00  0.00    +0.000 N 
ATOM      9  C   UNL     1       3.874   3.472  46.681  0.00  0.00    +0.000 C 
ATOM     10  C   UNL     1       4.450   2.652  45.385  0.00  0.00    +0.000 C 
ATOM     11  C   UNL     1       3.780   3.613  44.240  0.00  0.00    +0.000 C 
ATOM     12  C   UNL     1       3.345   1.467  45.475  0.00  0.00    +0.000 C 
ATOM     13  C   UNL     1       1.963   2.098  44.899  0.00  0.00    +0.000 C 
ATOM     14  C   UNL     1       1.108   0.736  45.213  0.00  0.00    +0.000 C 
ATOM     15  C   UNL     1       1.546   2.803  46.330  0.00  0.00    +0.000 C 
ENDBRANCH   2   6
BRANCH   5  16
ATOM     16  C   UNL     1      -1.720   6.951  43.807  0.00  0.00    +0.000 A 
ATOM     17  C   UNL     1      -2.533   6.023  43.194  0.00  0.00    +0.000 A 
ATOM     18  C   UNL     1      -3.378   6.399  42.159  0.00  0.00    +0.000 A 
ATOM     19  C   UNL     1      -3.430   7.691  41.718  0.00  0.00    +0.000 A 
ATOM     20  C   UNL     1      -2.625   8.636  42.316  0.00  0.00    +0.000 A 
ATOM     21  F   UNL     1      -2.699   9.906  41.856  0.00  0.00    +0.000 F 
ATOM     22  C   UNL     1      -1.782   8.248  43.351  0.00  0.00    +0.000 A 
ENDBRANCH   5  16
BRANCH   1  24
ATOM     23  C   UNL     1       1.873   7.307  43.169  0.00  0.00    +0.000 C 
ATOM     24  C   UNL     1       1.167   6.029  43.479  0.00  0.00    +0.000 C 
ENDBRANCH   1  24
TORSDOF 3
ENDMDL
MODEL 10
REMARK VINA RESULT:      -5.7     20.887     24.292
REMARK  Name = 
REMARK  3 active torsions:
REMARK  status: ('A' for Active; 'I' for Inactive)
REMARK    1  A    between atoms: C_2  and  C_3
REMARK    2  A    between atoms: C_4  and  C_5
REMARK    3  A    between atoms: N_17  and  C_18
REMARK                            x       y       z     vdW  Elec       q    Type
REMARK                         _______ _______ _______ _____ _____    ______ ____
ROOT
ATOM      1  C   UNL     1      20.157   8.790  39.484  0.00  0.00    +0.000 A 
ATOM      2  C   UNL     1      18.836   8.539  39.771  0.00  0.00    +0.000 A 
ATOM      3  N   UNL     1      18.160   9.407  38.978  0.00  0.00    +0.000 NA
ATOM      4  N   UNL     1      19.034  10.119  38.276  0.00  0.00    +0.000 NA
ATOM      5  N   UNL     1      20.282   9.763  38.564  0.00  0.00    +0.000 N 
ENDROOT
BRANCH   2   6
ATOM      6  C   UNL     1      18.307   7.563  40.710  0.00  0.00    +0.000 C 
ATOM      7  O   UNL     1      18.116   6.393  40.282  0.00  0.00    +0.000 OA
ATOM      8  N   UNL     1      18.007   7.878  42.059  0.00  0.00    +0.000 N 
ATOM      9  C   UNL     1      17.498   6.861  42.891  0.00  0.00    +0.000 C 
ATOM     10  C   UNL     1      15.942   7.221  43.257  0.00  0.00    +0.000 C 
ATOM     11  C   UNL     1      15.515   7.751  41.767  0.00  0.00    +0.000 C 
ATOM     12  C   UNL     1      16.299   8.624  43.991  0.00  0.00    +0.000 C 
ATOM     13  C   UNL     1      16.627   9.681  42.802  0.00  0.00    +0.000 C 
ATOM     14  C   UNL     1      17.012  10.878  43.852  0.00  0.00    +0.000 C 
ATOM     15  C   UNL     1      18.194   9.194  42.635  0.00  0.00    +0.000 C 
ENDBRANCH   2   6
BRANCH   5  16
ATOM     16  C   UNL     1      21.496  10.278  38.036  0.00  0.00    +0.000 A 
ATOM     17  C   UNL     1      22.068  11.353  38.678  0.00  0.00    +0.000 A 
ATOM     18  C   UNL     1      23.255  11.903  38.214  0.00  0.00    +0.000 A 
ATOM     19  C   UNL     1      23.888  11.400  37.113  0.00  0.00    +0.000 A 
ATOM     20  C   UNL     1      23.334  10.325  36.454  0.00  0.00    +0.000 A 
ATOM     21  F   UNL     1      23.984   9.850  35.367  0.00  0.00    +0.000 F 
ATOM     22  C   UNL     1      22.144   9.782  36.928  0.00  0.00    +0.000 A 
ENDBRANCH   5  16
BRANCH   1  24
ATOM     23  C   UNL     1      21.753   8.716  41.383  0.00  0.00    +0.000 C 
ATOM     24  C   UNL     1      21.285   8.066  40.123  0.00  0.00    +0.000 C 
ENDBRANCH   1  24
TORSDOF 3
ENDMDL
