MODEL 1
REMARK VINA RESULT:      -7.6      0.000      0.000
REMARK  Name = 
REMARK  2 active torsions:
REMARK  status: ('A' for Active; 'I' for Inactive)
REMARK    1  A    between atoms: C_6  and  N_7
REMARK    2  A    between atoms: N_14  and  C_15
REMARK                            x       y       z     vdW  Elec       q    Type
REMARK                         _______ _______ _______ _____ _____    ______ ____
ROOT
ATOM      1  N   UNL     1      17.114  10.247  33.206  0.00  0.00    +0.000 NA
ATOM      2  C   UNL     1      16.967  10.392  34.603  0.00  0.00    +0.000 A 
ATOM      3  N   UNL     1      16.003  11.170  35.103  0.00  0.00    +0.000 NA
ATOM      4  C   UNL     1      15.852  11.315  36.425  0.00  0.00    +0.000 A 
ATOM      5 CL   UNL     1      14.548  12.365  36.965  0.00  0.00    +0.000 Cl
ATOM      6  N   UNL     1      16.669  10.680  37.261  0.00  0.00    +0.000 NA
ATOM      7  C   UNL     1      17.640   9.895  36.767  0.00  0.00    +0.000 A 
ATOM      8  N   UNL     1      18.547   9.190  37.643  0.00  0.00    +0.000 NA
ATOM      9  N   UNL     1      17.790   9.751  35.444  0.00  0.00    +0.000 NA
ENDROOT
BRANCH   1  15
ATOM     10  C   UNL     1      16.007  14.128  30.320  0.00  0.00    +0.000 C 
ATOM     11  C   UNL     1      15.711  12.803  30.921  0.00  0.00    +0.000 A 
ATOM     12  C   UNL     1      14.511  12.215  30.576  0.00  0.00    +0.000 A 
ATOM     13  C   UNL     1      14.173  10.985  31.096  0.00  0.00    +0.000 A 
ATOM     14  C   UNL     1      15.040  10.346  31.964  0.00  0.00    +0.000 A 
ATOM     15  C   UNL     1      16.241  10.926  32.313  0.00  0.00    +0.000 A 
ATOM     16  C   UNL     1      16.549  12.154  31.776  0.00  0.00    +0.000 A 
ENDBRANCH   1  15
BRANCH   8  17
ATOM     17  C   UNL     1      18.376   9.353  39.044  0.00  0.00    +0.000 C 
ATOM     18  C   UNL     1      19.248  10.374  39.683  0.00  0.00    +0.000 C 
ATOM     19  C   UNL     1      18.187   8.100  39.819  0.00  0.00    +0.000 C 
ENDBRANCH   8  17
TORSDOF 2
ENDMDL
MODEL 2
REMARK VINA RESULT:      -6.6     20.718     23.938
REMARK  Name = 
REMARK  2 active torsions:
REMARK  status: ('A' for Active; 'I' for Inactive)
REMARK    1  A    between atoms: C_6  and  N_7
REMARK    2  A    between atoms: N_14  and  C_15
REMARK                            x       y       z     vdW  Elec       q    Type
REMARK                         _______ _______ _______ _____ _____    ______ ____
ROOT
ATOM      1  N   UNL     1      28.984  23.573  22.030  0.00  0.00    +0.000 NA
ATOM      2  C   UNL     1      29.188  24.916  21.644  0.00  0.00    +0.000 A 
ATOM      3  N   UNL     1      28.994  25.906  22.519  0.00  0.00    +0.000 NA
ATOM      4  C   UNL     1      29.184  27.183  22.168  0.00  0.00    +0.000 A 
ATOM      5 CL   UNL     1      28.896  28.400  23.405  0.00  0.00    +0.000 Cl
ATOM      6  N   UNL     1      29.573  27.481  20.931  0.00  0.00    +0.000 NA
ATOM      7  C   UNL     1      29.772  26.491  20.045  0.00  0.00    +0.000 A 
ATOM      8  N   UNL     1      30.194  26.775  18.692  0.00  0.00    +0.000 NA
ATOM      9  N   UNL     1      29.580  25.214  20.398  0.00  0.00    +0.000 NA
ENDROOT
BRANCH   1  15
ATOM     10  C   UNL     1      29.981  22.164  26.682  0.00  0.00    +0.000 C 
ATOM     11  C   UNL     1      29.054  22.575  25.597  0.00  0.00    +0.000 A 
ATOM     12  C   UNL     1      27.714  22.647  25.915  0.00  0.00    +0.000 A 
ATOM     13  C   UNL     1      26.798  23.022  24.956  0.00  0.00    +0.000 A 
ATOM     14  C   UNL     1      27.230  23.325  23.677  0.00  0.00    +0.000 A 
ATOM     15  C   UNL     1      28.568  23.255  23.352  0.00  0.00    +0.000 A 
ATOM     16  C   UNL     1      29.456  22.878  24.331  0.00  0.00    +0.000 A 
ENDBRANCH   1  15
BRANCH   8  17
ATOM     17  C   UNL     1      30.393  28.135  18.332  0.00  0.00    +0.000 C 
ATOM     18  C   UNL     1      29.356  28.722  17.442  0.00  0.00    +0.000 C 
ATOM     19  C   UNL     1      31.793  28.520  18.018  0.00  0.00    +0.000 C 
ENDBRANCH   8  17
TORSDOF 2
ENDMDL
MODEL 3
REMARK VINA RESULT:      -5.7      3.845      5.670
REMARK  Name = 
REMARK  2 active torsions:
REMARK  status: ('A' for Active; 'I' for Inactive)
REMARK    1  A    between atoms: C_6  and  N_7
REMARK    2  A    between atoms: N_14  and  C_15
REMARK                            x       y       z     vdW  Elec       q    Type
REMARK                         _______ _______ _______ _____ _____    ______ ____
ROOT
ATOM      1  N   UNL     1      18.178  10.447  37.042  0.00  0.00    +0.000 NA
ATOM      2  C   UNL     1      19.288  11.164  37.539  0.00  0.00    +0.000 A 
ATOM      3  N   UNL     1      19.136  12.411  37.994  0.00  0.00    +0.000 NA
ATOM      4  C   UNL     1      20.179  13.103  38.468  0.00  0.00    +0.000 A 
ATOM      5 CL   UNL     1      19.858  14.735  39.038  0.00  0.00    +0.000 Cl
ATOM      6  N   UNL     1      21.388  12.549  38.491  0.00  0.00    +0.000 NA
ATOM      7  C   UNL     1      21.549  11.295  38.037  0.00  0.00    +0.000 A 
ATOM      8  N   UNL     1      22.847  10.659  38.046  0.00  0.00    +0.000 NA
ATOM      9  N   UNL     1      20.505  10.605  37.562  0.00  0.00    +0.000 NA
ENDROOT
BRANCH   1  15
ATOM     10  C   UNL     1      13.580  10.933  38.845  0.00  0.00    +0.000 C 
ATOM     11  C   UNL     1      14.667  11.271  37.890  0.00  0.00    +0.000 A 
ATOM     12  C   UNL     1      14.382  12.222  36.932  0.00  0.00    +0.000 A 
ATOM     13  C   UNL     1      15.345  12.583  36.015  0.00  0.00    +0.000 A 
ATOM     14  C   UNL     1      16.593  11.990  36.061  0.00  0.00    +0.000 A 
ATOM     15  C   UNL     1      16.886  11.040  37.016  0.00  0.00    +0.000 A 
ATOM     16  C   UNL     1      15.904  10.701  37.917  0.00  0.00    +0.000 A 
ENDBRANCH   1  15
BRANCH   8  17
ATOM     17  C   UNL     1      23.946  11.404  38.552  0.00  0.00    +0.000 C 
ATOM     18  C   UNL     1      24.860  11.978  37.528  0.00  0.00    +0.000 C 
ATOM     19  C   UNL     1      24.611  10.835  39.752  0.00  0.00    +0.000 C 
ENDBRANCH   8  17
TORSDOF 2
ENDMDL
MODEL 4
REMARK VINA RESULT:      -5.6      5.854      7.398
REMARK  Name = 
REMARK  2 active torsions:
REMARK  status: ('A' for Active; 'I' for Inactive)
REMARK    1  A    between atoms: C_6  and  N_7
REMARK    2  A    between atoms: N_14  and  C_15
REMARK                            x       y       z     vdW  Elec       q    Type
REMARK                         _______ _______ _______ _____ _____    ______ ____
ROOT
ATOM      1  N   UNL     1      22.359   9.292  39.171  0.00  0.00    +0.000 NA
ATOM      2  C   UNL     1      20.975   9.533  39.314  0.00  0.00    +0.000 A 
ATOM      3  N   UNL     1      20.343  10.361  38.477  0.00  0.00    +0.000 NA
ATOM      4  C   UNL     1      19.032  10.597  38.601  0.00  0.00    +0.000 A 
ATOM      5 CL   UNL     1      18.311  11.706  37.441  0.00  0.00    +0.000 Cl
ATOM      6  N   UNL     1      18.339  10.003  39.568  0.00  0.00    +0.000 NA
ATOM      7  C   UNL     1      18.965   9.168  40.413  0.00  0.00    +0.000 A 
ATOM      8  N   UNL     1      18.245   8.505  41.477  0.00  0.00    +0.000 NA
ATOM      9  N   UNL     1      20.277   8.934  40.289  0.00  0.00    +0.000 NA
ENDROOT
BRANCH   1  15
ATOM     10  C   UNL     1      25.017  13.109  37.443  0.00  0.00    +0.000 C 
ATOM     11  C   UNL     1      24.383  11.773  37.307  0.00  0.00    +0.000 A 
ATOM     12  C   UNL     1      24.537  11.129  36.097  0.00  0.00    +0.000 A 
ATOM     13  C   UNL     1      23.974   9.887  35.903  0.00  0.00    +0.000 A 
ATOM     14  C   UNL     1      23.258   9.291  36.925  0.00  0.00    +0.000 A 
ATOM     15  C   UNL     1      23.100   9.928  38.137  0.00  0.00    +0.000 A 
ATOM     16  C   UNL     1      23.673  11.166  38.299  0.00  0.00    +0.000 A 
ENDBRANCH   1  15
BRANCH   8  17
ATOM     17  C   UNL     1      16.854   8.765  41.597  0.00  0.00    +0.000 C 
ATOM     18  C   UNL     1      16.472   9.752  42.642  0.00  0.00    +0.000 C 
ATOM     19  C   UNL     1      15.966   7.579  41.486  0.00  0.00    +0.000 C 
ENDBRANCH   8  17
TORSDOF 2
ENDMDL
MODEL 5
REMARK VINA RESULT:      -5.5     23.618     26.421
REMARK  Name = 
REMARK  2 active torsions:
REMARK  status: ('A' for Active; 'I' for Inactive)
REMARK    1  A    between atoms: C_6  and  N_7
REMARK    2  A    between atoms: N_14  and  C_15
REMARK                            x       y       z     vdW  Elec       q    Type
REMARK                         _______ _______ _______ _____ _____    ______ ____
ROOT
ATOM      1  N   UNL     1      30.237  27.118  17.612  0.00  0.00    +0.000 NA
ATOM      2  C   UNL     1      29.862  26.978  18.967  0.00  0.00    +0.000 A 
ATOM      3  N   UNL     1      29.537  28.053  19.691  0.00  0.00    +0.000 NA
ATOM      4  C   UNL     1      29.179  27.936  20.975  0.00  0.00    +0.000 A 
ATOM      5 CL   UNL     1      28.773  29.421  21.826  0.00  0.00    +0.000 Cl
ATOM      6  N   UNL     1      29.144  26.736  21.547  0.00  0.00    +0.000 NA
ATOM      7  C   UNL     1      29.468  25.650  20.827  0.00  0.00    +0.000 A 
ATOM      8  N   UNL     1      29.442  24.330  21.414  0.00  0.00    +0.000 NA
ATOM      9  N   UNL     1      29.827  25.769  19.542  0.00  0.00    +0.000 NA
ENDROOT
BRANCH   1  15
ATOM     10  C   UNL     1      32.537  31.408  16.648  0.00  0.00    +0.000 C 
ATOM     11  C   UNL     1      31.390  30.470  16.538  0.00  0.00    +0.000 A 
ATOM     12  C   UNL     1      30.309  30.892  15.792  0.00  0.00    +0.000 A 
ATOM     13  C   UNL     1      29.211  30.072  15.648  0.00  0.00    +0.000 A 
ATOM     14  C   UNL     1      29.199  28.829  16.254  0.00  0.00    +0.000 A 
ATOM     15  C   UNL     1      30.276  28.401  17.001  0.00  0.00    +0.000 A 
ATOM     16  C   UNL     1      31.356  29.242  17.125  0.00  0.00    +0.000 A 
ENDBRANCH   1  15
BRANCH   8  17
ATOM     17  C   UNL     1      29.061  24.219  22.778  0.00  0.00    +0.000 C 
ATOM     18  C   UNL     1      30.130  23.772  23.710  0.00  0.00    +0.000 C 
ATOM     19  C   UNL     1      27.716  23.638  23.025  0.00  0.00    +0.000 C 
ENDBRANCH   8  17
TORSDOF 2
ENDMDL
MODEL 6
REMARK VINA RESULT:      -5.5      6.569      7.589
REMARK  Name = 
REMARK  2 active torsions:
REMARK  status: ('A' for Active; 'I' for Inactive)
REMARK    1  A    between atoms: C_6  and  N_7
REMARK    2  A    between atoms: N_14  and  C_15
REMARK                            x       y       z     vdW  Elec       q    Type
REMARK                         _______ _______ _______ _____ _____    ______ ____
ROOT
ATOM      1  N   UNL     1      20.609  10.730  37.678  0.00  0.00    +0.000 NA
ATOM      2  C   UNL     1      20.136  10.060  38.828  0.00  0.00    +0.000 A 
ATOM      3  N   UNL     1      20.973   9.338  39.579  0.00  0.00    +0.000 NA
ATOM      4  C   UNL     1      20.539   8.698  40.671  0.00  0.00    +0.000 A 
ATOM      5 CL   UNL     1      21.731   7.778  41.581  0.00  0.00    +0.000 Cl
ATOM      6  N   UNL     1      19.258   8.776  41.022  0.00  0.00    +0.000 NA
ATOM      7  C   UNL     1      18.411   9.501  40.274  0.00  0.00    +0.000 A 
ATOM      8  N   UNL     1      17.013   9.609  40.623  0.00  0.00    +0.000 NA
ATOM      9  N   UNL     1      18.847  10.140  39.180  0.00  0.00    +0.000 NA
ENDROOT
BRANCH   1  15
ATOM     10  C   UNL     1      25.272  12.419  37.834  0.00  0.00    +0.000 C 
ATOM     11  C   UNL     1      24.228  11.464  37.382  0.00  0.00    +0.000 A 
ATOM     12  C   UNL     1      24.635  10.442  36.549  0.00  0.00    +0.000 A 
ATOM     13  C   UNL     1      23.718   9.521  36.092  0.00  0.00    +0.000 A 
ATOM     14  C   UNL     1      22.393   9.627  36.472  0.00  0.00    +0.000 A 
ATOM     15  C   UNL     1      21.978  10.645  37.303  0.00  0.00    +0.000 A 
ATOM     16  C   UNL     1      22.917  11.548  37.742  0.00  0.00    +0.000 A 
ENDBRANCH   1  15
BRANCH   8  17
ATOM     17  C   UNL     1      16.565   8.925  41.784  0.00  0.00    +0.000 C 
ATOM     18  C   UNL     1      15.535   7.877  41.556  0.00  0.00    +0.000 C 
ATOM     19  C   UNL     1      16.358   9.770  42.989  0.00  0.00    +0.000 C 
ENDBRANCH   8  17
TORSDOF 2
ENDMDL
MODEL 7
REMARK VINA RESULT:      -5.4     20.896     22.239
REMARK  Name = 
REMARK  2 active torsions:
REMARK  status: ('A' for Active; 'I' for Inactive)
REMARK    1  A    between atoms: C_6  and  N_7
REMARK    2  A    between atoms: N_14  and  C_15
REMARK                            x       y       z     vdW  Elec       q    Type
REMARK                         _______ _______ _______ _____ _____    ______ ____
ROOT
ATOM      1  N   UNL     1      17.732  -8.645  27.603  0.00  0.00    +0.000 NA
ATOM      2  C   UNL     1      16.634  -9.226  26.930  0.00  0.00    +0.000 A 
ATOM      3  N   UNL     1      16.235  -8.743  25.750  0.00  0.00    +0.000 NA
ATOM      4  C   UNL     1      15.197  -9.284  25.100  0.00  0.00    +0.000 A 
ATOM      5 CL   UNL     1      14.763  -8.563  23.556  0.00  0.00    +0.000 Cl
ATOM      6  N   UNL     1      14.548 -10.318  25.629  0.00  0.00    +0.000 NA
ATOM      7  C   UNL     1      14.944 -10.810  26.814  0.00  0.00    +0.000 A 
ATOM      8  N   UNL     1      14.265 -11.932  27.421  0.00  0.00    +0.000 NA
ATOM      9  N   UNL     1      15.982 -10.267  27.463  0.00  0.00    +0.000 NA
ENDROOT
BRANCH   1  15
ATOM     10  C   UNL     1      21.504  -6.750  24.995  0.00  0.00    +0.000 C 
ATOM     11  C   UNL     1      20.247  -6.629  25.778  0.00  0.00    +0.000 A 
ATOM     12  C   UNL     1      19.741  -5.358  25.952  0.00  0.00    +0.000 A 
ATOM     13  C   UNL     1      18.578  -5.173  26.667  0.00  0.00    +0.000 A 
ATOM     14  C   UNL     1      17.924  -6.266  27.207  0.00  0.00    +0.000 A 
ATOM     15  C   UNL     1      18.424  -7.539  27.037  0.00  0.00    +0.000 A 
ATOM     16  C   UNL     1      19.586  -7.690  26.318  0.00  0.00    +0.000 A 
ENDBRANCH   1  15
BRANCH   8  17
ATOM     17  C   UNL     1      13.165 -12.497  26.721  0.00  0.00    +0.000 C 
ATOM     18  C   UNL     1      11.823 -12.217  27.299  0.00  0.00    +0.000 C 
ATOM     19  C   UNL     1      13.365 -13.880  26.216  0.00  0.00    +0.000 C 
ENDBRANCH   8  17
TORSDOF 2
ENDMDL
MODEL 8
REMARK VINA RESULT:      -5.4     19.513     21.265
REMARK  Name = 
REMARK  2 active torsions:
REMARK  status: ('A' for Active; 'I' for Inactive)
REMARK    1  A    between atoms: C_6  and  N_7
REMARK    2  A    between atoms: N_14  and  C_15
REMARK                            x       y       z     vdW  Elec       q    Type
REMARK                         _______ _______ _______ _____ _____    ______ ____
ROOT
ATOM      1  N   UNL     1      23.081   2.057  16.136  0.00  0.00    +0.000 NA
ATOM      2  C   UNL     1      21.702   1.979  16.430  0.00  0.00    +0.000 A 
ATOM      3  N   UNL     1      21.179   2.721  17.411  0.00  0.00    +0.000 NA
ATOM      4  C   UNL     1      19.874   2.657  17.700  0.00  0.00    +0.000 A 
ATOM      5 CL   UNL     1      19.300   3.679  19.012  0.00  0.00    +0.000 Cl
ATOM      6  N   UNL     1      19.078   1.848  17.007  0.00  0.00    +0.000 NA
ATOM      7  C   UNL     1      19.595   1.101  16.018  0.00  0.00    +0.000 A 
ATOM      8  N   UNL     1      18.763   0.210  15.243  0.00  0.00    +0.000 NA
ATOM      9  N   UNL     1      20.902   1.164  15.730  0.00  0.00    +0.000 NA
ENDROOT
BRANCH   1  15
ATOM     10  C   UNL     1      25.919   6.112  16.489  0.00  0.00    +0.000 C 
ATOM     11  C   UNL     1      25.301   4.880  17.044  0.00  0.00    +0.000 A 
ATOM     12  C   UNL     1      25.583   4.579  18.361  0.00  0.00    +0.000 A 
ATOM     13  C   UNL     1      25.041   3.452  18.938  0.00  0.00    +0.000 A 
ATOM     14  C   UNL     1      24.218   2.627  18.194  0.00  0.00    +0.000 A 
ATOM     15  C   UNL     1      23.932   2.921  16.878  0.00  0.00    +0.000 A 
ATOM     16  C   UNL     1      24.486   4.054  16.330  0.00  0.00    +0.000 A 
ENDBRANCH   1  15
BRANCH   8  17
ATOM     17  C   UNL     1      17.379   0.152  15.560  0.00  0.00    +0.000 C 
ATOM     18  C   UNL     1      16.887  -1.162  16.053  0.00  0.00    +0.000 C 
ATOM     19  C   UNL     1      16.473   0.860  14.620  0.00  0.00    +0.000 C 
ENDBRANCH   8  17
TORSDOF 2
ENDMDL
MODEL 9
REMARK VINA RESULT:      -5.4     21.308     22.539
REMARK  Name = 
REMARK  2 active torsions:
REMARK  status: ('A' for Active; 'I' for Inactive)
REMARK    1  A    between atoms: C_6  and  N_7
REMARK    2  A    between atoms: N_14  and  C_15
REMARK                            x       y       z     vdW  Elec       q    Type
REMARK                         _______ _______ _______ _____ _____    ______ ____
ROOT
ATOM      1  N   UNL     1      21.264  -6.488  24.801  0.00  0.00    +0.000 NA
ATOM      2  C   UNL     1      22.176  -7.565  24.858  0.00  0.00    +0.000 A 
ATOM      3  N   UNL     1      21.982  -8.568  25.720  0.00  0.00    +0.000 NA
ATOM      4  C   UNL     1      22.837  -9.595  25.785  0.00  0.00    +0.000 A 
ATOM      5 CL   UNL     1      22.478 -10.856  26.957  0.00  0.00    +0.000 Cl
ATOM      6  N   UNL     1      23.899  -9.627  24.984  0.00  0.00    +0.000 NA
ATOM      7  C   UNL     1      24.101  -8.624  24.114  0.00  0.00    +0.000 A 
ATOM      8  N   UNL     1      25.242  -8.623  23.228  0.00  0.00    +0.000 NA
ATOM      9  N   UNL     1      23.244  -7.596  24.051  0.00  0.00    +0.000 NA
ENDROOT
BRANCH   1  15
ATOM     10  C   UNL     1      17.763  -8.774  27.471  0.00  0.00    +0.000 C 
ATOM     11  C   UNL     1      18.442  -7.562  26.946  0.00  0.00    +0.000 A 
ATOM     12  C   UNL     1      17.923  -6.342  27.328  0.00  0.00    +0.000 A 
ATOM     13  C   UNL     1      18.505  -5.177  26.877  0.00  0.00    +0.000 A 
ATOM     14  C   UNL     1      19.607  -5.238  26.043  0.00  0.00    +0.000 A 
ATOM     15  C   UNL     1      20.130  -6.454  25.658  0.00  0.00    +0.000 A 
ATOM     16  C   UNL     1      19.528  -7.598  26.125  0.00  0.00    +0.000 A 
ENDBRANCH   1  15
BRANCH   8  17
ATOM     17  C   UNL     1      26.142  -9.719  23.307  0.00  0.00    +0.000 C 
ATOM     18  C   UNL     1      27.423  -9.450  24.013  0.00  0.00    +0.000 C 
ATOM     19  C   UNL     1      26.254 -10.550  22.080  0.00  0.00    +0.000 C 
ENDBRANCH   8  17
TORSDOF 2
ENDMDL
MODEL 10
REMARK VINA RESULT:      -5.3     20.981     22.260
REMARK  Name = 
REMARK  2 active torsions:
REMARK  status: ('A' for Active; 'I' for Inactive)
REMARK    1  A    between atoms: C_6  and  N_7
REMARK    2  A    between atoms: N_14  and  C_15
REMARK                            x       y       z     vdW  Elec       q    Type
REMARK                         _______ _______ _______ _____ _____    ______ ____
ROOT
ATOM      1  N   UNL     1      18.563  -7.388  26.397  0.00  0.00    +0.000 NA
ATOM      2  C   UNL     1      17.469  -8.061  25.810  0.00  0.00    +0.000 A 
ATOM      3  N   UNL     1      17.673  -8.979  24.860  0.00  0.00    +0.000 NA
ATOM      4  C   UNL     1      16.646  -9.625  24.296  0.00  0.00    +0.000 A 
ATOM      5 CL   UNL     1      17.037 -10.810  23.057  0.00  0.00    +0.000 Cl
ATOM      6  N   UNL     1      15.401  -9.358  24.680  0.00  0.00    +0.000 NA
ATOM      7  C   UNL     1      15.187  -8.438  25.635  0.00  0.00    +0.000 A 
ATOM      8  N   UNL     1      13.849  -8.120  26.079  0.00  0.00    +0.000 NA
ATOM      9  N   UNL     1      16.216  -7.791  26.198  0.00  0.00    +0.000 NA
ENDROOT
BRANCH   1  15
ATOM     10  C   UNL     1      22.738  -6.152  24.018  0.00  0.00    +0.000 C 
ATOM     11  C   UNL     1      21.907  -7.073  24.836  0.00  0.00    +0.000 A 
ATOM     12  C   UNL     1      22.484  -8.270  25.206  0.00  0.00    +0.000 A 
ATOM     13  C   UNL     1      21.769  -9.171  25.966  0.00  0.00    +0.000 A 
ATOM     14  C   UNL     1      20.476  -8.868  26.352  0.00  0.00    +0.000 A 
ATOM     15  C   UNL     1      19.893  -7.674  25.986  0.00  0.00    +0.000 A 
ATOM     16  C   UNL     1      20.633  -6.796  25.229  0.00  0.00    +0.000 A 
ENDBRANCH   1  15
BRANCH   8  17
ATOM     17  C   UNL     1      12.768  -8.814  25.472  0.00  0.00    +0.000 C 
ATOM     18  C   UNL     1      12.104  -8.108  24.344  0.00  0.00    +0.000 C 
ATOM     19  C   UNL     1      11.855  -9.525  26.404  0.00  0.00    +0.000 C 
ENDBRANCH   8  17
TORSDOF 2
ENDMDL
