MODEL 1
REMARK VINA RESULT:      -7.8      0.000      0.000
REMARK  Name = 
REMARK  7 active torsions:
REMARK  status: ('A' for Active; 'I' for Inactive)
REMARK    1  A    between atoms: C_2  and  O_3
REMARK    2  A    between atoms: O_3  and  C_4
REMARK    3  A    between atoms: C_7  and  N_8
REMARK    4  A    between atoms: N_8  and  C_9
REMARK    5  A    between atoms: C_10  and  S_11
REMARK    6  A    between atoms: S_11  and  C_12
REMARK    7  A    between atoms: N_20  and  C_21
REMARK                            x       y       z     vdW  Elec       q    Type
REMARK                         _______ _______ _______ _____ _____    ______ ____
ROOT
ATOM      1  C   UNL     1      37.078   5.838  14.800  0.00  0.00    +0.000 C 
ATOM      2  C   UNL     1      38.005   5.720  15.732  0.00  0.00    +0.000 C 
ATOM      3  C   UNL     1      37.873   4.376  16.292  0.00  0.00    +0.000 C 
ATOM      4  O   UNL     1      38.585   3.903  17.200  0.00  0.00    +0.000 OA
ATOM      5  N   UNL     1      36.802   3.689  15.635  0.00  0.00    +0.000 N 
ATOM      6  C   UNL     1      36.298   4.619  14.690  0.00  0.00    +0.000 C 
ATOM      7  O   UNL     1      35.333   4.354  13.918  0.00  0.00    +0.000 OA
ENDROOT
BRANCH   5   8
ATOM      8  C   UNL     1      36.345   2.350  15.878  0.00  0.00    +0.000 A 
ATOM      9  C   UNL     1      35.273   2.154  16.692  0.00  0.00    +0.000 A 
ATOM     10  C   UNL     1      34.792   0.904  16.961  0.00  0.00    +0.000 A 
ATOM     11  C   UNL     1      35.408  -0.204  16.394  0.00  0.00    +0.000 A 
ATOM     12  C   UNL     1      34.942  -1.589  16.639  0.00  0.00    +0.000 C 
ATOM     13  C   UNL     1      36.497   0.008  15.570  0.00  0.00    +0.000 A 
ATOM     14  C   UNL     1      36.969   1.269  15.307  0.00  0.00    +0.000 A 
ATOM     15  C   UNL     1      38.133   1.512  14.421  0.00  0.00    +0.000 C 
ENDBRANCH   5   8
BRANCH   1  16
ATOM     16  N   UNL     1      36.846   6.996  13.983  0.00  0.00    +0.000 NA
BRANCH  16  20
ATOM     17  C   UNL     1      34.295   9.947  15.678  0.00  0.00    +0.000 A 
ATOM     18  C   UNL     1      35.666  10.063  15.689  0.00  0.00    +0.000 A 
ATOM     19  C   UNL     1      36.514   9.121  15.146  0.00  0.00    +0.000 A 
ATOM     20  C   UNL     1      35.990   8.006  14.560  0.00  0.00    +0.000 A 
ATOM     21  C   UNL     1      34.606   7.866  14.537  0.00  0.00    +0.000 A 
ATOM     22  C   UNL     1      33.760   8.809  15.081  0.00  0.00    +0.000 A 
BRANCH  17  23
ATOM     23  O   UNL     1      33.444  10.893  16.224  0.00  0.00    +0.000 OA
BRANCH  23  25
ATOM     24  C   UNL     1      32.358  10.177  18.261  0.00  0.00    +0.000 C 
ATOM     25  C   UNL     1      33.423  11.043  17.612  0.00  0.00    +0.000 C 
ENDBRANCH  23  25
ENDBRANCH  17  23
ENDBRANCH  16  20
ENDBRANCH   1  16
BRANCH   2  26
ATOM     26  S   UNL     1      39.205   6.974  16.209  0.00  0.00    +0.000 S 
BRANCH  26  27
ATOM     27  C   UNL     1      38.997   7.396  17.928  0.00  0.00    +0.000 A 
ATOM     28  C   UNL     1      37.993   8.202  18.413  0.00  0.00    +0.000 A 
ATOM     29  C   UNL     1      37.852   8.515  19.750  0.00  0.00    +0.000 A 
ATOM     30  C   UNL     1      38.758   7.996  20.641  0.00  0.00    +0.000 A 
ATOM     31  C   UNL     1      39.790   7.179  20.212  0.00  0.00    +0.000 A 
ATOM     32  C   UNL     1      39.897   6.891  18.870  0.00  0.00    +0.000 A 
ENDBRANCH  26  27
ENDBRANCH   2  26
TORSDOF 7
ENDMDL
MODEL 2
REMARK VINA RESULT:      -7.7      3.158      8.968
REMARK  Name = 
REMARK  7 active torsions:
REMARK  status: ('A' for Active; 'I' for Inactive)
REMARK    1  A    between atoms: C_2  and  O_3
REMARK    2  A    between atoms: O_3  and  C_4
REMARK    3  A    between atoms: C_7  and  N_8
REMARK    4  A    between atoms: N_8  and  C_9
REMARK    5  A    between atoms: C_10  and  S_11
REMARK    6  A    between atoms: S_11  and  C_12
REMARK    7  A    between atoms: N_20  and  C_21
REMARK                            x       y       z     vdW  Elec       q    Type
REMARK                         _______ _______ _______ _____ _____    ______ ____
ROOT
ATOM      1  C   UNL     1      37.149   2.414  14.792  0.00  0.00    +0.000 C 
ATOM      2  C   UNL     1      38.312   2.611  14.201  0.00  0.00    +0.000 C 
ATOM      3  C   UNL     1      38.972   3.701  14.919  0.00  0.00    +0.000 C 
ATOM      4  O   UNL     1      40.096   4.164  14.644  0.00  0.00    +0.000 OA
ATOM      5  N   UNL     1      38.127   4.150  15.985  0.00  0.00    +0.000 N 
ATOM      6  C   UNL     1      36.970   3.332  15.901  0.00  0.00    +0.000 C 
ATOM      7  O   UNL     1      35.994   3.446  16.696  0.00  0.00    +0.000 OA
ENDROOT
BRANCH   5   8
ATOM      8  C   UNL     1      38.398   5.194  16.932  0.00  0.00    +0.000 A 
ATOM      9  C   UNL     1      38.953   4.871  18.132  0.00  0.00    +0.000 A 
ATOM     10  C   UNL     1      39.233   5.821  19.072  0.00  0.00    +0.000 A 
ATOM     11  C   UNL     1      38.948   7.153  18.809  0.00  0.00    +0.000 A 
ATOM     12  C   UNL     1      39.226   8.237  19.780  0.00  0.00    +0.000 C 
ATOM     13  C   UNL     1      38.384   7.468  17.587  0.00  0.00    +0.000 A 
ATOM     14  C   UNL     1      38.108   6.506  16.650  0.00  0.00    +0.000 A 
ATOM     15  C   UNL     1      37.507   6.828  15.333  0.00  0.00    +0.000 C 
ENDBRANCH   5   8
BRANCH   1  16
ATOM     16  N   UNL     1      36.170   1.430  14.420  0.00  0.00    +0.000 NA
BRANCH  16  20
ATOM     17  C   UNL     1      36.402  -2.283  16.482  0.00  0.00    +0.000 A 
ATOM     18  C   UNL     1      36.348  -1.076  17.140  0.00  0.00    +0.000 A 
ATOM     19  C   UNL     1      36.272   0.140  16.496  0.00  0.00    +0.000 A 
ATOM     20  C   UNL     1      36.247   0.175  15.132  0.00  0.00    +0.000 A 
ATOM     21  C   UNL     1      36.300  -1.033  14.444  0.00  0.00    +0.000 A 
ATOM     22  C   UNL     1      36.376  -2.248  15.091  0.00  0.00    +0.000 A 
BRANCH  17  23
ATOM     23  O   UNL     1      36.478  -3.504  17.131  0.00  0.00    +0.000 OA
BRANCH  23  25
ATOM     24  C   UNL     1      38.823  -4.040  17.365  0.00  0.00    +0.000 C 
ATOM     25  C   UNL     1      37.481  -4.396  16.749  0.00  0.00    +0.000 C 
ENDBRANCH  23  25
ENDBRANCH  17  23
ENDBRANCH  16  20
ENDBRANCH   1  16
BRANCH   2  26
ATOM     26  S   UNL     1      38.960   1.702  12.790  0.00  0.00    +0.000 S 
BRANCH  26  27
ATOM     27  C   UNL     1      39.396   0.043  13.279  0.00  0.00    +0.000 A 
ATOM     28  C   UNL     1      39.338  -1.051  12.447  0.00  0.00    +0.000 A 
ATOM     29  C   UNL     1      39.681  -2.326  12.849  0.00  0.00    +0.000 A 
ATOM     30  C   UNL     1      40.104  -2.513  14.142  0.00  0.00    +0.000 A 
ATOM     31  C   UNL     1      40.183  -1.449  15.025  0.00  0.00    +0.000 A 
ATOM     32  C   UNL     1      39.831  -0.192  14.587  0.00  0.00    +0.000 A 
ENDBRANCH  26  27
ENDBRANCH   2  26
TORSDOF 7
ENDMDL
MODEL 3
REMARK VINA RESULT:      -7.7      3.168      8.072
REMARK  Name = 
REMARK  7 active torsions:
REMARK  status: ('A' for Active; 'I' for Inactive)
REMARK    1  A    between atoms: C_2  and  O_3
REMARK    2  A    between atoms: O_3  and  C_4
REMARK    3  A    between atoms: C_7  and  N_8
REMARK    4  A    between atoms: N_8  and  C_9
REMARK    5  A    between atoms: C_10  and  S_11
REMARK    6  A    between atoms: S_11  and  C_12
REMARK    7  A    between atoms: N_20  and  C_21
REMARK                            x       y       z     vdW  Elec       q    Type
REMARK                         _______ _______ _______ _____ _____    ______ ____
ROOT
ATOM      1  C   UNL     1      36.951   4.193  14.589  0.00  0.00    +0.000 C 
ATOM      2  C   UNL     1      36.506   5.435  14.633  0.00  0.00    +0.000 C 
ATOM      3  C   UNL     1      37.544   6.234  15.282  0.00  0.00    +0.000 C 
ATOM      4  O   UNL     1      37.476   7.460  15.497  0.00  0.00    +0.000 OA
ATOM      5  N   UNL     1      38.648   5.390  15.629  0.00  0.00    +0.000 N 
ATOM      6  C   UNL     1      38.269   4.095  15.189  0.00  0.00    +0.000 C 
ATOM      7  O   UNL     1      39.009   3.081  15.332  0.00  0.00    +0.000 OA
ENDROOT
BRANCH   5   8
ATOM      8  C   UNL     1      39.871   5.775  16.274  0.00  0.00    +0.000 A 
ATOM      9  C   UNL     1      40.944   6.116  15.509  0.00  0.00    +0.000 A 
ATOM     10  C   UNL     1      42.133   6.491  16.065  0.00  0.00    +0.000 A 
ATOM     11  C   UNL     1      42.264   6.528  17.446  0.00  0.00    +0.000 A 
ATOM     12  C   UNL     1      43.522   6.926  18.120  0.00  0.00    +0.000 C 
ATOM     13  C   UNL     1      41.168   6.179  18.213  0.00  0.00    +0.000 A 
ATOM     14  C   UNL     1      39.978   5.805  17.642  0.00  0.00    +0.000 A 
ATOM     15  C   UNL     1      38.792   5.432  18.451  0.00  0.00    +0.000 C 
ENDBRANCH   5   8
BRANCH   1  16
ATOM     16  N   UNL     1      36.258   3.068  14.027  0.00  0.00    +0.000 NA
BRANCH  16  20
ATOM     17  C   UNL     1      35.283  -0.052  16.750  0.00  0.00    +0.000 A 
ATOM     18  C   UNL     1      34.857   1.245  16.930  0.00  0.00    +0.000 A 
ATOM     19  C   UNL     1      35.159   2.273  16.063  0.00  0.00    +0.000 A 
ATOM     20  C   UNL     1      35.919   2.016  14.958  0.00  0.00    +0.000 A 
ATOM     21  C   UNL     1      36.360   0.713  14.755  0.00  0.00    +0.000 A 
ATOM     22  C   UNL     1      36.058  -0.313  15.624  0.00  0.00    +0.000 A 
BRANCH  17  23
ATOM     23  O   UNL     1      34.979  -1.083  17.622  0.00  0.00    +0.000 OA
BRANCH  23  25
ATOM     24  C   UNL     1      36.818  -1.304  19.176  0.00  0.00    +0.000 C 
ATOM     25  C   UNL     1      36.013  -1.920  18.045  0.00  0.00    +0.000 C 
ENDBRANCH  23  25
ENDBRANCH  17  23
ENDBRANCH  16  20
ENDBRANCH   1  16
BRANCH   2  26
ATOM     26  S   UNL     1      34.927   6.025  14.002  0.00  0.00    +0.000 S 
BRANCH  26  27
ATOM     27  C   UNL     1      35.032   6.288  12.241  0.00  0.00    +0.000 A 
ATOM     28  C   UNL     1      35.977   5.708  11.426  0.00  0.00    +0.000 A 
ATOM     29  C   UNL     1      36.038   5.925  10.064  0.00  0.00    +0.000 A 
ATOM     30  C   UNL     1      35.110   6.762   9.494  0.00  0.00    +0.000 A 
ATOM     31  C   UNL     1      34.136   7.374  10.264  0.00  0.00    +0.000 A 
ATOM     32  C   UNL     1      34.108   7.132  11.620  0.00  0.00    +0.000 A 
ENDBRANCH  26  27
ENDBRANCH   2  26
TORSDOF 7
ENDMDL
MODEL 4
REMARK VINA RESULT:      -7.5      2.755      3.998
REMARK  Name = 
REMARK  7 active torsions:
REMARK  status: ('A' for Active; 'I' for Inactive)
REMARK    1  A    between atoms: C_2  and  O_3
REMARK    2  A    between atoms: O_3  and  C_4
REMARK    3  A    between atoms: C_7  and  N_8
REMARK    4  A    between atoms: N_8  and  C_9
REMARK    5  A    between atoms: C_10  and  S_11
REMARK    6  A    between atoms: S_11  and  C_12
REMARK    7  A    between atoms: N_20  and  C_21
REMARK                            x       y       z     vdW  Elec       q    Type
REMARK                         _______ _______ _______ _____ _____    ______ ____
ROOT
ATOM      1  C   UNL     1      36.629   4.823  14.900  0.00  0.00    +0.000 C 
ATOM      2  C   UNL     1      37.933   4.666  15.023  0.00  0.00    +0.000 C 
ATOM      3  C   UNL     1      38.185   3.226  15.056  0.00  0.00    +0.000 C 
ATOM      4  O   UNL     1      39.308   2.696  15.163  0.00  0.00    +0.000 OA
ATOM      5  N   UNL     1      36.942   2.523  14.945  0.00  0.00    +0.000 N 
ATOM      6  C   UNL     1      35.956   3.539  14.847  0.00  0.00    +0.000 C 
ATOM      7  O   UNL     1      34.723   3.285  14.734  0.00  0.00    +0.000 OA
ENDROOT
BRANCH   5   8
ATOM      8  C   UNL     1      36.743   1.102  14.929  0.00  0.00    +0.000 A 
ATOM      9  C   UNL     1      37.054   0.402  13.804  0.00  0.00    +0.000 A 
ATOM     10  C   UNL     1      36.886  -0.951  13.729  0.00  0.00    +0.000 A 
ATOM     11  C   UNL     1      36.386  -1.642  14.824  0.00  0.00    +0.000 A 
ATOM     12  C   UNL     1      36.179  -3.109  14.817  0.00  0.00    +0.000 C 
ATOM     13  C   UNL     1      36.074  -0.921  15.961  0.00  0.00    +0.000 A 
ATOM     14  C   UNL     1      36.247   0.438  16.024  0.00  0.00    +0.000 A 
ATOM     15  C   UNL     1      35.921   1.225  17.238  0.00  0.00    +0.000 C 
ENDBRANCH   5   8
BRANCH   1  16
ATOM     16  N   UNL     1      35.934   6.078  14.820  0.00  0.00    +0.000 NA
BRANCH  16  20
ATOM     17  C   UNL     1      34.094   6.951  11.086  0.00  0.00    +0.000 A 
ATOM     18  C   UNL     1      35.384   6.482  11.181  0.00  0.00    +0.000 A 
ATOM     19  C   UNL     1      36.003   6.192  12.378  0.00  0.00    +0.000 A 
ATOM     20  C   UNL     1      35.319   6.369  13.545  0.00  0.00    +0.000 A 
ATOM     21  C   UNL     1      34.013   6.842  13.475  0.00  0.00    +0.000 A 
ATOM     22  C   UNL     1      33.397   7.133  12.276  0.00  0.00    +0.000 A 
BRANCH  17  23
ATOM     23  O   UNL     1      33.475   7.243   9.882  0.00  0.00    +0.000 OA
BRANCH  23  25
ATOM     24  C   UNL     1      33.756   6.511   7.596  0.00  0.00    +0.000 C 
ATOM     25  C   UNL     1      34.269   7.366   8.741  0.00  0.00    +0.000 C 
ENDBRANCH  23  25
ENDBRANCH  17  23
ENDBRANCH  16  20
ENDBRANCH   1  16
BRANCH   2  26
ATOM     26  S   UNL     1      39.162   5.978  15.120  0.00  0.00    +0.000 S 
BRANCH  26  27
ATOM     27  C   UNL     1      39.808   6.089  16.778  0.00  0.00    +0.000 A 
ATOM     28  C   UNL     1      41.119   6.377  17.082  0.00  0.00    +0.000 A 
ATOM     29  C   UNL     1      41.596   6.459  18.375  0.00  0.00    +0.000 A 
ATOM     30  C   UNL     1      40.720   6.243  19.410  0.00  0.00    +0.000 A 
ATOM     31  C   UNL     1      39.389   5.949  19.165  0.00  0.00    +0.000 A 
ATOM     32  C   UNL     1      38.951   5.876  17.862  0.00  0.00    +0.000 A 
ENDBRANCH  26  27
ENDBRANCH   2  26
TORSDOF 7
ENDMDL
MODEL 5
REMARK VINA RESULT:      -7.5      3.383      9.450
REMARK  Name = 
REMARK  7 active torsions:
REMARK  status: ('A' for Active; 'I' for Inactive)
REMARK    1  A    between atoms: C_2  and  O_3
REMARK    2  A    between atoms: O_3  and  C_4
REMARK    3  A    between atoms: C_7  and  N_8
REMARK    4  A    between atoms: N_8  and  C_9
REMARK    5  A    between atoms: C_10  and  S_11
REMARK    6  A    between atoms: S_11  and  C_12
REMARK    7  A    between atoms: N_20  and  C_21
REMARK                            x       y       z     vdW  Elec       q    Type
REMARK                         _______ _______ _______ _____ _____    ______ ____
ROOT
ATOM      1  C   UNL     1      38.458   2.772  14.230  0.00  0.00    +0.000 C 
ATOM      2  C   UNL     1      37.386   2.355  14.877  0.00  0.00    +0.000 C 
ATOM      3  C   UNL     1      37.232   3.220  16.045  0.00  0.00    +0.000 C 
ATOM      4  O   UNL     1      36.323   3.126  16.893  0.00  0.00    +0.000 OA
ATOM      5  N   UNL     1      38.286   4.190  16.061  0.00  0.00    +0.000 N 
ATOM      6  C   UNL     1      39.063   3.903  14.910  0.00  0.00    +0.000 C 
ATOM      7  O   UNL     1      40.092   4.567  14.597  0.00  0.00    +0.000 OA
ENDROOT
BRANCH   5   8
ATOM      8  C   UNL     1      38.500   5.227  17.030  0.00  0.00    +0.000 A 
ATOM      9  C   UNL     1      39.090   4.914  18.215  0.00  0.00    +0.000 A 
ATOM     10  C   UNL     1      39.321   5.858  19.175  0.00  0.00    +0.000 A 
ATOM     11  C   UNL     1      38.947   7.175  18.946  0.00  0.00    +0.000 A 
ATOM     12  C   UNL     1      39.167   8.253  19.939  0.00  0.00    +0.000 C 
ATOM     13  C   UNL     1      38.349   7.481  17.738  0.00  0.00    +0.000 A 
ATOM     14  C   UNL     1      38.124   6.524  16.782  0.00  0.00    +0.000 A 
ATOM     15  C   UNL     1      37.486   6.837  15.479  0.00  0.00    +0.000 C 
ENDBRANCH   5   8
BRANCH   1  16
ATOM     16  N   UNL     1      38.981   2.214  13.015  0.00  0.00    +0.000 NA
BRANCH  16  20
ATOM     17  C   UNL     1      40.768  -1.626  13.412  0.00  0.00    +0.000 A 
ATOM     18  C   UNL     1      39.913  -1.313  12.380  0.00  0.00    +0.000 A 
ATOM     19  C   UNL     1      39.322  -0.077  12.229  0.00  0.00    +0.000 A 
ATOM     20  C   UNL     1      39.584   0.906  13.138  0.00  0.00    +0.000 A 
ATOM     21  C   UNL     1      40.445   0.614  14.190  0.00  0.00    +0.000 A 
ATOM     22  C   UNL     1      41.034  -0.624  14.339  0.00  0.00    +0.000 A 
BRANCH  17  23
ATOM     23  O   UNL     1      41.360  -2.868  13.562  0.00  0.00    +0.000 OA
BRANCH  23  25
ATOM     24  C   UNL     1      43.418  -2.973  12.298  0.00  0.00    +0.000 C 
ATOM     25  C   UNL     1      41.982  -3.444  12.453  0.00  0.00    +0.000 C 
ENDBRANCH  23  25
ENDBRANCH  17  23
ENDBRANCH  16  20
ENDBRANCH   1  16
BRANCH   2  26
ATOM     26  S   UNL     1      36.317   0.988  14.398  0.00  0.00    +0.000 S 
BRANCH  26  27
ATOM     27  C   UNL     1      36.995  -0.553  14.985  0.00  0.00    +0.000 A 
ATOM     28  C   UNL     1      37.735  -0.686  16.138  0.00  0.00    +0.000 A 
ATOM     29  C   UNL     1      38.249  -1.890  16.573  0.00  0.00    +0.000 A 
ATOM     30  C   UNL     1      38.011  -3.013  15.819  0.00  0.00    +0.000 A 
ATOM     31  C   UNL     1      37.274  -2.941  14.649  0.00  0.00    +0.000 A 
ATOM     32  C   UNL     1      36.778  -1.720  14.248  0.00  0.00    +0.000 A 
ENDBRANCH  26  27
ENDBRANCH   2  26
TORSDOF 7
ENDMDL
MODEL 6
REMARK VINA RESULT:      -7.5      2.125      7.172
REMARK  Name = 
REMARK  7 active torsions:
REMARK  status: ('A' for Active; 'I' for Inactive)
REMARK    1  A    between atoms: C_2  and  O_3
REMARK    2  A    between atoms: O_3  and  C_4
REMARK    3  A    between atoms: C_7  and  N_8
REMARK    4  A    between atoms: N_8  and  C_9
REMARK    5  A    between atoms: C_10  and  S_11
REMARK    6  A    between atoms: S_11  and  C_12
REMARK    7  A    between atoms: N_20  and  C_21
REMARK                            x       y       z     vdW  Elec       q    Type
REMARK                         _______ _______ _______ _____ _____    ______ ____
ROOT
ATOM      1  C   UNL     1      37.205   4.747  14.813  0.00  0.00    +0.000 C 
ATOM      2  C   UNL     1      37.001   6.040  14.647  0.00  0.00    +0.000 C 
ATOM      3  C   UNL     1      37.870   6.731  15.599  0.00  0.00    +0.000 C 
ATOM      4  O   UNL     1      37.950   7.968  15.731  0.00  0.00    +0.000 OA
ATOM      5  N   UNL     1      38.614   5.766  16.352  0.00  0.00    +0.000 N 
ATOM      6  C   UNL     1      38.190   4.508  15.852  0.00  0.00    +0.000 C 
ATOM      7  O   UNL     1      38.641   3.411  16.289  0.00  0.00    +0.000 OA
ENDROOT
BRANCH   5   8
ATOM      8  C   UNL     1      39.581   6.020  17.381  0.00  0.00    +0.000 A 
ATOM      9  C   UNL     1      39.173   6.051  18.679  0.00  0.00    +0.000 A 
ATOM     10  C   UNL     1      40.047   6.288  19.702  0.00  0.00    +0.000 A 
ATOM     11  C   UNL     1      41.389   6.506  19.421  0.00  0.00    +0.000 A 
ATOM     12  C   UNL     1      42.394   6.767  20.478  0.00  0.00    +0.000 C 
ATOM     13  C   UNL     1      41.791   6.472  18.100  0.00  0.00    +0.000 A 
ATOM     14  C   UNL     1      40.904   6.232  17.081  0.00  0.00    +0.000 A 
ATOM     15  C   UNL     1      41.321   6.189  15.659  0.00  0.00    +0.000 C 
ENDBRANCH   5   8
BRANCH   1  16
ATOM     16  N   UNL     1      36.565   3.691  14.078  0.00  0.00    +0.000 NA
BRANCH  16  20
ATOM     17  C   UNL     1      35.089   0.452  16.406  0.00  0.00    +0.000 A 
ATOM     18  C   UNL     1      34.672   1.749  16.599  0.00  0.00    +0.000 A 
ATOM     19  C   UNL     1      35.134   2.816  15.858  0.00  0.00    +0.000 A 
ATOM     20  C   UNL     1      36.055   2.599  14.875  0.00  0.00    +0.000 A 
ATOM     21  C   UNL     1      36.492   1.296  14.661  0.00  0.00    +0.000 A 
ATOM     22  C   UNL     1      36.028   0.231  15.404  0.00  0.00    +0.000 A 
BRANCH  17  23
ATOM     23  O   UNL     1      34.623  -0.618  17.152  0.00  0.00    +0.000 OA
BRANCH  23  25
ATOM     24  C   UNL     1      35.870  -0.528  19.221  0.00  0.00    +0.000 C 
ATOM     25  C   UNL     1      35.529  -1.306  17.962  0.00  0.00    +0.000 C 
ENDBRANCH  23  25
ENDBRANCH  17  23
ENDBRANCH  16  20
ENDBRANCH   1  16
BRANCH   2  26
ATOM     26  S   UNL     1      35.875   6.801  13.467  0.00  0.00    +0.000 S 
BRANCH  26  27
ATOM     27  C   UNL     1      35.207   8.309  14.144  0.00  0.00    +0.000 A 
ATOM     28  C   UNL     1      35.667   9.569  13.834  0.00  0.00    +0.000 A 
ATOM     29  C   UNL     1      35.133  10.723  14.370  0.00  0.00    +0.000 A 
ATOM     30  C   UNL     1      34.091  10.610  15.256  0.00  0.00    +0.000 A 
ATOM     31  C   UNL     1      33.586   9.369  15.606  0.00  0.00    +0.000 A 
ATOM     32  C   UNL     1      34.146   8.241  15.050  0.00  0.00    +0.000 A 
ENDBRANCH  26  27
ENDBRANCH   2  26
TORSDOF 7
ENDMDL
MODEL 7
REMARK VINA RESULT:      -7.2      4.540      7.815
REMARK  Name = 
REMARK  7 active torsions:
REMARK  status: ('A' for Active; 'I' for Inactive)
REMARK    1  A    between atoms: C_2  and  O_3
REMARK    2  A    between atoms: O_3  and  C_4
REMARK    3  A    between atoms: C_7  and  N_8
REMARK    4  A    between atoms: N_8  and  C_9
REMARK    5  A    between atoms: C_10  and  S_11
REMARK    6  A    between atoms: S_11  and  C_12
REMARK    7  A    between atoms: N_20  and  C_21
REMARK                            x       y       z     vdW  Elec       q    Type
REMARK                         _______ _______ _______ _____ _____    ______ ____
ROOT
ATOM      1  C   UNL     1      38.656   0.269  13.767  0.00  0.00    +0.000 C 
ATOM      2  C   UNL     1      38.206  -0.826  14.351  0.00  0.00    +0.000 C 
ATOM      3  C   UNL     1      39.317  -1.777  14.379  0.00  0.00    +0.000 C 
ATOM      4  O   UNL     1      39.265  -2.926  14.859  0.00  0.00    +0.000 OA
ATOM      5  N   UNL     1      40.469  -1.182  13.771  0.00  0.00    +0.000 N 
ATOM      6  C   UNL     1      40.047   0.116  13.382  0.00  0.00    +0.000 C 
ATOM      7  O   UNL     1      40.813   0.940  12.805  0.00  0.00    +0.000 OA
ENDROOT
BRANCH   5   8
ATOM      8  C   UNL     1      41.767  -1.771  13.600  0.00  0.00    +0.000 A 
ATOM      9  C   UNL     1      42.753  -1.466  14.486  0.00  0.00    +0.000 A 
ATOM     10  C   UNL     1      44.008  -1.995  14.376  0.00  0.00    +0.000 A 
ATOM     11  C   UNL     1      44.295  -2.868  13.335  0.00  0.00    +0.000 A 
ATOM     12  C   UNL     1      45.631  -3.481  13.153  0.00  0.00    +0.000 C 
ATOM     13  C   UNL     1      43.285  -3.170  12.442  0.00  0.00    +0.000 A 
ATOM     14  C   UNL     1      42.029  -2.632  12.564  0.00  0.00    +0.000 A 
ATOM     15  C   UNL     1      40.933  -2.949  11.616  0.00  0.00    +0.000 C 
ENDBRANCH   5   8
BRANCH   1  16
ATOM     16  N   UNL     1      37.903   1.470  13.532  0.00  0.00    +0.000 NA
BRANCH  16  20
ATOM     17  C   UNL     1      38.308   4.500  16.490  0.00  0.00    +0.000 A 
ATOM     18  C   UNL     1      37.298   3.565  16.525  0.00  0.00    +0.000 A 
ATOM     19  C   UNL     1      37.146   2.574  15.579  0.00  0.00    +0.000 A 
ATOM     20  C   UNL     1      38.032   2.494  14.544  0.00  0.00    +0.000 A 
ATOM     21  C   UNL     1      39.060   3.427  14.488  0.00  0.00    +0.000 A 
ATOM     22  C   UNL     1      39.210   4.418  15.435  0.00  0.00    +0.000 A 
BRANCH  17  23
ATOM     23  O   UNL     1      38.459   5.495  17.441  0.00  0.00    +0.000 OA
BRANCH  23  25
ATOM     24  C   UNL     1      39.465   6.388  19.450  0.00  0.00    +0.000 C 
ATOM     25  C   UNL     1      39.037   5.159  18.666  0.00  0.00    +0.000 C 
ENDBRANCH  23  25
ENDBRANCH  17  23
ENDBRANCH  16  20
ENDBRANCH   1  16
BRANCH   2  26
ATOM     26  S   UNL     1      36.547  -1.086  14.996  0.00  0.00    +0.000 S 
BRANCH  26  27
ATOM     27  C   UNL     1      36.562  -0.993  16.777  0.00  0.00    +0.000 A 
ATOM     28  C   UNL     1      37.497  -1.608  17.578  0.00  0.00    +0.000 A 
ATOM     29  C   UNL     1      37.488  -1.521  18.955  0.00  0.00    +0.000 A 
ATOM     30  C   UNL     1      36.499  -0.783  19.557  0.00  0.00    +0.000 A 
ATOM     31  C   UNL     1      35.531  -0.142  18.803  0.00  0.00    +0.000 A 
ATOM     32  C   UNL     1      35.573  -0.253  17.431  0.00  0.00    +0.000 A 
ENDBRANCH  26  27
ENDBRANCH   2  26
TORSDOF 7
ENDMDL
MODEL 8
REMARK VINA RESULT:      -7.1      1.902      5.685
REMARK  Name = 
REMARK  7 active torsions:
REMARK  status: ('A' for Active; 'I' for Inactive)
REMARK    1  A    between atoms: C_2  and  O_3
REMARK    2  A    between atoms: O_3  and  C_4
REMARK    3  A    between atoms: C_7  and  N_8
REMARK    4  A    between atoms: N_8  and  C_9
REMARK    5  A    between atoms: C_10  and  S_11
REMARK    6  A    between atoms: S_11  and  C_12
REMARK    7  A    between atoms: N_20  and  C_21
REMARK                            x       y       z     vdW  Elec       q    Type
REMARK                         _______ _______ _______ _____ _____    ______ ____
ROOT
ATOM      1  C   UNL     1      37.700   6.530  14.508  0.00  0.00    +0.000 C 
ATOM      2  C   UNL     1      37.579   5.233  14.719  0.00  0.00    +0.000 C 
ATOM      3  C   UNL     1      38.408   4.914  15.881  0.00  0.00    +0.000 C 
ATOM      4  O   UNL     1      38.541   3.778  16.378  0.00  0.00    +0.000 OA
ATOM      5  N   UNL     1      39.039   6.108  16.357  0.00  0.00    +0.000 N 
ATOM      6  C   UNL     1      38.589   7.132  15.483  0.00  0.00    +0.000 C 
ATOM      7  O   UNL     1      38.947   8.338  15.602  0.00  0.00    +0.000 OA
ENDROOT
BRANCH   5   8
ATOM      8  C   UNL     1      39.927   6.238  17.477  0.00  0.00    +0.000 A 
ATOM      9  C   UNL     1      39.410   6.225  18.736  0.00  0.00    +0.000 A 
ATOM     10  C   UNL     1      40.204   6.344  19.841  0.00  0.00    +0.000 A 
ATOM     11  C   UNL     1      41.577   6.483  19.687  0.00  0.00    +0.000 A 
ATOM     12  C   UNL     1      42.500   6.616  20.839  0.00  0.00    +0.000 C 
ATOM     13  C   UNL     1      42.090   6.495  18.404  0.00  0.00    +0.000 A 
ATOM     14  C   UNL     1      41.282   6.374  17.303  0.00  0.00    +0.000 A 
ATOM     15  C   UNL     1      41.818   6.381  15.920  0.00  0.00    +0.000 C 
ENDBRANCH   5   8
BRANCH   1  16
ATOM     16  N   UNL     1      37.051   7.279  13.468  0.00  0.00    +0.000 NA
BRANCH  16  20
ATOM     17  C   UNL     1      34.333  10.281  14.770  0.00  0.00    +0.000 A 
ATOM     18  C   UNL     1      34.090   8.938  14.949  0.00  0.00    +0.000 A 
ATOM     19  C   UNL     1      34.954   7.946  14.537  0.00  0.00    +0.000 A 
ATOM     20  C   UNL     1      36.120   8.290  13.917  0.00  0.00    +0.000 A 
ATOM     21  C   UNL     1      36.388   9.641  13.725  0.00  0.00    +0.000 A 
ATOM     22  C   UNL     1      35.521  10.631  14.138  0.00  0.00    +0.000 A 
BRANCH  17  23
ATOM     23  O   UNL     1      33.463  11.275  15.185  0.00  0.00    +0.000 OA
BRANCH  23  25
ATOM     24  C   UNL     1      34.027  11.551  17.519  0.00  0.00    +0.000 C 
ATOM     25  C   UNL     1      33.907  12.186  16.145  0.00  0.00    +0.000 C 
ENDBRANCH  23  25
ENDBRANCH  17  23
ENDBRANCH  16  20
ENDBRANCH   1  16
BRANCH   2  26
ATOM     26  S   UNL     1      36.575   4.085  13.763  0.00  0.00    +0.000 S 
BRANCH  26  27
ATOM     27  C   UNL     1      36.058   2.722  14.791  0.00  0.00    +0.000 A 
ATOM     28  C   UNL     1      35.197   2.839  15.858  0.00  0.00    +0.000 A 
ATOM     29  C   UNL     1      34.811   1.769  16.639  0.00  0.00    +0.000 A 
ATOM     30  C   UNL     1      35.308   0.526  16.337  0.00  0.00    +0.000 A 
ATOM     31  C   UNL     1      36.178   0.347  15.275  0.00  0.00    +0.000 A 
ATOM     32  C   UNL     1      36.541   1.439  14.520  0.00  0.00    +0.000 A 
ENDBRANCH  26  27
ENDBRANCH   2  26
TORSDOF 7
ENDMDL
MODEL 9
REMARK VINA RESULT:      -7.1      3.731      9.566
REMARK  Name = 
REMARK  7 active torsions:
REMARK  status: ('A' for Active; 'I' for Inactive)
REMARK    1  A    between atoms: C_2  and  O_3
REMARK    2  A    between atoms: O_3  and  C_4
REMARK    3  A    between atoms: C_7  and  N_8
REMARK    4  A    between atoms: N_8  and  C_9
REMARK    5  A    between atoms: C_10  and  S_11
REMARK    6  A    between atoms: S_11  and  C_12
REMARK    7  A    between atoms: N_20  and  C_21
REMARK                            x       y       z     vdW  Elec       q    Type
REMARK                         _______ _______ _______ _____ _____    ______ ____
ROOT
ATOM      1  C   UNL     1      36.577   0.424  14.308  0.00  0.00    +0.000 C 
ATOM      2  C   UNL     1      35.936   0.483  15.460  0.00  0.00    +0.000 C 
ATOM      3  C   UNL     1      35.761   1.900  15.775  0.00  0.00    +0.000 C 
ATOM      4  O   UNL     1      35.194   2.344  16.793  0.00  0.00    +0.000 OA
ATOM      5  N   UNL     1      36.341   2.695  14.734  0.00  0.00    +0.000 N 
ATOM      6  C   UNL     1      36.859   1.756  13.805  0.00  0.00    +0.000 C 
ATOM      7  O   UNL     1      37.451   2.101  12.743  0.00  0.00    +0.000 OA
ENDROOT
BRANCH   5   8
ATOM      8  C   UNL     1      36.381   4.127  14.650  0.00  0.00    +0.000 A 
ATOM      9  C   UNL     1      35.356   4.783  14.041  0.00  0.00    +0.000 A 
ATOM     10  C   UNL     1      35.338   6.144  13.931  0.00  0.00    +0.000 A 
ATOM     11  C   UNL     1      36.388   6.888  14.450  0.00  0.00    +0.000 A 
ATOM     12  C   UNL     1      36.437   8.367  14.369  0.00  0.00    +0.000 C 
ATOM     13  C   UNL     1      37.423   6.211  15.066  0.00  0.00    +0.000 A 
ATOM     14  C   UNL     1      37.429   4.843  15.172  0.00  0.00    +0.000 A 
ATOM     15  C   UNL     1      38.531   4.103  15.834  0.00  0.00    +0.000 C 
ENDBRANCH   5   8
BRANCH   1  16
ATOM     16  N   UNL     1      36.955  -0.775  13.613  0.00  0.00    +0.000 NA
BRANCH  16  20
ATOM     17  C   UNL     1      41.041  -1.913  13.936  0.00  0.00    +0.000 A 
ATOM     18  C   UNL     1      40.563  -0.726  14.443  0.00  0.00    +0.000 A 
ATOM     19  C   UNL     1      39.245  -0.335  14.352  0.00  0.00    +0.000 A 
ATOM     20  C   UNL     1      38.346  -1.151  13.730  0.00  0.00    +0.000 A 
ATOM     21  C   UNL     1      38.805  -2.356  13.210  0.00  0.00    +0.000 A 
ATOM     22  C   UNL     1      40.124  -2.745  13.302  0.00  0.00    +0.000 A 
BRANCH  17  23
ATOM     23  O   UNL     1      42.366  -2.304  14.028  0.00  0.00    +0.000 OA
BRANCH  23  25
ATOM     24  C   UNL     1      44.375  -1.450  15.068  0.00  0.00    +0.000 C 
ATOM     25  C   UNL     1      43.354  -1.321  13.950  0.00  0.00    +0.000 C 
ENDBRANCH  23  25
ENDBRANCH  17  23
ENDBRANCH  16  20
ENDBRANCH   1  16
BRANCH   2  26
ATOM     26  S   UNL     1      35.379  -0.917  16.443  0.00  0.00    +0.000 S 
BRANCH  26  27
ATOM     27  C   UNL     1      36.700  -2.100  16.629  0.00  0.00    +0.000 A 
ATOM     28  C   UNL     1      37.884  -1.843  17.282  0.00  0.00    +0.000 A 
ATOM     29  C   UNL     1      38.893  -2.775  17.414  0.00  0.00    +0.000 A 
ATOM     30  C   UNL     1      38.708  -4.021  16.867  0.00  0.00    +0.000 A 
ATOM     31  C   UNL     1      37.537  -4.337  16.197  0.00  0.00    +0.000 A 
ATOM     32  C   UNL     1      36.554  -3.379  16.087  0.00  0.00    +0.000 A 
ENDBRANCH  26  27
ENDBRANCH   2  26
TORSDOF 7
ENDMDL
MODEL 10
REMARK VINA RESULT:      -7.0      2.209      5.970
REMARK  Name = 
REMARK  7 active torsions:
REMARK  status: ('A' for Active; 'I' for Inactive)
REMARK    1  A    between atoms: C_2  and  O_3
REMARK    2  A    between atoms: O_3  and  C_4
REMARK    3  A    between atoms: C_7  and  N_8
REMARK    4  A    between atoms: N_8  and  C_9
REMARK    5  A    between atoms: C_10  and  S_11
REMARK    6  A    between atoms: S_11  and  C_12
REMARK    7  A    between atoms: N_20  and  C_21
REMARK                            x       y       z     vdW  Elec       q    Type
REMARK                         _______ _______ _______ _____ _____    ______ ____
ROOT
ATOM      1  C   UNL     1      37.960   5.648  16.477  0.00  0.00    +0.000 C 
ATOM      2  C   UNL     1      37.849   5.933  15.193  0.00  0.00    +0.000 C 
ATOM      3  C   UNL     1      37.664   4.663  14.492  0.00  0.00    +0.000 C 
ATOM      4  O   UNL     1      37.522   4.537  13.260  0.00  0.00    +0.000 OA
ATOM      5  N   UNL     1      37.672   3.590  15.440  0.00  0.00    +0.000 N 
ATOM      6  C   UNL     1      37.861   4.218  16.699  0.00  0.00    +0.000 C 
ATOM      7  O   UNL     1      37.920   3.571  17.783  0.00  0.00    +0.000 OA
ENDROOT
BRANCH   5   8
ATOM      8  C   UNL     1      37.516   2.189  15.173  0.00  0.00    +0.000 A 
ATOM      9  C   UNL     1      38.592   1.473  14.746  0.00  0.00    +0.000 A 
ATOM     10  C   UNL     1      38.505   0.137  14.475  0.00  0.00    +0.000 A 
ATOM     11  C   UNL     1      37.292  -0.518  14.636  0.00  0.00    +0.000 A 
ATOM     12  C   UNL     1      37.122  -1.965  14.364  0.00  0.00    +0.000 C 
ATOM     13  C   UNL     1      36.207   0.219  15.071  0.00  0.00    +0.000 A 
ATOM     14  C   UNL     1      36.307   1.560  15.340  0.00  0.00    +0.000 A 
ATOM     15  C   UNL     1      35.153   2.365  15.810  0.00  0.00    +0.000 C 
ENDBRANCH   5   8
BRANCH   1  16
ATOM     16  N   UNL     1      38.147   6.597  17.538  0.00  0.00    +0.000 NA
BRANCH  16  20
ATOM     17  C   UNL     1      41.950   6.472  19.438  0.00  0.00    +0.000 A 
ATOM     18  C   UNL     1      40.771   6.485  20.148  0.00  0.00    +0.000 A 
ATOM     19  C   UNL     1      39.527   6.525  19.556  0.00  0.00    +0.000 A 
ATOM     20  C   UNL     1      39.433   6.553  18.195  0.00  0.00    +0.000 A 
ATOM     21  C   UNL     1      40.611   6.540  17.456  0.00  0.00    +0.000 A 
ATOM     22  C   UNL     1      41.855   6.501  18.051  0.00  0.00    +0.000 A 
BRANCH  17  23
ATOM     23  O   UNL     1      43.200   6.432  20.034  0.00  0.00    +0.000 OA
BRANCH  23  25
ATOM     24  C   UNL     1      43.850   6.827  22.329  0.00  0.00    +0.000 C 
ATOM     25  C   UNL     1      43.312   5.850  21.298  0.00  0.00    +0.000 C 
ENDBRANCH  23  25
ENDBRANCH  17  23
ENDBRANCH  16  20
ENDBRANCH   1  16
BRANCH   2  26
ATOM     26  S   UNL     1      37.904   7.574  14.455  0.00  0.00    +0.000 S 
BRANCH  26  27
ATOM     27  C   UNL     1      36.320   8.373  14.625  0.00  0.00    +0.000 A 
ATOM     28  C   UNL     1      35.110   7.748  14.426  0.00  0.00    +0.000 A 
ATOM     29  C   UNL     1      33.895   8.388  14.564  0.00  0.00    +0.000 A 
ATOM     30  C   UNL     1      33.892   9.715  14.918  0.00  0.00    +0.000 A 
ATOM     31  C   UNL     1      35.078  10.397  15.130  0.00  0.00    +0.000 A 
ATOM     32  C   UNL     1      36.270   9.724  14.982  0.00  0.00    +0.000 A 
ENDBRANCH  26  27
ENDBRANCH   2  26
TORSDOF 7
ENDMDL
