MODEL 1
REMARK VINA RESULT:      -6.1      0.000      0.000
REMARK  Name = 
REMARK  2 active torsions:
REMARK  status: ('A' for Active; 'I' for Inactive)
REMARK    1  A    between atoms: C_6  and  C_7
REMARK    2  A    between atoms: N_9  and  C_10
REMARK                            x       y       z     vdW  Elec       q    Type
REMARK                         _______ _______ _______ _____ _____    ______ ____
ROOT
ATOM      1  N   UNL     1      25.586  26.596  24.487  0.00  0.00    +0.000 NA
ATOM      2  C   UNL     1      26.398  25.432  24.766  0.00  0.00    +0.000 A 
ATOM      3  S   UNL     1      26.452  24.455  26.161  0.00  0.00    +0.000 S 
ATOM      4  C   UNL     1      27.640  23.340  25.671  0.00  0.00    +0.000 A 
ATOM      5  C   UNL     1      27.965  23.765  24.417  0.00  0.00    +0.000 A 
ATOM      6  C   UNL     1      27.326  24.847  23.945  0.00  0.00    +0.000 A 
ATOM      7  C   UNL     1      28.990  23.123  23.503  0.00  0.00    +0.000 C 
ATOM      8  C   UNL     1      30.299  23.847  23.707  0.00  0.00    +0.000 C 
ATOM      9  C   UNL     1      30.752  23.605  25.136  0.00  0.00    +0.000 C 
ATOM     10  C   UNL     1      30.190  22.260  25.561  0.00  0.00    +0.000 C 
ATOM     11  C   UNL     1      29.497  22.326  26.894  0.00  0.00    +0.000 C 
ATOM     12  C   UNL     1      27.996  22.275  26.643  0.00  0.00    +0.000 C 
ENDROOT
BRANCH   6  13
ATOM     13  C   UNL     1      27.596  25.404  22.593  0.00  0.00    +0.000 C 
ATOM     14  O   UNL     1      27.118  24.907  21.568  0.00  0.00    +0.000 OA
ATOM     15  N   UNL     1      28.424  26.551  22.396  0.00  0.00    +0.000 NA
BRANCH  15  16
ATOM     16  C   UNL     1      28.688  27.092  21.112  0.00  0.00    +0.000 A 
ATOM     17  C   UNL     1      29.722  26.622  20.332  0.00  0.00    +0.000 A 
ATOM     18  C   UNL     1      29.984  27.145  19.079  0.00  0.00    +0.000 A 
ATOM     19  C   UNL     1      29.189  28.158  18.608  0.00  0.00    +0.000 A 
ATOM     20  C   UNL     1      28.156  28.653  19.344  0.00  0.00    +0.000 A 
ATOM     21  C   UNL     1      27.908  28.108  20.610  0.00  0.00    +0.000 A 
ENDBRANCH  15  16
ENDBRANCH   6  13
TORSDOF 2
ENDMDL
MODEL 2
REMARK VINA RESULT:      -6.0      4.330      6.242
REMARK  Name = 
REMARK  2 active torsions:
REMARK  status: ('A' for Active; 'I' for Inactive)
REMARK    1  A    between atoms: C_6  and  C_7
REMARK    2  A    between atoms: N_9  and  C_10
REMARK                            x       y       z     vdW  Elec       q    Type
REMARK                         _______ _______ _______ _____ _____    ______ ____
ROOT
ATOM      1  N   UNL     1      27.636  23.903  30.578  0.00  0.00    +0.000 NA
ATOM      2  C   UNL     1      28.922  23.252  30.454  0.00  0.00    +0.000 A 
ATOM      3  S   UNL     1      29.951  22.641  31.667  0.00  0.00    +0.000 S 
ATOM      4  C   UNL     1      31.215  22.059  30.689  0.00  0.00    +0.000 A 
ATOM      5  C   UNL     1      30.795  22.360  29.428  0.00  0.00    +0.000 A 
ATOM      6  C   UNL     1      29.610  22.978  29.301  0.00  0.00    +0.000 A 
ATOM      7  C   UNL     1      31.550  22.061  28.147  0.00  0.00    +0.000 C 
ATOM      8  C   UNL     1      32.353  23.289  27.794  0.00  0.00    +0.000 C 
ATOM      9  C   UNL     1      33.384  23.507  28.887  0.00  0.00    +0.000 C 
ATOM     10  C   UNL     1      33.705  22.145  29.476  0.00  0.00    +0.000 C 
ATOM     11  C   UNL     1      33.640  22.141  30.978  0.00  0.00    +0.000 C 
ATOM     12  C   UNL     1      32.361  21.424  31.389  0.00  0.00    +0.000 C 
ENDROOT
BRANCH   6  13
ATOM     13  C   UNL     1      29.046  23.357  27.978  0.00  0.00    +0.000 C 
ATOM     14  O   UNL     1      29.050  24.523  27.570  0.00  0.00    +0.000 OA
ATOM     15  N   UNL     1      28.464  22.395  27.097  0.00  0.00    +0.000 NA
BRANCH  15  16
ATOM     16  C   UNL     1      27.923  22.746  25.833  0.00  0.00    +0.000 A 
ATOM     17  C   UNL     1      28.734  22.970  24.742  0.00  0.00    +0.000 A 
ATOM     18  C   UNL     1      28.213  23.312  23.508  0.00  0.00    +0.000 A 
ATOM     19  C   UNL     1      26.854  23.429  23.374  0.00  0.00    +0.000 A 
ATOM     20  C   UNL     1      26.015  23.216  24.425  0.00  0.00    +0.000 A 
ATOM     21  C   UNL     1      26.563  22.870  25.667  0.00  0.00    +0.000 A 
ENDBRANCH  15  16
ENDBRANCH   6  13
TORSDOF 2
ENDMDL
MODEL 3
REMARK VINA RESULT:      -6.0      4.871      8.065
REMARK  Name = 
REMARK  2 active torsions:
REMARK  status: ('A' for Active; 'I' for Inactive)
REMARK    1  A    between atoms: C_6  and  C_7
REMARK    2  A    between atoms: N_9  and  C_10
REMARK                            x       y       z     vdW  Elec       q    Type
REMARK                         _______ _______ _______ _____ _____    ______ ____
ROOT
ATOM      1  N   UNL     1      25.774  24.348  30.965  0.00  0.00    +0.000 NA
ATOM      2  C   UNL     1      25.920  24.641  29.556  0.00  0.00    +0.000 A 
ATOM      3  S   UNL     1      24.970  25.636  28.550  0.00  0.00    +0.000 S 
ATOM      4  C   UNL     1      25.809  25.429  27.085  0.00  0.00    +0.000 A 
ATOM      5  C   UNL     1      26.820  24.579  27.424  0.00  0.00    +0.000 A 
ATOM      6  C   UNL     1      26.881  24.168  28.701  0.00  0.00    +0.000 A 
ATOM      7  C   UNL     1      27.887  24.051  26.485  0.00  0.00    +0.000 C 
ATOM      8  C   UNL     1      27.412  22.717  25.962  0.00  0.00    +0.000 C 
ATOM      9  C   UNL     1      26.160  22.953  25.137  0.00  0.00    +0.000 C 
ATOM     10  C   UNL     1      26.257  24.358  24.569  0.00  0.00    +0.000 C 
ATOM     11  C   UNL     1      25.003  25.154  24.795  0.00  0.00    +0.000 C 
ATOM     12  C   UNL     1      25.281  26.159  25.904  0.00  0.00    +0.000 C 
ENDROOT
BRANCH   6  13
ATOM     13  C   UNL     1      27.936  23.242  29.190  0.00  0.00    +0.000 C 
ATOM     14  O   UNL     1      27.761  22.021  29.259  0.00  0.00    +0.000 OA
ATOM     15  N   UNL     1      29.218  23.707  29.613  0.00  0.00    +0.000 NA
BRANCH  15  16
ATOM     16  C   UNL     1      30.232  22.833  30.081  0.00  0.00    +0.000 A 
ATOM     17  C   UNL     1      30.233  22.361  31.375  0.00  0.00    +0.000 A 
ATOM     18  C   UNL     1      31.219  21.508  31.837  0.00  0.00    +0.000 A 
ATOM     19  C   UNL     1      32.218  21.128  30.979  0.00  0.00    +0.000 A 
ATOM     20  C   UNL     1      32.257  21.570  29.692  0.00  0.00    +0.000 A 
ATOM     21  C   UNL     1      31.249  22.433  29.245  0.00  0.00    +0.000 A 
ENDBRANCH  15  16
ENDBRANCH   6  13
TORSDOF 2
ENDMDL
MODEL 4
REMARK VINA RESULT:      -5.9      3.417      5.637
REMARK  Name = 
REMARK  2 active torsions:
REMARK  status: ('A' for Active; 'I' for Inactive)
REMARK    1  A    between atoms: C_6  and  C_7
REMARK    2  A    between atoms: N_9  and  C_10
REMARK                            x       y       z     vdW  Elec       q    Type
REMARK                         _______ _______ _______ _____ _____    ______ ____
ROOT
ATOM      1  N   UNL     1      25.953  23.500  21.946  0.00  0.00    +0.000 NA
ATOM      2  C   UNL     1      27.121  23.684  22.779  0.00  0.00    +0.000 A 
ATOM      3  S   UNL     1      28.769  23.480  22.397  0.00  0.00    +0.000 S 
ATOM      4  C   UNL     1      29.454  23.891  23.899  0.00  0.00    +0.000 A 
ATOM      5  C   UNL     1      28.365  24.180  24.667  0.00  0.00    +0.000 A 
ATOM      6  C   UNL     1      27.156  24.074  24.092  0.00  0.00    +0.000 A 
ATOM      7  C   UNL     1      28.395  24.612  26.120  0.00  0.00    +0.000 C 
ATOM      8  C   UNL     1      28.224  23.373  26.966  0.00  0.00    +0.000 C 
ATOM      9  C   UNL     1      29.427  22.476  26.735  0.00  0.00    +0.000 C 
ATOM     10  C   UNL     1      30.593  23.378  26.372  0.00  0.00    +0.000 C 
ATOM     11  C   UNL     1      31.316  22.910  25.140  0.00  0.00    +0.000 C 
ATOM     12  C   UNL     1      30.935  23.837  23.994  0.00  0.00    +0.000 C 
ENDROOT
BRANCH   6  13
ATOM     13  C   UNL     1      25.896  24.363  24.827  0.00  0.00    +0.000 C 
ATOM     14  O   UNL     1      25.183  23.466  25.289  0.00  0.00    +0.000 OA
ATOM     15  N   UNL     1      25.432  25.696  25.043  0.00  0.00    +0.000 NA
BRANCH  15  16
ATOM     16  C   UNL     1      24.232  25.983  25.743  0.00  0.00    +0.000 A 
ATOM     17  C   UNL     1      23.084  26.355  25.079  0.00  0.00    +0.000 A 
ATOM     18  C   UNL     1      21.911  26.636  25.756  0.00  0.00    +0.000 A 
ATOM     19  C   UNL     1      21.899  26.540  27.123  0.00  0.00    +0.000 A 
ATOM     20  C   UNL     1      23.010  26.176  27.821  0.00  0.00    +0.000 A 
ATOM     21  C   UNL     1      24.188  25.895  27.115  0.00  0.00    +0.000 A 
ENDBRANCH  15  16
ENDBRANCH   6  13
TORSDOF 2
ENDMDL
MODEL 5
REMARK VINA RESULT:      -5.9     21.752     23.233
REMARK  Name = 
REMARK  2 active torsions:
REMARK  status: ('A' for Active; 'I' for Inactive)
REMARK    1  A    between atoms: C_6  and  C_7
REMARK    2  A    between atoms: N_9  and  C_10
REMARK                            x       y       z     vdW  Elec       q    Type
REMARK                         _______ _______ _______ _____ _____    ______ ____
ROOT
ATOM      1  N   UNL     1      24.109   4.677  13.103  0.00  0.00    +0.000 NA
ATOM      2  C   UNL     1      23.462   3.707  13.960  0.00  0.00    +0.000 A 
ATOM      3  S   UNL     1      22.081   2.752  13.669  0.00  0.00    +0.000 S 
ATOM      4  C   UNL     1      22.008   1.915  15.148  0.00  0.00    +0.000 A 
ATOM      5  C   UNL     1      23.076   2.408  15.836  0.00  0.00    +0.000 A 
ATOM      6  C   UNL     1      23.831   3.336  15.226  0.00  0.00    +0.000 A 
ATOM      7  C   UNL     1      23.491   2.004  17.238  0.00  0.00    +0.000 C 
ATOM      8  C   UNL     1      22.864   2.985  18.199  0.00  0.00    +0.000 C 
ATOM      9  C   UNL     1      21.357   2.832  18.111  0.00  0.00    +0.000 C 
ATOM     10  C   UNL     1      21.076   1.396  17.706  0.00  0.00    +0.000 C 
ATOM     11  C   UNL     1      20.108   1.304  16.559  0.00  0.00    +0.000 C 
ATOM     12  C   UNL     1      20.898   0.941  15.309  0.00  0.00    +0.000 C 
ENDROOT
BRANCH   6  13
ATOM     13  C   UNL     1      25.020   3.949  15.875  0.00  0.00    +0.000 C 
ATOM     14  O   UNL     1      26.162   3.505  15.712  0.00  0.00    +0.000 OA
ATOM     15  N   UNL     1      24.916   5.089  16.728  0.00  0.00    +0.000 NA
BRANCH  15  16
ATOM     16  C   UNL     1      26.044   5.682  17.352  0.00  0.00    +0.000 A 
ATOM     17  C   UNL     1      26.724   6.727  16.765  0.00  0.00    +0.000 A 
ATOM     18  C   UNL     1      27.823   7.309  17.369  0.00  0.00    +0.000 A 
ATOM     19  C   UNL     1      28.242   6.827  18.583  0.00  0.00    +0.000 A 
ATOM     20  C   UNL     1      27.600   5.797  19.199  0.00  0.00    +0.000 A 
ATOM     21  C   UNL     1      26.488   5.222  18.570  0.00  0.00    +0.000 A 
ENDBRANCH  15  16
ENDBRANCH   6  13
TORSDOF 2
ENDMDL
MODEL 6
REMARK VINA RESULT:      -5.9     20.585     23.090
REMARK  Name = 
REMARK  2 active torsions:
REMARK  status: ('A' for Active; 'I' for Inactive)
REMARK    1  A    between atoms: C_6  and  C_7
REMARK    2  A    between atoms: N_9  and  C_10
REMARK                            x       y       z     vdW  Elec       q    Type
REMARK                         _______ _______ _______ _____ _____    ______ ____
ROOT
ATOM      1  N   UNL     1      37.368   6.733  38.285  0.00  0.00    +0.000 NA
ATOM      2  C   UNL     1      37.178   8.077  37.784  0.00  0.00    +0.000 A 
ATOM      3  S   UNL     1      37.683   9.563  38.446  0.00  0.00    +0.000 S 
ATOM      4  C   UNL     1      37.069  10.617  37.261  0.00  0.00    +0.000 A 
ATOM      5  C   UNL     1      36.480   9.770  36.369  0.00  0.00    +0.000 A 
ATOM      6  C   UNL     1      36.534   8.456  36.636  0.00  0.00    +0.000 A 
ATOM      7  C   UNL     1      35.764  10.181  35.097  0.00  0.00    +0.000 C 
ATOM      8  C   UNL     1      34.294  10.300  35.420  0.00  0.00    +0.000 C 
ATOM      9  C   UNL     1      34.123  11.429  36.421  0.00  0.00    +0.000 C 
ATOM     10  C   UNL     1      35.255  12.413  36.183  0.00  0.00    +0.000 C 
ATOM     11  C   UNL     1      35.963  12.788  37.455  0.00  0.00    +0.000 C 
ATOM     12  C   UNL     1      37.306  12.068  37.471  0.00  0.00    +0.000 C 
ENDROOT
BRANCH   6  13
ATOM     13  C   UNL     1      35.928   7.436  35.740  0.00  0.00    +0.000 C 
ATOM     14  O   UNL     1      36.427   7.135  34.651  0.00  0.00    +0.000 OA
ATOM     15  N   UNL     1      34.729   6.740  36.084  0.00  0.00    +0.000 NA
BRANCH  15  16
ATOM     16  C   UNL     1      34.142   5.764  35.237  0.00  0.00    +0.000 A 
ATOM     17  C   UNL     1      33.026   6.047  34.480  0.00  0.00    +0.000 A 
ATOM     18  C   UNL     1      32.450   5.101  33.653  0.00  0.00    +0.000 A 
ATOM     19  C   UNL     1      33.009   3.850  33.590  0.00  0.00    +0.000 A 
ATOM     20  C   UNL     1      34.112   3.527  34.320  0.00  0.00    +0.000 A 
ATOM     21  C   UNL     1      34.680   4.501  35.152  0.00  0.00    +0.000 A 
ENDBRANCH  15  16
ENDBRANCH   6  13
TORSDOF 2
ENDMDL
MODEL 7
REMARK VINA RESULT:      -5.6      4.548      8.405
REMARK  Name = 
REMARK  2 active torsions:
REMARK  status: ('A' for Active; 'I' for Inactive)
REMARK    1  A    between atoms: C_6  and  C_7
REMARK    2  A    between atoms: N_9  and  C_10
REMARK                            x       y       z     vdW  Elec       q    Type
REMARK                         _______ _______ _______ _____ _____    ______ ____
ROOT
ATOM      1  N   UNL     1      32.791  24.981  25.884  0.00  0.00    +0.000 NA
ATOM      2  C   UNL     1      31.539  24.312  25.610  0.00  0.00    +0.000 A 
ATOM      3  S   UNL     1      30.617  24.278  24.178  0.00  0.00    +0.000 S 
ATOM      4  C   UNL     1      29.332  23.292  24.698  0.00  0.00    +0.000 A 
ATOM      5  C   UNL     1      29.662  23.012  25.991  0.00  0.00    +0.000 A 
ATOM      6  C   UNL     1      30.802  23.538  26.467  0.00  0.00    +0.000 A 
ATOM      7  C   UNL     1      28.852  22.157  26.947  0.00  0.00    +0.000 C 
ATOM      8  C   UNL     1      27.963  23.082  27.743  0.00  0.00    +0.000 C 
ATOM      9  C   UNL     1      26.986  23.737  26.782  0.00  0.00    +0.000 C 
ATOM     10  C   UNL     1      26.775  22.770  25.631  0.00  0.00    +0.000 C 
ATOM     11  C   UNL     1      26.927  23.435  24.291  0.00  0.00    +0.000 C 
ATOM     12  C   UNL     1      28.266  23.006  23.705  0.00  0.00    +0.000 C 
ENDROOT
BRANCH   6  13
ATOM     13  C   UNL     1      31.266  23.304  27.861  0.00  0.00    +0.000 C 
ATOM     14  O   UNL     1      31.191  24.173  28.735  0.00  0.00    +0.000 OA
ATOM     15  N   UNL     1      31.829  22.058  28.274  0.00  0.00    +0.000 NA
BRANCH  15  16
ATOM     16  C   UNL     1      32.274  21.823  29.600  0.00  0.00    +0.000 A 
ATOM     17  C   UNL     1      31.387  21.715  30.648  0.00  0.00    +0.000 A 
ATOM     18  C   UNL     1      31.816  21.487  31.943  0.00  0.00    +0.000 A 
ATOM     19  C   UNL     1      33.161  21.366  32.182  0.00  0.00    +0.000 A 
ATOM     20  C   UNL     1      34.073  21.466  31.176  0.00  0.00    +0.000 A 
ATOM     21  C   UNL     1      33.617  21.697  29.872  0.00  0.00    +0.000 A 
ENDBRANCH  15  16
ENDBRANCH   6  13
TORSDOF 2
ENDMDL
MODEL 8
REMARK VINA RESULT:      -5.6      3.938      6.679
REMARK  Name = 
REMARK  2 active torsions:
REMARK  status: ('A' for Active; 'I' for Inactive)
REMARK    1  A    between atoms: C_6  and  C_7
REMARK    2  A    between atoms: N_9  and  C_10
REMARK                            x       y       z     vdW  Elec       q    Type
REMARK                         _______ _______ _______ _____ _____    ______ ____
ROOT
ATOM      1  N   UNL     1      28.791  25.304  29.980  0.00  0.00    +0.000 NA
ATOM      2  C   UNL     1      28.978  24.529  28.773  0.00  0.00    +0.000 A 
ATOM      3  S   UNL     1      30.414  23.931  28.078  0.00  0.00    +0.000 S 
ATOM      4  C   UNL     1      29.759  23.154  26.714  0.00  0.00    +0.000 A 
ATOM      5  C   UNL     1      28.421  23.384  26.840  0.00  0.00    +0.000 A 
ATOM      6  C   UNL     1      28.012  24.096  27.903  0.00  0.00    +0.000 A 
ATOM      7  C   UNL     1      27.346  22.909  25.882  0.00  0.00    +0.000 C 
ATOM      8  C   UNL     1      27.089  24.024  24.897  0.00  0.00    +0.000 C 
ATOM      9  C   UNL     1      28.355  24.237  24.087  0.00  0.00    +0.000 C 
ATOM     10  C   UNL     1      29.084  22.906  24.038  0.00  0.00    +0.000 C 
ATOM     11  C   UNL     1      30.537  23.036  24.401  0.00  0.00    +0.000 C 
ATOM     12  C   UNL     1      30.719  22.477  25.806  0.00  0.00    +0.000 C 
ENDROOT
BRANCH   6  13
ATOM     13  C   UNL     1      26.580  24.412  28.147  0.00  0.00    +0.000 C 
ATOM     14  O   UNL     1      25.799  23.592  28.642  0.00  0.00    +0.000 OA
ATOM     15  N   UNL     1      26.018  25.685  27.824  0.00  0.00    +0.000 NA
BRANCH  15  16
ATOM     16  C   UNL     1      24.653  25.998  28.053  0.00  0.00    +0.000 A 
ATOM     17  C   UNL     1      24.214  26.441  29.281  0.00  0.00    +0.000 A 
ATOM     18  C   UNL     1      22.885  26.748  29.510  0.00  0.00    +0.000 A 
ATOM     19  C   UNL     1      21.988  26.603  28.484  0.00  0.00    +0.000 A 
ATOM     20  C   UNL     1      22.378  26.169  27.254  0.00  0.00    +0.000 A 
ATOM     21  C   UNL     1      23.729  25.864  27.043  0.00  0.00    +0.000 A 
ENDBRANCH  15  16
ENDBRANCH   6  13
TORSDOF 2
ENDMDL
MODEL 9
REMARK VINA RESULT:      -5.5     21.350     23.062
REMARK  Name = 
REMARK  2 active torsions:
REMARK  status: ('A' for Active; 'I' for Inactive)
REMARK    1  A    between atoms: C_6  and  C_7
REMARK    2  A    between atoms: N_9  and  C_10
REMARK                            x       y       z     vdW  Elec       q    Type
REMARK                         _______ _______ _______ _____ _____    ______ ____
ROOT
ATOM      1  N   UNL     1      26.773   2.514  13.674  0.00  0.00    +0.000 NA
ATOM      2  C   UNL     1      26.974   3.733  14.425  0.00  0.00    +0.000 A 
ATOM      3  S   UNL     1      28.104   4.985  14.181  0.00  0.00    +0.000 S 
ATOM      4  C   UNL     1      27.671   6.005  15.471  0.00  0.00    +0.000 A 
ATOM      5  C   UNL     1      26.643   5.334  16.064  0.00  0.00    +0.000 A 
ATOM      6  C   UNL     1      26.280   4.158  15.528  0.00  0.00    +0.000 A 
ATOM      7  C   UNL     1      25.870   5.796  17.284  0.00  0.00    +0.000 C 
ATOM      8  C   UNL     1      26.516   5.170  18.497  0.00  0.00    +0.000 C 
ATOM      9  C   UNL     1      27.925   5.722  18.617  0.00  0.00    +0.000 C 
ATOM     10  C   UNL     1      27.916   7.110  18.001  0.00  0.00    +0.000 C 
ATOM     11  C   UNL     1      29.039   7.308  17.021  0.00  0.00    +0.000 C 
ATOM     12  C   UNL     1      28.449   7.262  15.618  0.00  0.00    +0.000 C 
ENDROOT
BRANCH   6  13
ATOM     13  C   UNL     1      25.175   3.335  16.086  0.00  0.00    +0.000 C 
ATOM     14  O   UNL     1      25.382   2.381  16.844  0.00  0.00    +0.000 OA
ATOM     15  N   UNL     1      23.805   3.596  15.781  0.00  0.00    +0.000 NA
BRANCH  15  16
ATOM     16  C   UNL     1      22.742   2.817  16.308  0.00  0.00    +0.000 A 
ATOM     17  C   UNL     1      22.161   1.805  15.576  0.00  0.00    +0.000 A 
ATOM     18  C   UNL     1      21.126   1.043  16.085  0.00  0.00    +0.000 A 
ATOM     19  C   UNL     1      20.671   1.308  17.351  0.00  0.00    +0.000 A 
ATOM     20  C   UNL     1      21.216   2.299  18.110  0.00  0.00    +0.000 A 
ATOM     21  C   UNL     1      22.264   3.059  17.575  0.00  0.00    +0.000 A 
ENDBRANCH  15  16
ENDBRANCH   6  13
TORSDOF 2
ENDMDL
MODEL 10
REMARK VINA RESULT:      -5.5      4.878      7.603
REMARK  Name = 
REMARK  2 active torsions:
REMARK  status: ('A' for Active; 'I' for Inactive)
REMARK    1  A    between atoms: C_6  and  C_7
REMARK    2  A    between atoms: N_9  and  C_10
REMARK                            x       y       z     vdW  Elec       q    Type
REMARK                         _______ _______ _______ _____ _____    ______ ____
ROOT
ATOM      1  N   UNL     1      28.852  24.424  31.614  0.00  0.00    +0.000 NA
ATOM      2  C   UNL     1      29.009  23.809  30.314  0.00  0.00    +0.000 A 
ATOM      3  S   UNL     1      30.391  23.109  29.604  0.00  0.00    +0.000 S 
ATOM      4  C   UNL     1      29.727  22.638  28.110  0.00  0.00    +0.000 A 
ATOM      5  C   UNL     1      28.428  23.044  28.208  0.00  0.00    +0.000 A 
ATOM      6  C   UNL     1      28.053  23.651  29.345  0.00  0.00    +0.000 A 
ATOM      7  C   UNL     1      27.364  22.874  27.141  0.00  0.00    +0.000 C 
ATOM      8  C   UNL     1      27.333  24.143  26.323  0.00  0.00    +0.000 C 
ATOM      9  C   UNL     1      28.668  24.279  25.614  0.00  0.00    +0.000 C 
ATOM     10  C   UNL     1      29.205  22.875  25.399  0.00  0.00    +0.000 C 
ATOM     11  C   UNL     1      30.634  22.735  25.844  0.00  0.00    +0.000 C 
ATOM     12  C   UNL     1      30.642  21.963  27.156  0.00  0.00    +0.000 C 
ENDROOT
BRANCH   6  13
ATOM     13  C   UNL     1      26.666  24.137  29.568  0.00  0.00    +0.000 C 
ATOM     14  O   UNL     1      25.754  23.387  29.931  0.00  0.00    +0.000 OA
ATOM     15  N   UNL     1      26.302  25.505  29.377  0.00  0.00    +0.000 NA
BRANCH  15  16
ATOM     16  C   UNL     1      24.982  25.981  29.587  0.00  0.00    +0.000 A 
ATOM     17  C   UNL     1      24.119  26.195  28.534  0.00  0.00    +0.000 A 
ATOM     18  C   UNL     1      22.831  26.658  28.734  0.00  0.00    +0.000 A 
ATOM     19  C   UNL     1      22.410  26.910  30.014  0.00  0.00    +0.000 A 
ATOM     20  C   UNL     1      23.229  26.712  31.083  0.00  0.00    +0.000 A 
ATOM     21  C   UNL     1      24.530  26.242  30.860  0.00  0.00    +0.000 A 
ENDBRANCH  15  16
ENDBRANCH   6  13
TORSDOF 2
ENDMDL
