MODEL 1
REMARK VINA RESULT:      -9.0      0.000      0.000
REMARK  Name = 
REMARK  6 active torsions:
REMARK  status: ('A' for Active; 'I' for Inactive)
REMARK    1  A    between atoms: C_3  and  C_4
REMARK    2  A    between atoms: N_6  and  C_7
REMARK    3  A    between atoms: C_7  and  C_8
REMARK    4  A    between atoms: N_24  and  C_25
REMARK    5  A    between atoms: C_25  and  C_26
REMARK    6  A    between atoms: C_26  and  C_27
REMARK                            x       y       z     vdW  Elec       q    Type
REMARK                         _______ _______ _______ _____ _____    ______ ____
ROOT
ATOM      1  N   UNL     1      34.645   2.098  16.548  0.00  0.00    +0.000 NA
ATOM      2  C   UNL     1      35.878   1.545  16.068  0.00  0.00    +0.000 A 
ATOM      3  C   UNL     1      36.981   2.297  15.685  0.00  0.00    +0.000 A 
ATOM      4  C   UNL     1      37.958   1.400  15.286  0.00  0.00    +0.000 A 
ATOM      5  N   UNL     1      39.213   1.519  14.823  0.00  0.00    +0.000 NA
ATOM      6  C   UNL     1      39.935   0.405  14.511  0.00  0.00    +0.000 A 
ATOM      7  C   UNL     1      41.227   0.504  14.033  0.00  0.00    +0.000 A 
ATOM      8  C   UNL     1      41.987  -0.601  13.709  0.00  0.00    +0.000 A 
ATOM      9  C   UNL     1      41.456  -1.866  13.859  0.00  0.00    +0.000 A 
ATOM     10  C   UNL     1      40.167  -1.987  14.336  0.00  0.00    +0.000 A 
ATOM     11  C   UNL     1      39.407  -0.861  14.661  0.00  0.00    +0.000 A 
ATOM     12  N   UNL     1      38.150  -0.974  15.127  0.00  0.00    +0.000 NA
ATOM     13  C   UNL     1      37.440   0.133  15.433  0.00  0.00    +0.000 A 
ATOM     14  N   UNL     1      36.187   0.259  15.905  0.00  0.00    +0.000 N 
ENDROOT
BRANCH   3  15
ATOM     15  C   UNL     1      37.125   3.737  15.683  0.00  0.00    +0.000 C 
ATOM     16  O   UNL     1      36.589   4.405  14.778  0.00  0.00    +0.000 OA
ATOM     17  N   UNL     1      37.860   4.387  16.691  0.00  0.00    +0.000 NA
BRANCH  17  18
ATOM     18  C   UNL     1      38.082   5.792  16.812  0.00  0.00    +0.000 C 
BRANCH  18  19
ATOM     19  C   UNL     1      39.288   6.017  17.675  0.00  0.00    +0.000 A 
ATOM     20  C   UNL     1      39.215   6.069  19.032  0.00  0.00    +0.000 A 
ATOM     21  C   UNL     1      40.313   6.277  19.802  0.00  0.00    +0.000 A 
ATOM     22  C   UNL     1      41.531   6.439  19.195  0.00  0.00    +0.000 A 
ATOM     23  C   UNL     1      41.626   6.389  17.806  0.00  0.00    +0.000 A 
ATOM     24  C   UNL     1      40.500   6.177  17.049  0.00  0.00    +0.000 A 
ENDBRANCH  18  19
ENDBRANCH  17  18
ENDBRANCH   3  15
BRANCH  14  25
ATOM     25  C   UNL     1      35.295  -0.833  16.198  0.00  0.00    +0.000 C 
BRANCH  25  26
ATOM     26  C   UNL     1      35.427  -1.288  17.640  0.00  0.00    +0.000 C 
BRANCH  26  27
ATOM     27  C   UNL     1      36.492  -2.367  17.652  0.00  0.00    +0.000 C 
ATOM     28  C   UNL     1      37.506  -2.305  18.461  0.00  0.00    +0.000 C 
ATOM     29  C   UNL     1      38.564  -3.315  18.520  0.00  0.00    +0.000 C 
ATOM     30  C   UNL     1      38.660  -4.040  17.198  0.00  0.00    +0.000 C 
ATOM     31  C   UNL     1      37.258  -4.563  16.851  0.00  0.00    +0.000 C 
ATOM     32  C   UNL     1      36.282  -3.461  16.692  0.00  0.00    +0.000 C 
ENDBRANCH  26  27
ENDBRANCH  25  26
ENDBRANCH  14  25
TORSDOF 6
ENDMDL
MODEL 2
REMARK VINA RESULT:      -8.8      1.536      2.124
REMARK  Name = 
REMARK  6 active torsions:
REMARK  status: ('A' for Active; 'I' for Inactive)
REMARK    1  A    between atoms: C_3  and  C_4
REMARK    2  A    between atoms: N_6  and  C_7
REMARK    3  A    between atoms: C_7  and  C_8
REMARK    4  A    between atoms: N_24  and  C_25
REMARK    5  A    between atoms: C_25  and  C_26
REMARK    6  A    between atoms: C_26  and  C_27
REMARK                            x       y       z     vdW  Elec       q    Type
REMARK                         _______ _______ _______ _____ _____    ______ ____
ROOT
ATOM      1  N   UNL     1      36.268   4.326  15.202  0.00  0.00    +0.000 NA
ATOM      2  C   UNL     1      37.111   3.177  15.043  0.00  0.00    +0.000 A 
ATOM      3  C   UNL     1      38.491   3.228  14.899  0.00  0.00    +0.000 A 
ATOM      4  C   UNL     1      38.929   1.920  14.772  0.00  0.00    +0.000 A 
ATOM      5  N   UNL     1      40.129   1.341  14.609  0.00  0.00    +0.000 NA
ATOM      6  C   UNL     1      40.226  -0.017  14.515  0.00  0.00    +0.000 A 
ATOM      7  C   UNL     1      41.450  -0.634  14.348  0.00  0.00    +0.000 A 
ATOM      8  C   UNL     1      41.586  -2.003  14.250  0.00  0.00    +0.000 A 
ATOM      9  C   UNL     1      40.467  -2.809  14.318  0.00  0.00    +0.000 A 
ATOM     10  C   UNL     1      39.235  -2.213  14.486  0.00  0.00    +0.000 A 
ATOM     11  C   UNL     1      39.110  -0.825  14.585  0.00  0.00    +0.000 A 
ATOM     12  N   UNL     1      37.910  -0.239  14.748  0.00  0.00    +0.000 NA
ATOM     13  C   UNL     1      37.821   1.105  14.840  0.00  0.00    +0.000 A 
ATOM     14  N   UNL     1      36.745   1.896  15.003  0.00  0.00    +0.000 N 
ENDROOT
BRANCH   3  15
ATOM     15  C   UNL     1      39.346   4.396  14.879  0.00  0.00    +0.000 C 
ATOM     16  O   UNL     1      39.750   4.839  13.787  0.00  0.00    +0.000 OA
ATOM     17  N   UNL     1      39.722   5.031  16.075  0.00  0.00    +0.000 NA
BRANCH  17  18
ATOM     18  C   UNL     1      40.554   6.184  16.202  0.00  0.00    +0.000 C 
BRANCH  18  19
ATOM     19  C   UNL     1      40.959   6.332  17.639  0.00  0.00    +0.000 A 
ATOM     20  C   UNL     1      40.066   6.256  18.661  0.00  0.00    +0.000 A 
ATOM     21  C   UNL     1      40.444   6.395  19.957  0.00  0.00    +0.000 A 
ATOM     22  C   UNL     1      41.766   6.616  20.244  0.00  0.00    +0.000 A 
ATOM     23  C   UNL     1      42.697   6.695  19.211  0.00  0.00    +0.000 A 
ATOM     24  C   UNL     1      42.289   6.552  17.908  0.00  0.00    +0.000 A 
ENDBRANCH  18  19
ENDBRANCH  17  18
ENDBRANCH   3  15
BRANCH  14  25
ATOM     25  C   UNL     1      35.386   1.437  15.119  0.00  0.00    +0.000 C 
BRANCH  25  26
ATOM     26  C   UNL     1      34.889   1.527  16.551  0.00  0.00    +0.000 C 
BRANCH  26  27
ATOM     27  C   UNL     1      35.361   0.265  17.248  0.00  0.00    +0.000 C 
ATOM     28  C   UNL     1      36.007   0.318  18.374  0.00  0.00    +0.000 C 
ATOM     29  C   UNL     1      36.487  -0.862  19.093  0.00  0.00    +0.000 C 
ATOM     30  C   UNL     1      36.685  -2.009  18.130  0.00  0.00    +0.000 C 
ATOM     31  C   UNL     1      35.376  -2.192  17.349  0.00  0.00    +0.000 C 
ATOM     32  C   UNL     1      35.034  -0.990  16.555  0.00  0.00    +0.000 C 
ENDBRANCH  26  27
ENDBRANCH  25  26
ENDBRANCH  14  25
TORSDOF 6
ENDMDL
MODEL 3
REMARK VINA RESULT:      -8.6      1.761      4.352
REMARK  Name = 
REMARK  6 active torsions:
REMARK  status: ('A' for Active; 'I' for Inactive)
REMARK    1  A    between atoms: C_3  and  C_4
REMARK    2  A    between atoms: N_6  and  C_7
REMARK    3  A    between atoms: C_7  and  C_8
REMARK    4  A    between atoms: N_24  and  C_25
REMARK    5  A    between atoms: C_25  and  C_26
REMARK    6  A    between atoms: C_26  and  C_27
REMARK                            x       y       z     vdW  Elec       q    Type
REMARK                         _______ _______ _______ _____ _____    ______ ____
ROOT
ATOM      1  N   UNL     1      39.911   4.278  13.769  0.00  0.00    +0.000 NA
ATOM      2  C   UNL     1      39.023   3.314  14.351  0.00  0.00    +0.000 A 
ATOM      3  C   UNL     1      38.303   3.515  15.521  0.00  0.00    +0.000 A 
ATOM      4  C   UNL     1      37.573   2.359  15.745  0.00  0.00    +0.000 A 
ATOM      5  N   UNL     1      36.710   1.959  16.693  0.00  0.00    +0.000 NA
ATOM      6  C   UNL     1      36.143   0.720  16.623  0.00  0.00    +0.000 A 
ATOM      7  C   UNL     1      35.254   0.289  17.587  0.00  0.00    +0.000 A 
ATOM      8  C   UNL     1      34.661  -0.957  17.548  0.00  0.00    +0.000 A 
ATOM      9  C   UNL     1      34.955  -1.823  16.515  0.00  0.00    +0.000 A 
ATOM     10  C   UNL     1      35.842  -1.411  15.542  0.00  0.00    +0.000 A 
ATOM     11  C   UNL     1      36.435  -0.148  15.591  0.00  0.00    +0.000 A 
ATOM     12  N   UNL     1      37.299   0.258  14.644  0.00  0.00    +0.000 NA
ATOM     13  C   UNL     1      37.857   1.486  14.719  0.00  0.00    +0.000 A 
ATOM     14  N   UNL     1      38.733   2.094  13.899  0.00  0.00    +0.000 N 
ENDROOT
BRANCH   3  15
ATOM     15  C   UNL     1      38.288   4.684  16.374  0.00  0.00    +0.000 C 
ATOM     16  O   UNL     1      37.758   5.734  15.963  0.00  0.00    +0.000 OA
ATOM     17  N   UNL     1      38.862   4.645  17.657  0.00  0.00    +0.000 NA
BRANCH  17  18
ATOM     18  C   UNL     1      38.918   5.717  18.598  0.00  0.00    +0.000 C 
BRANCH  18  19
ATOM     19  C   UNL     1      40.353   6.106  18.802  0.00  0.00    +0.000 A 
ATOM     20  C   UNL     1      41.211   6.303  17.766  0.00  0.00    +0.000 A 
ATOM     21  C   UNL     1      42.507   6.651  17.964  0.00  0.00    +0.000 A 
ATOM     22  C   UNL     1      42.966   6.809  19.246  0.00  0.00    +0.000 A 
ATOM     23  C   UNL     1      42.102   6.612  20.321  0.00  0.00    +0.000 A 
ATOM     24  C   UNL     1      40.794   6.260  20.094  0.00  0.00    +0.000 A 
ENDBRANCH  18  19
ENDBRANCH  17  18
ENDBRANCH   3  15
BRANCH  14  25
ATOM     25  C   UNL     1      39.287   1.520  12.701  0.00  0.00    +0.000 C 
BRANCH  25  26
ATOM     26  C   UNL     1      40.591   0.795  12.984  0.00  0.00    +0.000 C 
BRANCH  26  27
ATOM     27  C   UNL     1      40.219  -0.634  13.331  0.00  0.00    +0.000 C 
ATOM     28  C   UNL     1      39.566  -1.383  12.494  0.00  0.00    +0.000 C 
ATOM     29  C   UNL     1      39.179  -2.767  12.771  0.00  0.00    +0.000 C 
ATOM     30  C   UNL     1      39.078  -2.986  14.262  0.00  0.00    +0.000 C 
ATOM     31  C   UNL     1      40.401  -2.526  14.891  0.00  0.00    +0.000 C 
ATOM     32  C   UNL     1      40.648  -1.084  14.664  0.00  0.00    +0.000 C 
ENDBRANCH  26  27
ENDBRANCH  25  26
ENDBRANCH  14  25
TORSDOF 6
ENDMDL
MODEL 4
REMARK VINA RESULT:      -8.4      1.631      4.983
REMARK  Name = 
REMARK  6 active torsions:
REMARK  status: ('A' for Active; 'I' for Inactive)
REMARK    1  A    between atoms: C_3  and  C_4
REMARK    2  A    between atoms: N_6  and  C_7
REMARK    3  A    between atoms: C_7  and  C_8
REMARK    4  A    between atoms: N_24  and  C_25
REMARK    5  A    between atoms: C_25  and  C_26
REMARK    6  A    between atoms: C_26  and  C_27
REMARK                            x       y       z     vdW  Elec       q    Type
REMARK                         _______ _______ _______ _____ _____    ______ ____
ROOT
ATOM      1  N   UNL     1      40.101   3.076  13.787  0.00  0.00    +0.000 NA
ATOM      2  C   UNL     1      39.103   2.199  14.327  0.00  0.00    +0.000 A 
ATOM      3  C   UNL     1      38.125   2.585  15.234  0.00  0.00    +0.000 A 
ATOM      4  C   UNL     1      37.366   1.459  15.508  0.00  0.00    +0.000 A 
ATOM      5  N   UNL     1      36.304   1.207  16.289  0.00  0.00    +0.000 NA
ATOM      6  C   UNL     1      35.774  -0.050  16.339  0.00  0.00    +0.000 A 
ATOM      7  C   UNL     1      34.683  -0.332  17.135  0.00  0.00    +0.000 A 
ATOM      8  C   UNL     1      34.121  -1.590  17.209  0.00  0.00    +0.000 A 
ATOM      9  C   UNL     1      34.655  -2.623  16.467  0.00  0.00    +0.000 A 
ATOM     10  C   UNL     1      35.746  -2.362  15.664  0.00  0.00    +0.000 A 
ATOM     11  C   UNL     1      36.306  -1.085  15.597  0.00  0.00    +0.000 A 
ATOM     12  N   UNL     1      37.370  -0.826  14.815  0.00  0.00    +0.000 NA
ATOM     13  C   UNL     1      37.889   0.420  14.772  0.00  0.00    +0.000 A 
ATOM     14  N   UNL     1      38.933   0.902  14.073  0.00  0.00    +0.000 N 
ENDROOT
BRANCH   3  15
ATOM     15  C   UNL     1      37.904   3.895  15.809  0.00  0.00    +0.000 C 
ATOM     16  O   UNL     1      37.155   4.701  15.224  0.00  0.00    +0.000 OA
ATOM     17  N   UNL     1      38.522   4.263  17.016  0.00  0.00    +0.000 NA
BRANCH  17  18
ATOM     18  C   UNL     1      38.393   5.514  17.693  0.00  0.00    +0.000 C 
BRANCH  18  19
ATOM     19  C   UNL     1      39.738   5.918  18.219  0.00  0.00    +0.000 A 
ATOM     20  C   UNL     1      39.974   6.118  19.543  0.00  0.00    +0.000 A 
ATOM     21  C   UNL     1      41.195   6.487  20.007  0.00  0.00    +0.000 A 
ATOM     22  C   UNL     1      42.220   6.664  19.115  0.00  0.00    +0.000 A 
ATOM     23  C   UNL     1      41.998   6.464  17.755  0.00  0.00    +0.000 A 
ATOM     24  C   UNL     1      40.754   6.090  17.311  0.00  0.00    +0.000 A 
ENDBRANCH  18  19
ENDBRANCH  17  18
ENDBRANCH   3  15
BRANCH  14  25
ATOM     25  C   UNL     1      39.758   0.136  13.176  0.00  0.00    +0.000 C 
BRANCH  25  26
ATOM     26  C   UNL     1      40.704  -0.779  13.935  0.00  0.00    +0.000 C 
BRANCH  26  27
ATOM     27  C   UNL     1      42.093  -0.195  13.763  0.00  0.00    +0.000 C 
ATOM     28  C   UNL     1      42.329   0.742  12.895  0.00  0.00    +0.000 C 
ATOM     29  C   UNL     1      43.646   1.344  12.684  0.00  0.00    +0.000 C 
ATOM     30  C   UNL     1      44.728   0.380  13.108  0.00  0.00    +0.000 C 
ATOM     31  C   UNL     1      44.421  -0.062  14.546  0.00  0.00    +0.000 C 
ATOM     32  C   UNL     1      43.124  -0.770  14.641  0.00  0.00    +0.000 C 
ENDBRANCH  26  27
ENDBRANCH  25  26
ENDBRANCH  14  25
TORSDOF 6
ENDMDL
MODEL 5
REMARK VINA RESULT:      -8.3      1.751      4.753
REMARK  Name = 
REMARK  6 active torsions:
REMARK  status: ('A' for Active; 'I' for Inactive)
REMARK    1  A    between atoms: C_3  and  C_4
REMARK    2  A    between atoms: N_6  and  C_7
REMARK    3  A    between atoms: C_7  and  C_8
REMARK    4  A    between atoms: N_24  and  C_25
REMARK    5  A    between atoms: C_25  and  C_26
REMARK    6  A    between atoms: C_26  and  C_27
REMARK                            x       y       z     vdW  Elec       q    Type
REMARK                         _______ _______ _______ _____ _____    ______ ____
ROOT
ATOM      1  N   UNL     1      39.937   3.375  13.653  0.00  0.00    +0.000 NA
ATOM      2  C   UNL     1      38.985   2.465  14.221  0.00  0.00    +0.000 A 
ATOM      3  C   UNL     1      38.096   2.790  15.237  0.00  0.00    +0.000 A 
ATOM      4  C   UNL     1      37.356   1.650  15.501  0.00  0.00    +0.000 A 
ATOM      5  N   UNL     1      36.367   1.347  16.357  0.00  0.00    +0.000 NA
ATOM      6  C   UNL     1      35.832   0.092  16.368  0.00  0.00    +0.000 A 
ATOM      7  C   UNL     1      34.815  -0.241  17.240  0.00  0.00    +0.000 A 
ATOM      8  C   UNL     1      34.250  -1.500  17.278  0.00  0.00    +0.000 A 
ATOM      9  C   UNL     1      34.705  -2.481  16.420  0.00  0.00    +0.000 A 
ATOM     10  C   UNL     1      35.721  -2.168  15.542  0.00  0.00    +0.000 A 
ATOM     11  C   UNL     1      36.284  -0.891  15.511  0.00  0.00    +0.000 A 
ATOM     12  N   UNL     1      37.275  -0.581  14.655  0.00  0.00    +0.000 NA
ATOM     13  C   UNL     1      37.800   0.663  14.650  0.00  0.00    +0.000 A 
ATOM     14  N   UNL     1      38.781   1.189  13.895  0.00  0.00    +0.000 N 
ENDROOT
BRANCH   3  15
ATOM     15  C   UNL     1      37.941   4.058  15.919  0.00  0.00    +0.000 C 
ATOM     16  O   UNL     1      37.266   4.960  15.385  0.00  0.00    +0.000 OA
ATOM     17  N   UNL     1      38.539   4.278  17.171  0.00  0.00    +0.000 NA
BRANCH  17  18
ATOM     18  C   UNL     1      38.468   5.472  17.951  0.00  0.00    +0.000 C 
BRANCH  18  19
ATOM     19  C   UNL     1      39.862   5.912  18.289  0.00  0.00    +0.000 A 
ATOM     20  C   UNL     1      40.821   6.088  17.342  0.00  0.00    +0.000 A 
ATOM     21  C   UNL     1      42.080   6.483  17.659  0.00  0.00    +0.000 A 
ATOM     22  C   UNL     1      42.394   6.711  18.974  0.00  0.00    +0.000 A 
ATOM     23  C   UNL     1      41.424   6.537  19.959  0.00  0.00    +0.000 A 
ATOM     24  C   UNL     1      40.158   6.136  19.611  0.00  0.00    +0.000 A 
ENDBRANCH  18  19
ENDBRANCH  17  18
ENDBRANCH   3  15
BRANCH  14  25
ATOM     25  C   UNL     1      39.514   0.485  12.875  0.00  0.00    +0.000 C 
BRANCH  25  26
ATOM     26  C   UNL     1      40.667  -0.306  13.466  0.00  0.00    +0.000 C 
BRANCH  26  27
ATOM     27  C   UNL     1      40.916  -1.468  12.524  0.00  0.00    +0.000 C 
ATOM     28  C   UNL     1      41.863  -2.328  12.750  0.00  0.00    +0.000 C 
ATOM     29  C   UNL     1      42.151  -3.468  11.879  0.00  0.00    +0.000 C 
ATOM     30  C   UNL     1      41.673  -3.180  10.476  0.00  0.00    +0.000 C 
ATOM     31  C   UNL     1      40.197  -2.766  10.563  0.00  0.00    +0.000 C 
ATOM     32  C   UNL     1      40.017  -1.532  11.362  0.00  0.00    +0.000 C 
ENDBRANCH  26  27
ENDBRANCH  25  26
ENDBRANCH  14  25
TORSDOF 6
ENDMDL
MODEL 6
REMARK VINA RESULT:      -7.5     26.108     27.965
REMARK  Name = 
REMARK  6 active torsions:
REMARK  status: ('A' for Active; 'I' for Inactive)
REMARK    1  A    between atoms: C_3  and  C_4
REMARK    2  A    between atoms: N_6  and  C_7
REMARK    3  A    between atoms: C_7  and  C_8
REMARK    4  A    between atoms: N_24  and  C_25
REMARK    5  A    between atoms: C_25  and  C_26
REMARK    6  A    between atoms: C_26  and  C_27
REMARK                            x       y       z     vdW  Elec       q    Type
REMARK                         _______ _______ _______ _____ _____    ______ ____
ROOT
ATOM      1  N   UNL     1      25.211  14.079  40.364  0.00  0.00    +0.000 NA
ATOM      2  C   UNL     1      26.611  14.166  40.066  0.00  0.00    +0.000 A 
ATOM      3  C   UNL     1      27.177  15.107  39.216  0.00  0.00    +0.000 A 
ATOM      4  C   UNL     1      28.539  14.858  39.194  0.00  0.00    +0.000 A 
ATOM      5  N   UNL     1      29.589  15.418  38.572  0.00  0.00    +0.000 NA
ATOM      6  C   UNL     1      30.844  14.922  38.766  0.00  0.00    +0.000 A 
ATOM      7  C   UNL     1      31.938  15.483  38.137  0.00  0.00    +0.000 A 
ATOM      8  C   UNL     1      33.221  15.007  38.310  0.00  0.00    +0.000 A 
ATOM      9  C   UNL     1      33.445  13.928  39.141  0.00  0.00    +0.000 A 
ATOM     10  C   UNL     1      32.366  13.354  39.780  0.00  0.00    +0.000 A 
ATOM     11  C   UNL     1      31.072  13.843  39.597  0.00  0.00    +0.000 A 
ATOM     12  N   UNL     1      30.017  13.286  40.218  0.00  0.00    +0.000 NA
ATOM     13  C   UNL     1      28.777  13.783  40.021  0.00  0.00    +0.000 A 
ATOM     14  N   UNL     1      27.593  13.392  40.529  0.00  0.00    +0.000 N 
ENDROOT
BRANCH   3  15
ATOM     15  C   UNL     1      26.513  16.159  38.477  0.00  0.00    +0.000 C 
ATOM     16  O   UNL     1      26.122  17.177  39.079  0.00  0.00    +0.000 OA
ATOM     17  N   UNL     1      26.308  16.044  37.091  0.00  0.00    +0.000 NA
BRANCH  17  18
ATOM     18  C   UNL     1      25.672  16.999  36.241  0.00  0.00    +0.000 C 
BRANCH  18  19
ATOM     19  C   UNL     1      25.473  16.383  34.888  0.00  0.00    +0.000 A 
ATOM     20  C   UNL     1      24.932  17.069  33.846  0.00  0.00    +0.000 A 
ATOM     21  C   UNL     1      24.753  16.500  32.627  0.00  0.00    +0.000 A 
ATOM     22  C   UNL     1      25.130  15.195  32.440  0.00  0.00    +0.000 A 
ATOM     23  C   UNL     1      25.687  14.476  33.495  0.00  0.00    +0.000 A 
ATOM     24  C   UNL     1      25.857  15.075  34.719  0.00  0.00    +0.000 A 
ENDBRANCH  18  19
ENDBRANCH  17  18
ENDBRANCH   3  15
BRANCH  14  25
ATOM     25  C   UNL     1      27.401  12.297  41.442  0.00  0.00    +0.000 C 
BRANCH  25  26
ATOM     26  C   UNL     1      26.899  11.056  40.724  0.00  0.00    +0.000 C 
BRANCH  26  27
ATOM     27  C   UNL     1      27.833   9.928  41.116  0.00  0.00    +0.000 C 
ATOM     28  C   UNL     1      27.453   8.989  41.930  0.00  0.00    +0.000 C 
ATOM     29  C   UNL     1      28.307   7.876  42.345  0.00  0.00    +0.000 C 
ATOM     30  C   UNL     1      29.761   8.269  42.226  0.00  0.00    +0.000 C 
ATOM     31  C   UNL     1      29.989   8.786  40.799  0.00  0.00    +0.000 C 
ATOM     32  C   UNL     1      29.173   9.988  40.511  0.00  0.00    +0.000 C 
ENDBRANCH  26  27
ENDBRANCH  25  26
ENDBRANCH  14  25
TORSDOF 6
ENDMDL
MODEL 7
REMARK VINA RESULT:      -7.5     26.549     30.086
REMARK  Name = 
REMARK  6 active torsions:
REMARK  status: ('A' for Active; 'I' for Inactive)
REMARK    1  A    between atoms: C_3  and  C_4
REMARK    2  A    between atoms: N_6  and  C_7
REMARK    3  A    between atoms: C_7  and  C_8
REMARK    4  A    between atoms: N_24  and  C_25
REMARK    5  A    between atoms: C_25  and  C_26
REMARK    6  A    between atoms: C_26  and  C_27
REMARK                            x       y       z     vdW  Elec       q    Type
REMARK                         _______ _______ _______ _____ _____    ______ ____
ROOT
ATOM      1  N   UNL     1      28.199  14.382  39.339  0.00  0.00    +0.000 NA
ATOM      2  C   UNL     1      26.928  14.597  39.969  0.00  0.00    +0.000 A 
ATOM      3  C   UNL     1      26.027  15.588  39.605  0.00  0.00    +0.000 A 
ATOM      4  C   UNL     1      24.934  15.464  40.447  0.00  0.00    +0.000 A 
ATOM      5  N   UNL     1      23.770  16.120  40.581  0.00  0.00    +0.000 NA
ATOM      6  C   UNL     1      22.877  15.740  41.540  0.00  0.00    +0.000 A 
ATOM      7  C   UNL     1      21.675  16.399  41.695  0.00  0.00    +0.000 A 
ATOM      8  C   UNL     1      20.748  16.041  42.653  0.00  0.00    +0.000 A 
ATOM      9  C   UNL     1      21.013  14.985  43.501  0.00  0.00    +0.000 A 
ATOM     10  C   UNL     1      22.208  14.312  43.362  0.00  0.00    +0.000 A 
ATOM     11  C   UNL     1      23.139  14.683  42.389  0.00  0.00    +0.000 A 
ATOM     12  N   UNL     1      24.306  14.030  42.249  0.00  0.00    +0.000 NA
ATOM     13  C   UNL     1      25.186  14.412  41.299  0.00  0.00    +0.000 A 
ATOM     14  N   UNL     1      26.395  13.914  40.982  0.00  0.00    +0.000 N 
ENDROOT
BRANCH   3  15
ATOM     15  C   UNL     1      26.162  16.580  38.559  0.00  0.00    +0.000 C 
ATOM     16  O   UNL     1      26.755  17.648  38.802  0.00  0.00    +0.000 OA
ATOM     17  N   UNL     1      25.633  16.347  37.277  0.00  0.00    +0.000 NA
BRANCH  17  18
ATOM     18  C   UNL     1      25.694  17.232  36.158  0.00  0.00    +0.000 C 
BRANCH  18  19
ATOM     19  C   UNL     1      25.515  16.432  34.901  0.00  0.00    +0.000 A 
ATOM     20  C   UNL     1      25.886  15.127  34.807  0.00  0.00    +0.000 A 
ATOM     21  C   UNL     1      25.723  14.415  33.663  0.00  0.00    +0.000 A 
ATOM     22  C   UNL     1      25.168  15.029  32.571  0.00  0.00    +0.000 A 
ATOM     23  C   UNL     1      24.781  16.365  32.648  0.00  0.00    +0.000 A 
ATOM     24  C   UNL     1      24.957  17.063  33.817  0.00  0.00    +0.000 A 
ENDBRANCH  18  19
ENDBRANCH  17  18
ENDBRANCH   3  15
BRANCH  14  25
ATOM     25  C   UNL     1      27.033  12.802  41.637  0.00  0.00    +0.000 C 
BRANCH  25  26
ATOM     26  C   UNL     1      26.713  11.490  40.942  0.00  0.00    +0.000 C 
BRANCH  26  27
ATOM     27  C   UNL     1      27.962  10.636  41.044  0.00  0.00    +0.000 C 
ATOM     28  C   UNL     1      29.088  11.024  40.525  0.00  0.00    +0.000 C 
ATOM     29  C   UNL     1      30.325  10.245  40.590  0.00  0.00    +0.000 C 
ATOM     30  C   UNL     1      30.004   8.779  40.759  0.00  0.00    +0.000 C 
ATOM     31  C   UNL     1      29.068   8.643  41.968  0.00  0.00    +0.000 C 
ATOM     32  C   UNL     1      27.791   9.363  41.761  0.00  0.00    +0.000 C 
ENDBRANCH  26  27
ENDBRANCH  25  26
ENDBRANCH  14  25
TORSDOF 6
ENDMDL
MODEL 8
REMARK VINA RESULT:      -7.3      4.192      6.365
REMARK  Name = 
REMARK  6 active torsions:
REMARK  status: ('A' for Active; 'I' for Inactive)
REMARK    1  A    between atoms: C_3  and  C_4
REMARK    2  A    between atoms: N_6  and  C_7
REMARK    3  A    between atoms: C_7  and  C_8
REMARK    4  A    between atoms: N_24  and  C_25
REMARK    5  A    between atoms: C_25  and  C_26
REMARK    6  A    between atoms: C_26  and  C_27
REMARK                            x       y       z     vdW  Elec       q    Type
REMARK                         _______ _______ _______ _____ _____    ______ ____
ROOT
ATOM      1  N   UNL     1      37.614   4.837  11.305  0.00  0.00    +0.000 NA
ATOM      2  C   UNL     1      37.313   3.758  12.200  0.00  0.00    +0.000 A 
ATOM      3  C   UNL     1      36.884   3.919  13.511  0.00  0.00    +0.000 A 
ATOM      4  C   UNL     1      36.705   2.649  14.033  0.00  0.00    +0.000 A 
ATOM      5  N   UNL     1      36.311   2.167  15.223  0.00  0.00    +0.000 NA
ATOM      6  C   UNL     1      36.237   0.820  15.424  0.00  0.00    +0.000 A 
ATOM      7  C   UNL     1      35.835   0.303  16.639  0.00  0.00    +0.000 A 
ATOM      8  C   UNL     1      35.747  -1.053  16.878  0.00  0.00    +0.000 A 
ATOM      9  C   UNL     1      36.070  -1.948  15.878  0.00  0.00    +0.000 A 
ATOM     10  C   UNL     1      36.474  -1.451  14.656  0.00  0.00    +0.000 A 
ATOM     11  C   UNL     1      36.558  -0.077  14.425  0.00  0.00    +0.000 A 
ATOM     12  N   UNL     1      36.951   0.412  13.235  0.00  0.00    +0.000 NA
ATOM     13  C   UNL     1      37.023   1.747  13.043  0.00  0.00    +0.000 A 
ATOM     14  N   UNL     1      37.385   2.450  11.954  0.00  0.00    +0.000 N 
ENDROOT
BRANCH   3  15
ATOM     15  C   UNL     1      36.656   5.154  14.232  0.00  0.00    +0.000 C 
ATOM     16  O   UNL     1      35.528   5.680  14.201  0.00  0.00    +0.000 OA
ATOM     17  N   UNL     1      37.692   5.758  14.965  0.00  0.00    +0.000 NA
BRANCH  17  18
ATOM     18  C   UNL     1      37.608   6.968  15.719  0.00  0.00    +0.000 C 
BRANCH  18  19
ATOM     19  C   UNL     1      38.254   6.749  17.056  0.00  0.00    +0.000 A 
ATOM     20  C   UNL     1      38.749   5.542  17.439  0.00  0.00    +0.000 A 
ATOM     21  C   UNL     1      39.328   5.356  18.652  0.00  0.00    +0.000 A 
ATOM     22  C   UNL     1      39.417   6.416  19.516  0.00  0.00    +0.000 A 
ATOM     23  C   UNL     1      38.917   7.660  19.141  0.00  0.00    +0.000 A 
ATOM     24  C   UNL     1      38.336   7.823  17.908  0.00  0.00    +0.000 A 
ENDBRANCH  18  19
ENDBRANCH  17  18
ENDBRANCH   3  15
BRANCH  14  25
ATOM     25  C   UNL     1      37.794   1.882  10.696  0.00  0.00    +0.000 C 
BRANCH  25  26
ATOM     26  C   UNL     1      36.623   1.251   9.964  0.00  0.00    +0.000 C 
BRANCH  26  27
ATOM     27  C   UNL     1      36.496   1.988   8.645  0.00  0.00    +0.000 C 
ATOM     28  C   UNL     1      36.007   3.191   8.588  0.00  0.00    +0.000 C 
ATOM     29  C   UNL     1      35.860   3.952   7.347  0.00  0.00    +0.000 C 
ATOM     30  C   UNL     1      35.757   3.009   6.172  0.00  0.00    +0.000 C 
ATOM     31  C   UNL     1      36.961   2.058   6.230  0.00  0.00    +0.000 C 
ATOM     32  C   UNL     1      36.959   1.241   7.465  0.00  0.00    +0.000 C 
ENDBRANCH  26  27
ENDBRANCH  25  26
ENDBRANCH  14  25
TORSDOF 6
ENDMDL
MODEL 9
REMARK VINA RESULT:      -7.3     25.184     27.936
REMARK  Name = 
REMARK  6 active torsions:
REMARK  status: ('A' for Active; 'I' for Inactive)
REMARK    1  A    between atoms: C_3  and  C_4
REMARK    2  A    between atoms: N_6  and  C_7
REMARK    3  A    between atoms: C_7  and  C_8
REMARK    4  A    between atoms: N_24  and  C_25
REMARK    5  A    between atoms: C_25  and  C_26
REMARK    6  A    between atoms: C_26  and  C_27
REMARK                            x       y       z     vdW  Elec       q    Type
REMARK                         _______ _______ _______ _____ _____    ______ ____
ROOT
ATOM      1  N   UNL     1      29.265  15.924  33.800  0.00  0.00    +0.000 NA
ATOM      2  C   UNL     1      28.404  15.772  34.937  0.00  0.00    +0.000 A 
ATOM      3  C   UNL     1      27.017  15.758  34.876  0.00  0.00    +0.000 A 
ATOM      4  C   UNL     1      26.561  15.594  36.174  0.00  0.00    +0.000 A 
ATOM      5  N   UNL     1      25.347  15.506  36.741  0.00  0.00    +0.000 NA
ATOM      6  C   UNL     1      25.233  15.341  38.091  0.00  0.00    +0.000 A 
ATOM      7  C   UNL     1      23.996  15.249  38.695  0.00  0.00    +0.000 A 
ATOM      8  C   UNL     1      23.843  15.081  40.056  0.00  0.00    +0.000 A 
ATOM      9  C   UNL     1      24.958  15.000  40.866  0.00  0.00    +0.000 A 
ATOM     10  C   UNL     1      26.204  15.090  40.281  0.00  0.00    +0.000 A 
ATOM     11  C   UNL     1      26.347  15.259  38.903  0.00  0.00    +0.000 A 
ATOM     12  N   UNL     1      27.560  15.347  38.329  0.00  0.00    +0.000 NA
ATOM     13  C   UNL     1      27.665  15.511  36.992  0.00  0.00    +0.000 A 
ATOM     14  N   UNL     1      28.757  15.622  36.214  0.00  0.00    +0.000 N 
ENDROOT
BRANCH   3  15
ATOM     15  C   UNL     1      26.170  15.888  33.709  0.00  0.00    +0.000 C 
ATOM     16  O   UNL     1      26.211  15.012  32.824  0.00  0.00    +0.000 OA
ATOM     17  N   UNL     1      25.307  16.988  33.567  0.00  0.00    +0.000 NA
BRANCH  17  18
ATOM     18  C   UNL     1      24.422  17.240  32.475  0.00  0.00    +0.000 C 
BRANCH  18  19
ATOM     19  C   UNL     1      23.974  18.671  32.538  0.00  0.00    +0.000 A 
ATOM     20  C   UNL     1      23.230  19.247  31.557  0.00  0.00    +0.000 A 
ATOM     21  C   UNL     1      22.834  20.544  31.624  0.00  0.00    +0.000 A 
ATOM     22  C   UNL     1      23.195  21.294  32.712  0.00  0.00    +0.000 A 
ATOM     23  C   UNL     1      23.957  20.722  33.728  0.00  0.00    +0.000 A 
ATOM     24  C   UNL     1      24.345  19.408  33.637  0.00  0.00    +0.000 A 
ENDBRANCH  18  19
ENDBRANCH  17  18
ENDBRANCH   3  15
BRANCH  14  25
ATOM     25  C   UNL     1      30.118  15.587  36.680  0.00  0.00    +0.000 C 
BRANCH  25  26
ATOM     26  C   UNL     1      30.794  14.274  36.323  0.00  0.00    +0.000 C 
BRANCH  26  27
ATOM     27  C   UNL     1      31.203  13.633  37.635  0.00  0.00    +0.000 C 
ATOM     28  C   UNL     1      31.670  12.421  37.677  0.00  0.00    +0.000 C 
ATOM     29  C   UNL     1      32.080  11.750  38.910  0.00  0.00    +0.000 C 
ATOM     30  C   UNL     1      31.357  12.351  40.091  0.00  0.00    +0.000 C 
ATOM     31  C   UNL     1      31.585  13.869  40.053  0.00  0.00    +0.000 C 
ATOM     32  C   UNL     1      31.027  14.480  38.825  0.00  0.00    +0.000 C 
ENDBRANCH  26  27
ENDBRANCH  25  26
ENDBRANCH  14  25
TORSDOF 6
ENDMDL
MODEL 10
REMARK VINA RESULT:      -7.2      3.374      8.757
REMARK  Name = 
REMARK  6 active torsions:
REMARK  status: ('A' for Active; 'I' for Inactive)
REMARK    1  A    between atoms: C_3  and  C_4
REMARK    2  A    between atoms: N_6  and  C_7
REMARK    3  A    between atoms: C_7  and  C_8
REMARK    4  A    between atoms: N_24  and  C_25
REMARK    5  A    between atoms: C_25  and  C_26
REMARK    6  A    between atoms: C_26  and  C_27
REMARK                            x       y       z     vdW  Elec       q    Type
REMARK                         _______ _______ _______ _____ _____    ______ ____
ROOT
ATOM      1  N   UNL     1      36.245   4.399  13.314  0.00  0.00    +0.000 NA
ATOM      2  C   UNL     1      36.973   4.933  14.428  0.00  0.00    +0.000 A 
ATOM      3  C   UNL     1      37.331   4.205  15.555  0.00  0.00    +0.000 A 
ATOM      4  C   UNL     1      38.015   5.072  16.391  0.00  0.00    +0.000 A 
ATOM      5  N   UNL     1      38.595   4.956  17.596  0.00  0.00    +0.000 NA
ATOM      6  C   UNL     1      39.207   6.033  18.167  0.00  0.00    +0.000 A 
ATOM      7  C   UNL     1      39.810   5.937  19.405  0.00  0.00    +0.000 A 
ATOM      8  C   UNL     1      40.439   7.005  20.012  0.00  0.00    +0.000 A 
ATOM      9  C   UNL     1      40.478   8.229  19.375  0.00  0.00    +0.000 A 
ATOM     10  C   UNL     1      39.881   8.346  18.137  0.00  0.00    +0.000 A 
ATOM     11  C   UNL     1      39.249   7.258  17.532  0.00  0.00    +0.000 A 
ATOM     12  N   UNL     1      38.666   7.368  16.325  0.00  0.00    +0.000 NA
ATOM     13  C   UNL     1      38.062   6.298  15.766  0.00  0.00    +0.000 A 
ATOM     14  N   UNL     1      37.425   6.177  14.587  0.00  0.00    +0.000 N 
ENDROOT
BRANCH   3  15
ATOM     15  C   UNL     1      37.062   2.812  15.844  0.00  0.00    +0.000 C 
ATOM     16  O   UNL     1      36.134   2.517  16.622  0.00  0.00    +0.000 OA
ATOM     17  N   UNL     1      37.833   1.795  15.256  0.00  0.00    +0.000 NA
BRANCH  17  18
ATOM     18  C   UNL     1      37.679   0.389  15.450  0.00  0.00    +0.000 C 
BRANCH  18  19
ATOM     19  C   UNL     1      38.967  -0.292  15.093  0.00  0.00    +0.000 A 
ATOM     20  C   UNL     1      39.230  -1.582  15.432  0.00  0.00    +0.000 A 
ATOM     21  C   UNL     1      40.401  -2.186  15.107  0.00  0.00    +0.000 A 
ATOM     22  C   UNL     1      41.347  -1.474  14.417  0.00  0.00    +0.000 A 
ATOM     23  C   UNL     1      41.097  -0.151  14.060  0.00  0.00    +0.000 A 
ATOM     24  C   UNL     1      39.904   0.437  14.401  0.00  0.00    +0.000 A 
ENDBRANCH  18  19
ENDBRANCH  17  18
ENDBRANCH   3  15
BRANCH  14  25
ATOM     25  C   UNL     1      37.248   7.233  13.625  0.00  0.00    +0.000 C 
BRANCH  25  26
ATOM     26  C   UNL     1      35.967   8.007  13.878  0.00  0.00    +0.000 C 
BRANCH  26  27
ATOM     27  C   UNL     1      35.194   7.993  12.573  0.00  0.00    +0.000 C 
ATOM     28  C   UNL     1      34.093   7.315  12.448  0.00  0.00    +0.000 C 
ATOM     29  C   UNL     1      33.304   7.263  11.217  0.00  0.00    +0.000 C 
ATOM     30  C   UNL     1      34.187   7.549  10.025  0.00  0.00    +0.000 C 
ATOM     31  C   UNL     1      34.916   8.874  10.293  0.00  0.00    +0.000 C 
ATOM     32  C   UNL     1      35.786   8.793  11.489  0.00  0.00    +0.000 C 
ENDBRANCH  26  27
ENDBRANCH  25  26
ENDBRANCH  14  25
TORSDOF 6
ENDMDL
