MODEL 1
REMARK VINA RESULT:      -7.6      0.000      0.000
REMARK  Name = 
REMARK  4 active torsions:
REMARK  status: ('A' for Active; 'I' for Inactive)
REMARK    1  A    between atoms: C_2  and  C_3
REMARK    2  A    between atoms: C_8  and  N_9
REMARK    3  A    between atoms: C_10  and  C_12
REMARK    4  A    between atoms: C_15  and  N_16
REMARK                            x       y       z     vdW  Elec       q    Type
REMARK                         _______ _______ _______ _____ _____    ______ ____
ROOT
ATOM      1  N   UNL     1      14.784  12.014  35.421  0.00  0.00    +0.000 NA
ATOM      2  C   UNL     1      15.750  12.333  36.392  0.00  0.00    +0.000 C 
ATOM      3  O   UNL     1      16.298  13.460  36.352  0.00  0.00    +0.000 OA
ENDROOT
BRANCH   1   9
ATOM      4  C   UNL     1      14.753  12.574  33.092  0.00  0.00    +0.000 A 
ATOM      5  C   UNL     1      14.394  13.371  32.013  0.00  0.00    +0.000 A 
ATOM      6  C   UNL     1      13.637  14.507  32.222  0.00  0.00    +0.000 A 
ATOM      7  C   UNL     1      13.251  14.825  33.516  0.00  0.00    +0.000 A 
ATOM      8  C   UNL     1      13.624  14.010  34.574  0.00  0.00    +0.000 A 
ATOM      9  C   UNL     1      14.374  12.882  34.382  0.00  0.00    +0.000 A 
BRANCH   4  11
ATOM     10  C   UNL     1      16.879  11.283  33.573  0.00  0.00    +0.000 C 
ATOM     11  C   UNL     1      15.564  11.363  32.844  0.00  0.00    +0.000 C 
ATOM     12  C   UNL     1      15.498  10.672  31.533  0.00  0.00    +0.000 C 
ATOM     13  C   UNL     1      14.768  10.053  32.661  0.00  0.00    +0.000 C 
ENDBRANCH   4  11
ENDBRANCH   1   9
BRANCH   2  14
ATOM     14  C   UNL     1      16.150  11.403  37.456  0.00  0.00    +0.000 A 
ATOM     15  C   UNL     1      15.273  10.979  38.420  0.00  0.00    +0.000 A 
ATOM     16  C   UNL     1      15.693  10.109  39.397  0.00  0.00    +0.000 A 
ATOM     17  C   UNL     1      16.982   9.626  39.466  0.00  0.00    +0.000 A 
ATOM     18  C   UNL     1      17.847  10.065  38.488  0.00  0.00    +0.000 A 
ATOM     19  C   UNL     1      17.443  10.935  37.505  0.00  0.00    +0.000 A 
BRANCH  17  20
ATOM     20  N   UNL     1      17.403   8.723  40.486  0.00  0.00    +0.000 N 
ATOM     21  O   UNL     1      17.247   9.079  41.669  0.00  0.00    +0.000 OA
ATOM     22  O   UNL     1      17.961   7.502  40.205  0.00  0.00    +0.000 OA
ENDBRANCH  17  20
ENDBRANCH   2  14
TORSDOF 4
ENDMDL
MODEL 2
REMARK VINA RESULT:      -7.1      2.900      7.606
REMARK  Name = 
REMARK  4 active torsions:
REMARK  status: ('A' for Active; 'I' for Inactive)
REMARK    1  A    between atoms: C_2  and  C_3
REMARK    2  A    between atoms: C_8  and  N_9
REMARK    3  A    between atoms: C_10  and  C_12
REMARK    4  A    between atoms: C_15  and  N_16
REMARK                            x       y       z     vdW  Elec       q    Type
REMARK                         _______ _______ _______ _____ _____    ______ ____
ROOT
ATOM      1  N   UNL     1      17.386  10.737  37.653  0.00  0.00    +0.000 NA
ATOM      2  C   UNL     1      17.415   9.972  36.474  0.00  0.00    +0.000 C 
ATOM      3  O   UNL     1      17.864   8.802  36.524  0.00  0.00    +0.000 OA
ENDROOT
BRANCH   1   9
ATOM      4  C   UNL     1      19.110  10.613  39.311  0.00  0.00    +0.000 A 
ATOM      5  C   UNL     1      19.627  10.207  40.535  0.00  0.00    +0.000 A 
ATOM      6  C   UNL     1      18.849   9.451  41.391  0.00  0.00    +0.000 A 
ATOM      7  C   UNL     1      17.561   9.114  41.002  0.00  0.00    +0.000 A 
ATOM      8  C   UNL     1      17.072   9.533  39.775  0.00  0.00    +0.000 A 
ATOM      9  C   UNL     1      17.830  10.282  38.917  0.00  0.00    +0.000 A 
BRANCH   4  11
ATOM     10  C   UNL     1      20.735  10.660  37.368  0.00  0.00    +0.000 C 
ATOM     11  C   UNL     1      19.961  11.421  38.412  0.00  0.00    +0.000 C 
ATOM     12  C   UNL     1      20.574  12.682  38.893  0.00  0.00    +0.000 C 
ATOM     13  C   UNL     1      19.390  12.799  38.014  0.00  0.00    +0.000 C 
ENDBRANCH   4  11
ENDBRANCH   1   9
BRANCH   2  14
ATOM     14  C   UNL     1      16.944  10.480  35.179  0.00  0.00    +0.000 A 
ATOM     15  C   UNL     1      15.914  11.378  35.081  0.00  0.00    +0.000 A 
ATOM     16  C   UNL     1      15.507  11.826  33.847  0.00  0.00    +0.000 A 
ATOM     17  C   UNL     1      16.091  11.411  32.670  0.00  0.00    +0.000 A 
ATOM     18  C   UNL     1      17.124  10.508  32.791  0.00  0.00    +0.000 A 
ATOM     19  C   UNL     1      17.543  10.050  34.018  0.00  0.00    +0.000 A 
BRANCH  17  20
ATOM     20  N   UNL     1      15.658  11.884  31.397  0.00  0.00    +0.000 N 
ATOM     21  O   UNL     1      16.346  12.762  30.844  0.00  0.00    +0.000 OA
ATOM     22  O   UNL     1      14.529  11.407  30.780  0.00  0.00    +0.000 OA
ENDBRANCH  17  20
ENDBRANCH   2  14
TORSDOF 4
ENDMDL
MODEL 3
REMARK VINA RESULT:      -6.7     22.231     25.022
REMARK  Name = 
REMARK  4 active torsions:
REMARK  status: ('A' for Active; 'I' for Inactive)
REMARK    1  A    between atoms: C_2  and  C_3
REMARK    2  A    between atoms: C_8  and  N_9
REMARK    3  A    between atoms: C_10  and  C_12
REMARK    4  A    between atoms: C_15  and  N_16
REMARK                            x       y       z     vdW  Elec       q    Type
REMARK                         _______ _______ _______ _____ _____    ______ ____
ROOT
ATOM      1  N   UNL     1      29.327  25.457  22.929  0.00  0.00    +0.000 NA
ATOM      2  C   UNL     1      29.377  25.375  21.527  0.00  0.00    +0.000 C 
ATOM      3  O   UNL     1      29.717  24.292  20.996  0.00  0.00    +0.000 OA
ENDROOT
BRANCH   1   9
ATOM      4  C   UNL     1      28.589  23.750  24.440  0.00  0.00    +0.000 A 
ATOM      5  C   UNL     1      28.802  22.694  25.317  0.00  0.00    +0.000 A 
ATOM      6  C   UNL     1      30.090  22.264  25.573  0.00  0.00    +0.000 A 
ATOM      7  C   UNL     1      31.146  22.903  24.941  0.00  0.00    +0.000 A 
ATOM      8  C   UNL     1      30.904  23.954  24.069  0.00  0.00    +0.000 A 
ATOM      9  C   UNL     1      29.635  24.390  23.807  0.00  0.00    +0.000 A 
BRANCH   4  11
ATOM     10  C   UNL     1      26.876  25.611  24.569  0.00  0.00    +0.000 C 
ATOM     11  C   UNL     1      27.203  24.193  24.181  0.00  0.00    +0.000 C 
ATOM     12  C   UNL     1      26.083  23.223  24.238  0.00  0.00    +0.000 C 
ATOM     13  C   UNL     1      26.553  23.636  22.897  0.00  0.00    +0.000 C 
ENDBRANCH   4  11
ENDBRANCH   1   9
BRANCH   2  14
ATOM     14  C   UNL     1      29.049  26.506  20.648  0.00  0.00    +0.000 A 
ATOM     15  C   UNL     1      29.872  26.894  19.624  0.00  0.00    +0.000 A 
ATOM     16  C   UNL     1      29.525  27.959  18.828  0.00  0.00    +0.000 A 
ATOM     17  C   UNL     1      28.363  28.679  19.006  0.00  0.00    +0.000 A 
ATOM     18  C   UNL     1      27.551  28.273  20.041  0.00  0.00    +0.000 A 
ATOM     19  C   UNL     1      27.884  27.210  20.846  0.00  0.00    +0.000 A 
BRANCH  17  20
ATOM     20  N   UNL     1      28.016  29.782  18.171  0.00  0.00    +0.000 N 
ATOM     21  O   UNL     1      27.849  30.888  18.718  0.00  0.00    +0.000 OA
ATOM     22  O   UNL     1      27.866  29.659  16.814  0.00  0.00    +0.000 OA
ENDBRANCH  17  20
ENDBRANCH   2  14
TORSDOF 4
ENDMDL
MODEL 4
REMARK VINA RESULT:      -6.7      3.404      7.461
REMARK  Name = 
REMARK  4 active torsions:
REMARK  status: ('A' for Active; 'I' for Inactive)
REMARK    1  A    between atoms: C_2  and  C_3
REMARK    2  A    between atoms: C_8  and  N_9
REMARK    3  A    between atoms: C_10  and  C_12
REMARK    4  A    between atoms: C_15  and  N_16
REMARK                            x       y       z     vdW  Elec       q    Type
REMARK                         _______ _______ _______ _____ _____    ______ ____
ROOT
ATOM      1  N   UNL     1      19.120  10.085  37.441  0.00  0.00    +0.000 NA
ATOM      2  C   UNL     1      18.538  11.358  37.572  0.00  0.00    +0.000 C 
ATOM      3  O   UNL     1      19.265  12.325  37.901  0.00  0.00    +0.000 OA
ENDROOT
BRANCH   1   9
ATOM      4  C   UNL     1      20.860   9.264  38.868  0.00  0.00    +0.000 A 
ATOM      5  C   UNL     1      22.183   8.958  39.160  0.00  0.00    +0.000 A 
ATOM      6  C   UNL     1      23.166   9.195  38.219  0.00  0.00    +0.000 A 
ATOM      7  C   UNL     1      22.802   9.738  36.995  0.00  0.00    +0.000 A 
ATOM      8  C   UNL     1      21.474  10.033  36.731  0.00  0.00    +0.000 A 
ATOM      9  C   UNL     1      20.491   9.804  37.653  0.00  0.00    +0.000 A 
BRANCH   4  11
ATOM     10  C   UNL     1      19.442  10.167  40.762  0.00  0.00    +0.000 C 
ATOM     11  C   UNL     1      19.825   9.001  39.891  0.00  0.00    +0.000 C 
ATOM     12  C   UNL     1      19.701   7.656  40.502  0.00  0.00    +0.000 C 
ATOM     13  C   UNL     1      18.706   8.024  39.472  0.00  0.00    +0.000 C 
ENDBRANCH   4  11
ENDBRANCH   1   9
BRANCH   2  14
ATOM     14  C   UNL     1      17.109  11.610  37.343  0.00  0.00    +0.000 A 
ATOM     15  C   UNL     1      16.671  12.564  36.462  0.00  0.00    +0.000 A 
ATOM     16  C   UNL     1      15.324  12.766  36.281  0.00  0.00    +0.000 A 
ATOM     17  C   UNL     1      14.361  12.043  36.953  0.00  0.00    +0.000 A 
ATOM     18  C   UNL     1      14.823  11.090  37.833  0.00  0.00    +0.000 A 
ATOM     19  C   UNL     1      16.167  10.877  38.026  0.00  0.00    +0.000 A 
BRANCH  17  20
ATOM     20  N   UNL     1      12.966  12.264  36.754  0.00  0.00    +0.000 N 
ATOM     21  O   UNL     1      12.624  13.335  36.219  0.00  0.00    +0.000 OA
ATOM     22  O   UNL     1      12.016  11.349  37.127  0.00  0.00    +0.000 OA
ENDBRANCH  17  20
ENDBRANCH   2  14
TORSDOF 4
ENDMDL
MODEL 5
REMARK VINA RESULT:      -6.6     19.039     21.368
REMARK  Name = 
REMARK  4 active torsions:
REMARK  status: ('A' for Active; 'I' for Inactive)
REMARK    1  A    between atoms: C_2  and  C_3
REMARK    2  A    between atoms: C_8  and  N_9
REMARK    3  A    between atoms: C_10  and  C_12
REMARK    4  A    between atoms: C_15  and  N_16
REMARK                            x       y       z     vdW  Elec       q    Type
REMARK                         _______ _______ _______ _____ _____    ______ ____
ROOT
ATOM      1  N   UNL     1      30.019  23.247  28.101  0.00  0.00    +0.000 NA
ATOM      2  C   UNL     1      30.112  22.468  26.935  0.00  0.00    +0.000 C 
ATOM      3  O   UNL     1      30.530  21.289  27.027  0.00  0.00    +0.000 OA
ENDROOT
BRANCH   1   9
ATOM      4  C   UNL     1      29.364  22.700  30.340  0.00  0.00    +0.000 A 
ATOM      5  C   UNL     1      29.617  22.267  31.635  0.00  0.00    +0.000 A 
ATOM      6  C   UNL     1      30.903  21.924  32.004  0.00  0.00    +0.000 A 
ATOM      7  C   UNL     1      31.917  22.020  31.062  0.00  0.00    +0.000 A 
ATOM      8  C   UNL     1      31.635  22.453  29.777  0.00  0.00    +0.000 A 
ATOM      9  C   UNL     1      30.367  22.797  29.397  0.00  0.00    +0.000 A 
BRANCH   4  11
ATOM     10  C   UNL     1      27.711  24.529  29.759  0.00  0.00    +0.000 C 
ATOM     11  C   UNL     1      27.980  23.062  29.967  0.00  0.00    +0.000 C 
ATOM     12  C   UNL     1      26.837  22.247  30.446  0.00  0.00    +0.000 C 
ATOM     13  C   UNL     1      27.255  22.064  29.039  0.00  0.00    +0.000 C 
ENDBRANCH   4  11
ENDBRANCH   1   9
BRANCH   2  14
ATOM     14  C   UNL     1      29.741  22.971  25.606  0.00  0.00    +0.000 A 
ATOM     15  C   UNL     1      28.454  22.915  25.140  0.00  0.00    +0.000 A 
ATOM     16  C   UNL     1      28.154  23.398  23.889  0.00  0.00    +0.000 A 
ATOM     17  C   UNL     1      29.101  23.950  23.052  0.00  0.00    +0.000 A 
ATOM     18  C   UNL     1      30.388  23.996  23.540  0.00  0.00    +0.000 A 
ATOM     19  C   UNL     1      30.704  23.516  24.789  0.00  0.00    +0.000 A 
BRANCH  17  20
ATOM     20  N   UNL     1      28.774  24.447  21.756  0.00  0.00    +0.000 N 
ATOM     21  O   UNL     1      27.604  24.825  21.562  0.00  0.00    +0.000 OA
ATOM     22  O   UNL     1      29.695  24.518  20.742  0.00  0.00    +0.000 OA
ENDBRANCH  17  20
ENDBRANCH   2  14
TORSDOF 4
ENDMDL
MODEL 6
REMARK VINA RESULT:      -6.4     19.119     21.726
REMARK  Name = 
REMARK  4 active torsions:
REMARK  status: ('A' for Active; 'I' for Inactive)
REMARK    1  A    between atoms: C_2  and  C_3
REMARK    2  A    between atoms: C_8  and  N_9
REMARK    3  A    between atoms: C_10  and  C_12
REMARK    4  A    between atoms: C_15  and  N_16
REMARK                            x       y       z     vdW  Elec       q    Type
REMARK                         _______ _______ _______ _____ _____    ______ ____
ROOT
ATOM      1  N   UNL     1      27.777  24.151  26.582  0.00  0.00    +0.000 NA
ATOM      2  C   UNL     1      27.364  23.710  25.313  0.00  0.00    +0.000 C 
ATOM      3  O   UNL     1      26.563  22.748  25.238  0.00  0.00    +0.000 OA
ENDROOT
BRANCH   1   9
ATOM      4  C   UNL     1      26.373  24.247  28.521  0.00  0.00    +0.000 A 
ATOM      5  C   UNL     1      25.897  23.761  29.732  0.00  0.00    +0.000 A 
ATOM      6  C   UNL     1      26.406  22.586  30.248  0.00  0.00    +0.000 A 
ATOM      7  C   UNL     1      27.390  21.915  29.536  0.00  0.00    +0.000 A 
ATOM      8  C   UNL     1      27.845  22.422  28.329  0.00  0.00    +0.000 A 
ATOM      9  C   UNL     1      27.350  23.585  27.807  0.00  0.00    +0.000 A 
BRANCH   4  11
ATOM     10  C   UNL     1      26.802  26.605  27.702  0.00  0.00    +0.000 C 
ATOM     11  C   UNL     1      25.813  25.507  27.988  0.00  0.00    +0.000 C 
ATOM     12  C   UNL     1      24.446  25.939  28.368  0.00  0.00    +0.000 C 
ATOM     13  C   UNL     1      24.619  25.351  27.022  0.00  0.00    +0.000 C 
ENDBRANCH   4  11
ENDBRANCH   1   9
BRANCH   2  14
ATOM     14  C   UNL     1      27.830  24.324  24.062  0.00  0.00    +0.000 A 
ATOM     15  C   UNL     1      28.441  23.595  23.077  0.00  0.00    +0.000 A 
ATOM     16  C   UNL     1      28.861  24.213  21.924  0.00  0.00    +0.000 A 
ATOM     17  C   UNL     1      28.698  25.563  21.695  0.00  0.00    +0.000 A 
ATOM     18  C   UNL     1      28.082  26.277  22.699  0.00  0.00    +0.000 A 
ATOM     19  C   UNL     1      27.657  25.674  23.858  0.00  0.00    +0.000 A 
BRANCH  17  20
ATOM     20  N   UNL     1      29.139  26.190  20.493  0.00  0.00    +0.000 N 
ATOM     21  O   UNL     1      29.843  25.517  19.718  0.00  0.00    +0.000 OA
ATOM     22  O   UNL     1      28.815  27.485  20.177  0.00  0.00    +0.000 OA
ENDBRANCH  17  20
ENDBRANCH   2  14
TORSDOF 4
ENDMDL
MODEL 7
REMARK VINA RESULT:      -6.3     18.422     20.143
REMARK  Name = 
REMARK  4 active torsions:
REMARK  status: ('A' for Active; 'I' for Inactive)
REMARK    1  A    between atoms: C_2  and  C_3
REMARK    2  A    between atoms: C_8  and  N_9
REMARK    3  A    between atoms: C_10  and  C_12
REMARK    4  A    between atoms: C_15  and  N_16
REMARK                            x       y       z     vdW  Elec       q    Type
REMARK                         _______ _______ _______ _____ _____    ______ ____
ROOT
ATOM      1  N   UNL     1      26.695  23.827  26.332  0.00  0.00    +0.000 NA
ATOM      2  C   UNL     1      26.548  25.077  26.956  0.00  0.00    +0.000 C 
ATOM      3  O   UNL     1      27.557  25.810  27.087  0.00  0.00    +0.000 OA
ENDROOT
BRANCH   1   9
ATOM      4  C   UNL     1      28.118  23.354  24.464  0.00  0.00    +0.000 A 
ATOM      5  C   UNL     1      29.288  22.876  23.886  0.00  0.00    +0.000 A 
ATOM      6  C   UNL     1      30.283  22.350  24.686  0.00  0.00    +0.000 A 
ATOM      7  C   UNL     1      30.086  22.311  26.059  0.00  0.00    +0.000 A 
ATOM      8  C   UNL     1      28.910  22.795  26.608  0.00  0.00    +0.000 A 
ATOM      9  C   UNL     1      27.916  23.319  25.828  0.00  0.00    +0.000 A 
BRANCH   4  11
ATOM     10  C   UNL     1      25.723  23.237  23.649  0.00  0.00    +0.000 C 
ATOM     11  C   UNL     1      27.067  23.913  23.588  0.00  0.00    +0.000 C 
ATOM     12  C   UNL     1      27.426  24.543  22.295  0.00  0.00    +0.000 C 
ATOM     13  C   UNL     1      27.088  25.447  23.416  0.00  0.00    +0.000 C 
ENDBRANCH   4  11
ENDBRANCH   1   9
BRANCH   2  14
ATOM     14  C   UNL     1      25.261  25.570  27.467  0.00  0.00    +0.000 A 
ATOM     15  C   UNL     1      24.166  25.719  26.657  0.00  0.00    +0.000 A 
ATOM     16  C   UNL     1      22.983  26.185  27.179  0.00  0.00    +0.000 A 
ATOM     17  C   UNL     1      22.831  26.519  28.508  0.00  0.00    +0.000 A 
ATOM     18  C   UNL     1      23.944  26.361  29.304  0.00  0.00    +0.000 A 
ATOM     19  C   UNL     1      25.135  25.898  28.797  0.00  0.00    +0.000 A 
BRANCH  17  20
ATOM     20  N   UNL     1      21.597  27.000  29.036  0.00  0.00    +0.000 N 
ATOM     21  O   UNL     1      21.064  27.967  28.461  0.00  0.00    +0.000 OA
ATOM     22  O   UNL     1      20.996  26.438  30.133  0.00  0.00    +0.000 OA
ENDBRANCH  17  20
ENDBRANCH   2  14
TORSDOF 4
ENDMDL
MODEL 8
REMARK VINA RESULT:      -6.2     19.645     22.102
REMARK  Name = 
REMARK  4 active torsions:
REMARK  status: ('A' for Active; 'I' for Inactive)
REMARK    1  A    between atoms: C_2  and  C_3
REMARK    2  A    between atoms: C_8  and  N_9
REMARK    3  A    between atoms: C_10  and  C_12
REMARK    4  A    between atoms: C_15  and  N_16
REMARK                            x       y       z     vdW  Elec       q    Type
REMARK                         _______ _______ _______ _____ _____    ______ ____
ROOT
ATOM      1  N   UNL     1      28.012  24.326  26.602  0.00  0.00    +0.000 NA
ATOM      2  C   UNL     1      27.651  23.808  25.346  0.00  0.00    +0.000 C 
ATOM      3  O   UNL     1      26.946  22.772  25.298  0.00  0.00    +0.000 OA
ENDROOT
BRANCH   1   9
ATOM      4  C   UNL     1      28.594  23.083  28.566  0.00  0.00    +0.000 A 
ATOM      5  C   UNL     1      28.308  22.496  29.792  0.00  0.00    +0.000 A 
ATOM      6  C   UNL     1      27.032  22.584  30.313  0.00  0.00    +0.000 A 
ATOM      7  C   UNL     1      26.061  23.262  29.591  0.00  0.00    +0.000 A 
ATOM      8  C   UNL     1      26.375  23.838  28.371  0.00  0.00    +0.000 A 
ATOM      9  C   UNL     1      27.634  23.759  27.842  0.00  0.00    +0.000 A 
BRANCH   4  11
ATOM     10  C   UNL     1      30.164  22.000  26.898  0.00  0.00    +0.000 C 
ATOM     11  C   UNL     1      29.967  22.976  28.027  0.00  0.00    +0.000 C 
ATOM     12  C   UNL     1      31.137  23.203  28.910  0.00  0.00    +0.000 C 
ATOM     13  C   UNL     1      30.770  24.294  27.981  0.00  0.00    +0.000 C 
ENDBRANCH   4  11
ENDBRANCH   1   9
BRANCH   2  14
ATOM     14  C   UNL     1      28.065  24.426  24.079  0.00  0.00    +0.000 A 
ATOM     15  C   UNL     1      28.144  23.711  22.913  0.00  0.00    +0.000 A 
ATOM     16  C   UNL     1      28.536  24.331  21.751  0.00  0.00    +0.000 A 
ATOM     17  C   UNL     1      28.863  25.669  21.690  0.00  0.00    +0.000 A 
ATOM     18  C   UNL     1      28.777  26.369  22.873  0.00  0.00    +0.000 A 
ATOM     19  C   UNL     1      28.387  25.763  24.043  0.00  0.00    +0.000 A 
BRANCH  17  20
ATOM     20  N   UNL     1      29.269  26.299  20.476  0.00  0.00    +0.000 N 
ATOM     21  O   UNL     1      29.866  25.600  19.637  0.00  0.00    +0.000 OA
ATOM     22  O   UNL     1      29.023  27.623  20.216  0.00  0.00    +0.000 OA
ENDBRANCH  17  20
ENDBRANCH   2  14
TORSDOF 4
ENDMDL
MODEL 9
REMARK VINA RESULT:      -6.2     19.118     21.526
REMARK  Name = 
REMARK  4 active torsions:
REMARK  status: ('A' for Active; 'I' for Inactive)
REMARK    1  A    between atoms: C_2  and  C_3
REMARK    2  A    between atoms: C_8  and  N_9
REMARK    3  A    between atoms: C_10  and  C_12
REMARK    4  A    between atoms: C_15  and  N_16
REMARK                            x       y       z     vdW  Elec       q    Type
REMARK                         _______ _______ _______ _____ _____    ______ ____
ROOT
ATOM      1  N   UNL     1      30.162  22.323  27.746  0.00  0.00    +0.000 NA
ATOM      2  C   UNL     1      30.448  23.023  26.561  0.00  0.00    +0.000 C 
ATOM      3  O   UNL     1      31.576  23.553  26.429  0.00  0.00    +0.000 OA
ENDROOT
BRANCH   1   9
ATOM      4  C   UNL     1      30.723  22.711  30.043  0.00  0.00    +0.000 A 
ATOM      5  C   UNL     1      31.552  22.602  31.152  0.00  0.00    +0.000 A 
ATOM      6  C   UNL     1      32.755  21.934  31.046  0.00  0.00    +0.000 A 
ATOM      7  C   UNL     1      33.108  21.383  29.822  0.00  0.00    +0.000 A 
ATOM      8  C   UNL     1      32.261  21.506  28.733  0.00  0.00    +0.000 A 
ATOM      9  C   UNL     1      31.066  22.165  28.823  0.00  0.00    +0.000 A 
BRANCH   4  11
ATOM     10  C   UNL     1      28.217  22.576  30.390  0.00  0.00    +0.000 C 
ATOM     11  C   UNL     1      29.439  23.431  30.180  0.00  0.00    +0.000 C 
ATOM     12  C   UNL     1      29.225  24.721  29.480  0.00  0.00    +0.000 C 
ATOM     13  C   UNL     1      29.506  24.778  30.931  0.00  0.00    +0.000 C 
ENDBRANCH   4  11
ENDBRANCH   1   9
BRANCH   2  14
ATOM     14  C   UNL     1      29.481  23.166  25.464  0.00  0.00    +0.000 A 
ATOM     15  C   UNL     1      29.874  23.234  24.153  0.00  0.00    +0.000 A 
ATOM     16  C   UNL     1      28.934  23.368  23.160  0.00  0.00    +0.000 A 
ATOM     17  C   UNL     1      27.580  23.440  23.414  0.00  0.00    +0.000 A 
ATOM     18  C   UNL     1      27.208  23.370  24.738  0.00  0.00    +0.000 A 
ATOM     19  C   UNL     1      28.136  23.237  25.743  0.00  0.00    +0.000 A 
BRANCH  17  20
ATOM     20  N   UNL     1      26.616  23.579  22.373  0.00  0.00    +0.000 N 
ATOM     21  O   UNL     1      26.813  24.465  21.521  0.00  0.00    +0.000 OA
ATOM     22  O   UNL     1      25.505  22.780  22.287  0.00  0.00    +0.000 OA
ENDBRANCH  17  20
ENDBRANCH   2  14
TORSDOF 4
ENDMDL
MODEL 10
REMARK VINA RESULT:      -6.2     17.552     19.283
REMARK  Name = 
REMARK  4 active torsions:
REMARK  status: ('A' for Active; 'I' for Inactive)
REMARK    1  A    between atoms: C_2  and  C_3
REMARK    2  A    between atoms: C_8  and  N_9
REMARK    3  A    between atoms: C_10  and  C_12
REMARK    4  A    between atoms: C_15  and  N_16
REMARK                            x       y       z     vdW  Elec       q    Type
REMARK                         _______ _______ _______ _____ _____    ______ ____
ROOT
ATOM      1  N   UNL     1      10.481  22.561  22.430  0.00  0.00    +0.000 NA
ATOM      2  C   UNL     1       9.303  23.274  22.146  0.00  0.00    +0.000 C 
ATOM      3  O   UNL     1       9.273  24.015  21.135  0.00  0.00    +0.000 OA
ENDROOT
BRANCH   1   9
ATOM      4  C   UNL     1      11.979  21.512  20.883  0.00  0.00    +0.000 A 
ATOM      5  C   UNL     1      13.117  21.480  20.088  0.00  0.00    +0.000 A 
ATOM      6  C   UNL     1      13.961  22.573  20.053  0.00  0.00    +0.000 A 
ATOM      7  C   UNL     1      13.646  23.685  20.821  0.00  0.00    +0.000 A 
ATOM      8  C   UNL     1      12.503  23.690  21.605  0.00  0.00    +0.000 A 
ATOM      9  C   UNL     1      11.659  22.614  21.649  0.00  0.00    +0.000 A 
BRANCH   4  11
ATOM     10  C   UNL     1      10.939  19.638  22.233  0.00  0.00    +0.000 C 
ATOM     11  C   UNL     1      11.091  20.331  20.905  0.00  0.00    +0.000 C 
ATOM     12  C   UNL     1      10.950  19.478  19.700  0.00  0.00    +0.000 C 
ATOM     13  C   UNL     1       9.846  20.416  19.997  0.00  0.00    +0.000 C 
ENDBRANCH   4  11
ENDBRANCH   1   9
BRANCH   2  14
ATOM     14  C   UNL     1       8.098  23.192  22.982  0.00  0.00    +0.000 A 
ATOM     15  C   UNL     1       8.137  23.391  24.337  0.00  0.00    +0.000 A 
ATOM     16  C   UNL     1       6.984  23.304  25.079  0.00  0.00    +0.000 A 
ATOM     17  C   UNL     1       5.755  23.020  24.523  0.00  0.00    +0.000 A 
ATOM     18  C   UNL     1       5.738  22.824  23.160  0.00  0.00    +0.000 A 
ATOM     19  C   UNL     1       6.882  22.906  22.404  0.00  0.00    +0.000 A 
BRANCH  17  20
ATOM     20  N   UNL     1       4.567  22.933  25.306  0.00  0.00    +0.000 N 
ATOM     21  O   UNL     1       4.688  22.988  26.544  0.00  0.00    +0.000 OA
ATOM     22  O   UNL     1       3.323  22.795  24.744  0.00  0.00    +0.000 OA
ENDBRANCH  17  20
ENDBRANCH   2  14
TORSDOF 4
ENDMDL
