MODEL 1
REMARK VINA RESULT:      -6.2      0.000      0.000
REMARK  Name = 
REMARK  2 active torsions:
REMARK  status: ('A' for Active; 'I' for Inactive)
REMARK    1  A    between atoms: C_6  and  C_8
REMARK    2  A    between atoms: C_15  and  C_16
REMARK                            x       y       z     vdW  Elec       q    Type
REMARK                         _______ _______ _______ _____ _____    ______ ____
ROOT
ATOM      1  C   UNL     1      26.134 -11.191  24.340  0.00  0.00    +0.000 C 
ATOM      2  C   UNL     1      25.270  -9.944  24.259  0.00  0.00    +0.000 A 
ATOM      3  N   UNL     1      24.155  -9.839  24.902  0.00  0.00    +0.000 NA
ATOM      4  C   UNL     1      23.435  -8.741  24.805  0.00  0.00    +0.000 A 
ATOM      5  N   UNL     1      22.169  -8.424  25.437  0.00  0.00    +0.000 NA
ATOM      6  C   UNL     1      21.554  -7.164  25.194  0.00  0.00    +0.000 C 
ATOM      7  O   UNL     1      22.165  -6.381  24.424  0.00  0.00    +0.000 OA
ATOM      8  S   UNL     1      24.380  -7.784  23.740  0.00  0.00    +0.000 S 
ATOM      9  C   UNL     1      25.666  -8.885  23.486  0.00  0.00    +0.000 A 
ENDROOT
BRANCH   6  10
ATOM     10  C   UNL     1      20.273  -6.791  25.808  0.00  0.00    +0.000 A 
ATOM     11  C   UNL     1      19.392  -7.734  26.294  0.00  0.00    +0.000 A 
ATOM     12  C   UNL     1      18.180  -7.420  26.877  0.00  0.00    +0.000 A 
ATOM     13  C   UNL     1      17.807  -6.096  26.990  0.00  0.00    +0.000 A 
ATOM     14  C   UNL     1      18.683  -5.132  26.504  0.00  0.00    +0.000 A 
ATOM     15  C   UNL     1      19.890  -5.472  25.926  0.00  0.00    +0.000 A 
ENDBRANCH   6  10
BRANCH   9  16
ATOM     16  C   UNL     1      26.901  -8.753  22.651  0.00  0.00    +0.000 C 
ATOM     17  C   UNL     1      26.650  -9.454  21.345  0.00  0.00    +0.000 C 
ATOM     18  C   UNL     1      27.159  -7.275  22.325  0.00  0.00    +0.000 C 
ATOM     19  C   UNL     1      28.089  -9.330  23.387  0.00  0.00    +0.000 C 
ENDBRANCH   9  16
TORSDOF 2
ENDMDL
MODEL 2
REMARK VINA RESULT:      -6.1     15.547     16.641
REMARK  Name = 
REMARK  2 active torsions:
REMARK  status: ('A' for Active; 'I' for Inactive)
REMARK    1  A    between atoms: C_6  and  C_8
REMARK    2  A    between atoms: C_15  and  C_16
REMARK                            x       y       z     vdW  Elec       q    Type
REMARK                         _______ _______ _______ _____ _____    ______ ____
ROOT
ATOM      1  C   UNL     1      32.475  -4.597  36.251  0.00  0.00    +0.000 C 
ATOM      2  C   UNL     1      32.854  -3.420  35.369  0.00  0.00    +0.000 A 
ATOM      3  N   UNL     1      32.807  -2.201  35.793  0.00  0.00    +0.000 NA
ATOM      4  C   UNL     1      33.143  -1.209  34.996  0.00  0.00    +0.000 A 
ATOM      5  N   UNL     1      33.161   0.215  35.271  0.00  0.00    +0.000 NA
ATOM      6  C   UNL     1      33.563   1.127  34.256  0.00  0.00    +0.000 C 
ATOM      7  O   UNL     1      33.888   0.625  33.150  0.00  0.00    +0.000 OA
ATOM      8  S   UNL     1      33.556  -2.034  33.550  0.00  0.00    +0.000 S 
ATOM      9  C   UNL     1      33.261  -3.634  34.079  0.00  0.00    +0.000 A 
ENDROOT
BRANCH   6  10
ATOM     10  C   UNL     1      33.599   2.577  34.481  0.00  0.00    +0.000 A 
ATOM     11  C   UNL     1      34.027   3.122  35.673  0.00  0.00    +0.000 A 
ATOM     12  C   UNL     1      34.074   4.480  35.919  0.00  0.00    +0.000 A 
ATOM     13  C   UNL     1      33.676   5.361  34.934  0.00  0.00    +0.000 A 
ATOM     14  C   UNL     1      33.241   4.829  33.726  0.00  0.00    +0.000 A 
ATOM     15  C   UNL     1      33.203   3.466  33.504  0.00  0.00    +0.000 A 
ENDBRANCH   6  10
BRANCH   9  16
ATOM     16  C   UNL     1      33.403  -4.935  33.351  0.00  0.00    +0.000 C 
ATOM     17  C   UNL     1      34.532  -5.697  33.988  0.00  0.00    +0.000 C 
ATOM     18  C   UNL     1      32.134  -5.778  33.531  0.00  0.00    +0.000 C 
ATOM     19  C   UNL     1      33.647  -4.682  31.881  0.00  0.00    +0.000 C 
ENDBRANCH   9  16
TORSDOF 2
ENDMDL
MODEL 3
REMARK VINA RESULT:      -5.8     33.613     35.378
REMARK  Name = 
REMARK  2 active torsions:
REMARK  status: ('A' for Active; 'I' for Inactive)
REMARK    1  A    between atoms: C_6  and  C_8
REMARK    2  A    between atoms: C_15  and  C_16
REMARK                            x       y       z     vdW  Elec       q    Type
REMARK                         _______ _______ _______ _____ _____    ______ ____
ROOT
ATOM      1  C   UNL     1      29.363  22.723  23.907  0.00  0.00    +0.000 C 
ATOM      2  C   UNL     1      28.985  23.948  23.093  0.00  0.00    +0.000 A 
ATOM      3  N   UNL     1      29.643  24.301  22.039  0.00  0.00    +0.000 NA
ATOM      4  C   UNL     1      29.283  25.370  21.360  0.00  0.00    +0.000 A 
ATOM      5  N   UNL     1      29.879  25.932  20.164  0.00  0.00    +0.000 NA
ATOM      6  C   UNL     1      29.327  27.109  19.585  0.00  0.00    +0.000 C 
ATOM      7  O   UNL     1      28.326  27.601  20.164  0.00  0.00    +0.000 OA
ATOM      8  S   UNL     1      27.929  25.924  22.255  0.00  0.00    +0.000 S 
ATOM      9  C   UNL     1      27.916  24.717  23.469  0.00  0.00    +0.000 A 
ENDROOT
BRANCH   6  10
ATOM     10  C   UNL     1      29.890  27.720  18.375  0.00  0.00    +0.000 A 
ATOM     11  C   UNL     1      29.105  28.386  17.458  0.00  0.00    +0.000 A 
ATOM     12  C   UNL     1      29.600  28.973  16.310  0.00  0.00    +0.000 A 
ATOM     13  C   UNL     1      30.952  28.902  16.043  0.00  0.00    +0.000 A 
ATOM     14  C   UNL     1      31.759  28.233  16.957  0.00  0.00    +0.000 A 
ATOM     15  C   UNL     1      31.239  27.656  18.098  0.00  0.00    +0.000 A 
ENDBRANCH   6  10
BRANCH   9  16
ATOM     16  C   UNL     1      26.998  24.529  24.635  0.00  0.00    +0.000 C 
ATOM     17  C   UNL     1      27.818  24.647  25.889  0.00  0.00    +0.000 C 
ATOM     18  C   UNL     1      25.956  25.656  24.671  0.00  0.00    +0.000 C 
ATOM     19  C   UNL     1      26.301  23.190  24.536  0.00  0.00    +0.000 C 
ENDBRANCH   9  16
TORSDOF 2
ENDMDL
MODEL 4
REMARK VINA RESULT:      -5.7     31.522     32.123
REMARK  Name = 
REMARK  2 active torsions:
REMARK  status: ('A' for Active; 'I' for Inactive)
REMARK    1  A    between atoms: C_6  and  C_8
REMARK    2  A    between atoms: C_15  and  C_16
REMARK                            x       y       z     vdW  Elec       q    Type
REMARK                         _______ _______ _______ _____ _____    ______ ____
ROOT
ATOM      1  C   UNL     1      29.811  22.708  31.635  0.00  0.00    +0.000 C 
ATOM      2  C   UNL     1      30.122  22.704  30.148  0.00  0.00    +0.000 A 
ATOM      3  N   UNL     1      29.216  22.935  29.257  0.00  0.00    +0.000 NA
ATOM      4  C   UNL     1      29.526  22.923  27.978  0.00  0.00    +0.000 A 
ATOM      5  N   UNL     1      28.670  23.154  26.830  0.00  0.00    +0.000 NA
ATOM      6  C   UNL     1      29.215  23.093  25.517  0.00  0.00    +0.000 C 
ATOM      7  O   UNL     1      30.443  22.835  25.432  0.00  0.00    +0.000 OA
ATOM      8  S   UNL     1      31.204  22.564  28.019  0.00  0.00    +0.000 S 
ATOM      9  C   UNL     1      31.396  22.451  29.715  0.00  0.00    +0.000 A 
ENDROOT
BRANCH   6  10
ATOM     10  C   UNL     1      28.394  23.319  24.322  0.00  0.00    +0.000 A 
ATOM     11  C   UNL     1      27.016  23.304  24.367  0.00  0.00    +0.000 A 
ATOM     12  C   UNL     1      26.212  23.512  23.263  0.00  0.00    +0.000 A 
ATOM     13  C   UNL     1      26.797  23.750  22.036  0.00  0.00    +0.000 A 
ATOM     14  C   UNL     1      28.186  23.768  21.972  0.00  0.00    +0.000 A 
ATOM     15  C   UNL     1      28.967  23.557  23.090  0.00  0.00    +0.000 A 
ENDBRANCH   6  10
BRANCH   9  16
ATOM     16  C   UNL     1      32.616  22.157  30.532  0.00  0.00    +0.000 C 
ATOM     17  C   UNL     1      33.753  21.898  29.583  0.00  0.00    +0.000 C 
ATOM     18  C   UNL     1      32.998  23.387  31.366  0.00  0.00    +0.000 C 
ATOM     19  C   UNL     1      32.358  20.980  31.445  0.00  0.00    +0.000 C 
ENDBRANCH   9  16
TORSDOF 2
ENDMDL
MODEL 5
REMARK VINA RESULT:      -5.7     34.171     35.612
REMARK  Name = 
REMARK  2 active torsions:
REMARK  status: ('A' for Active; 'I' for Inactive)
REMARK    1  A    between atoms: C_6  and  C_8
REMARK    2  A    between atoms: C_15  and  C_16
REMARK                            x       y       z     vdW  Elec       q    Type
REMARK                         _______ _______ _______ _____ _____    ______ ____
ROOT
ATOM      1  C   UNL     1      29.272  30.551  18.990  0.00  0.00    +0.000 C 
ATOM      2  C   UNL     1      29.423  29.063  19.254  0.00  0.00    +0.000 A 
ATOM      3  N   UNL     1      29.270  28.555  20.432  0.00  0.00    +0.000 NA
ATOM      4  C   UNL     1      29.409  27.260  20.619  0.00  0.00    +0.000 A 
ATOM      5  N   UNL     1      29.282  26.498  21.846  0.00  0.00    +0.000 NA
ATOM      6  C   UNL     1      29.475  25.088  21.826  0.00  0.00    +0.000 C 
ATOM      7  O   UNL     1      29.752  24.577  20.712  0.00  0.00    +0.000 OA
ATOM      8  S   UNL     1      29.779  26.707  19.037  0.00  0.00    +0.000 S 
ATOM      9  C   UNL     1      29.729  28.212  18.225  0.00  0.00    +0.000 A 
ENDROOT
BRANCH   6  10
ATOM     10  C   UNL     1      29.358  24.269  23.039  0.00  0.00    +0.000 A 
ATOM     11  C   UNL     1      28.136  23.877  23.542  0.00  0.00    +0.000 A 
ATOM     12  C   UNL     1      27.988  23.107  24.679  0.00  0.00    +0.000 A 
ATOM     13  C   UNL     1      29.111  22.694  25.367  0.00  0.00    +0.000 A 
ATOM     14  C   UNL     1      30.352  23.080  24.874  0.00  0.00    +0.000 A 
ATOM     15  C   UNL     1      30.473  23.850  23.734  0.00  0.00    +0.000 A 
ENDBRANCH   6  10
BRANCH   9  16
ATOM     16  C   UNL     1      29.953  28.539  16.782  0.00  0.00    +0.000 C 
ATOM     17  C   UNL     1      30.220  27.251  16.055  0.00  0.00    +0.000 C 
ATOM     18  C   UNL     1      28.679  29.142  16.175  0.00  0.00    +0.000 C 
ATOM     19  C   UNL     1      31.098  29.517  16.644  0.00  0.00    +0.000 C 
ENDBRANCH   9  16
TORSDOF 2
ENDMDL
MODEL 6
REMARK VINA RESULT:      -5.5      1.663      7.767
REMARK  Name = 
REMARK  2 active torsions:
REMARK  status: ('A' for Active; 'I' for Inactive)
REMARK    1  A    between atoms: C_6  and  C_8
REMARK    2  A    between atoms: C_15  and  C_16
REMARK                            x       y       z     vdW  Elec       q    Type
REMARK                         _______ _______ _______ _____ _____    ______ ____
ROOT
ATOM      1  C   UNL     1      19.297  -5.270  26.000  0.00  0.00    +0.000 C 
ATOM      2  C   UNL     1      20.251  -6.419  25.726  0.00  0.00    +0.000 A 
ATOM      3  N   UNL     1      21.405  -6.237  25.174  0.00  0.00    +0.000 NA
ATOM      4  C   UNL     1      22.203  -7.260  24.953  0.00  0.00    +0.000 A 
ATOM      5  N   UNL     1      23.523  -7.272  24.352  0.00  0.00    +0.000 NA
ATOM      6  C   UNL     1      24.222  -8.503  24.206  0.00  0.00    +0.000 C 
ATOM      7  O   UNL     1      23.634  -9.533  24.621  0.00  0.00    +0.000 OA
ATOM      8  S   UNL     1      21.281  -8.573  25.561  0.00  0.00    +0.000 S 
ATOM      9  C   UNL     1      19.900  -7.698  26.068  0.00  0.00    +0.000 A 
ENDROOT
BRANCH   6  10
ATOM     10  C   UNL     1      25.559  -8.572  23.605  0.00  0.00    +0.000 A 
ATOM     11  C   UNL     1      26.144  -7.484  22.993  0.00  0.00    +0.000 A 
ATOM     12  C   UNL     1      27.399  -7.513  22.417  0.00  0.00    +0.000 A 
ATOM     13  C   UNL     1      28.128  -8.684  22.443  0.00  0.00    +0.000 A 
ATOM     14  C   UNL     1      27.553  -9.793  23.054  0.00  0.00    +0.000 A 
ATOM     15  C   UNL     1      26.296  -9.737  23.623  0.00  0.00    +0.000 A 
ENDBRANCH   6  10
BRANCH   9  16
ATOM     16  C   UNL     1      18.637  -8.176  26.715  0.00  0.00    +0.000 C 
ATOM     17  C   UNL     1      18.071  -7.035  27.514  0.00  0.00    +0.000 C 
ATOM     18  C   UNL     1      17.600  -8.531  25.641  0.00  0.00    +0.000 C 
ATOM     19  C   UNL     1      18.921  -9.387  27.574  0.00  0.00    +0.000 C 
ENDBRANCH   9  16
TORSDOF 2
ENDMDL
MODEL 7
REMARK VINA RESULT:      -5.5     31.849     34.134
REMARK  Name = 
REMARK  2 active torsions:
REMARK  status: ('A' for Active; 'I' for Inactive)
REMARK    1  A    between atoms: C_6  and  C_8
REMARK    2  A    between atoms: C_15  and  C_16
REMARK                            x       y       z     vdW  Elec       q    Type
REMARK                         _______ _______ _______ _____ _____    ______ ____
ROOT
ATOM      1  C   UNL     1      21.809  27.380  25.105  0.00  0.00    +0.000 C 
ATOM      2  C   UNL     1      22.932  26.644  25.814  0.00  0.00    +0.000 A 
ATOM      3  N   UNL     1      23.938  26.146  25.174  0.00  0.00    +0.000 NA
ATOM      4  C   UNL     1      24.891  25.514  25.826  0.00  0.00    +0.000 A 
ATOM      5  N   UNL     1      26.091  24.889  25.305  0.00  0.00    +0.000 NA
ATOM      6  C   UNL     1      27.001  24.253  26.195  0.00  0.00    +0.000 C 
ATOM      7  O   UNL     1      26.698  24.275  27.415  0.00  0.00    +0.000 OA
ATOM      8  S   UNL     1      24.348  25.624  27.450  0.00  0.00    +0.000 S 
ATOM      9  C   UNL     1      22.900  26.492  27.175  0.00  0.00    +0.000 A 
ENDROOT
BRANCH   6  10
ATOM     10  C   UNL     1      28.230  23.605  25.721  0.00  0.00    +0.000 A 
ATOM     11  C   UNL     1      28.606  23.631  24.395  0.00  0.00    +0.000 A 
ATOM     12  C   UNL     1      29.754  23.032  23.914  0.00  0.00    +0.000 A 
ATOM     13  C   UNL     1      30.587  22.366  24.789  0.00  0.00    +0.000 A 
ATOM     14  C   UNL     1      30.223  22.329  26.130  0.00  0.00    +0.000 A 
ATOM     15  C   UNL     1      29.070  22.936  26.586  0.00  0.00    +0.000 A 
ENDBRANCH   6  10
BRANCH   9  16
ATOM     16  C   UNL     1      21.861  26.970  28.140  0.00  0.00    +0.000 C 
ATOM     17  C   UNL     1      22.397  26.765  29.530  0.00  0.00    +0.000 C 
ATOM     18  C   UNL     1      21.634  28.478  27.964  0.00  0.00    +0.000 C 
ATOM     19  C   UNL     1      20.563  26.227  27.916  0.00  0.00    +0.000 C 
ENDBRANCH   9  16
TORSDOF 2
ENDMDL
MODEL 8
REMARK VINA RESULT:      -5.3      1.713      7.540
REMARK  Name = 
REMARK  2 active torsions:
REMARK  status: ('A' for Active; 'I' for Inactive)
REMARK    1  A    between atoms: C_6  and  C_8
REMARK    2  A    between atoms: C_15  and  C_16
REMARK                            x       y       z     vdW  Elec       q    Type
REMARK                         _______ _______ _______ _____ _____    ______ ____
ROOT
ATOM      1  C   UNL     1      17.993 -10.312  25.508  0.00  0.00    +0.000 C 
ATOM      2  C   UNL     1      19.179  -9.367  25.435  0.00  0.00    +0.000 A 
ATOM      3  N   UNL     1      20.276  -9.687  24.832  0.00  0.00    +0.000 NA
ATOM      4  C   UNL     1      21.282  -8.839  24.792  0.00  0.00    +0.000 A 
ATOM      5  N   UNL     1      22.584  -8.999  24.174  0.00  0.00    +0.000 NA
ATOM      6  C   UNL     1      23.536  -7.945  24.248  0.00  0.00    +0.000 C 
ATOM      7  O   UNL     1      23.178  -6.908  24.863  0.00  0.00    +0.000 OA
ATOM      8  S   UNL     1      20.654  -7.495  25.656  0.00  0.00    +0.000 S 
ATOM      9  C   UNL     1      19.107  -8.130  26.019  0.00  0.00    +0.000 A 
ENDROOT
BRANCH   6  10
ATOM     10  C   UNL     1      24.869  -8.054  23.642  0.00  0.00    +0.000 A 
ATOM     11  C   UNL     1      25.513  -9.266  23.504  0.00  0.00    +0.000 A 
ATOM     12  C   UNL     1      26.765  -9.406  22.939  0.00  0.00    +0.000 A 
ATOM     13  C   UNL     1      27.429  -8.287  22.479  0.00  0.00    +0.000 A 
ATOM     14  C   UNL     1      26.795  -7.057  22.611  0.00  0.00    +0.000 A 
ATOM     15  C   UNL     1      25.542  -6.943  23.179  0.00  0.00    +0.000 A 
ENDBRANCH   6  10
BRANCH   9  16
ATOM     16  C   UNL     1      17.964  -7.520  26.769  0.00  0.00    +0.000 C 
ATOM     17  C   UNL     1      18.221  -6.042  26.875  0.00  0.00    +0.000 C 
ATOM     18  C   UNL     1      16.662  -7.695  25.977  0.00  0.00    +0.000 C 
ATOM     19  C   UNL     1      17.829  -8.171  28.128  0.00  0.00    +0.000 C 
ENDBRANCH   9  16
TORSDOF 2
ENDMDL
MODEL 9
REMARK VINA RESULT:      -5.3      6.217     10.889
REMARK  Name = 
REMARK  2 active torsions:
REMARK  status: ('A' for Active; 'I' for Inactive)
REMARK    1  A    between atoms: C_6  and  C_8
REMARK    2  A    between atoms: C_15  and  C_16
REMARK                            x       y       z     vdW  Elec       q    Type
REMARK                         _______ _______ _______ _____ _____    ______ ____
ROOT
ATOM      1  C   UNL     1      10.810  -8.900  24.515  0.00  0.00    +0.000 C 
ATOM      2  C   UNL     1      12.132  -9.040  25.248  0.00  0.00    +0.000 A 
ATOM      3  N   UNL     1      13.175  -8.351  24.922  0.00  0.00    +0.000 NA
ATOM      4  C   UNL     1      14.303  -8.502  25.583  0.00  0.00    +0.000 A 
ATOM      5  N   UNL     1      15.574  -7.834  25.380  0.00  0.00    +0.000 NA
ATOM      6  C   UNL     1      16.680  -8.150  26.217  0.00  0.00    +0.000 C 
ATOM      7  O   UNL     1      16.479  -9.013  27.109  0.00  0.00    +0.000 OA
ATOM      8  S   UNL     1      13.881  -9.690  26.746  0.00  0.00    +0.000 S 
ATOM      9  C   UNL     1      12.246  -9.918  26.293  0.00  0.00    +0.000 A 
ENDROOT
BRANCH   6  10
ATOM     10  C   UNL     1      17.989  -7.505  26.056  0.00  0.00    +0.000 A 
ATOM     11  C   UNL     1      19.092  -8.193  25.595  0.00  0.00    +0.000 A 
ATOM     12  C   UNL     1      20.337  -7.619  25.431  0.00  0.00    +0.000 A 
ATOM     13  C   UNL     1      20.513  -6.285  25.738  0.00  0.00    +0.000 A 
ATOM     14  C   UNL     1      19.412  -5.576  26.205  0.00  0.00    +0.000 A 
ATOM     15  C   UNL     1      18.177  -6.173  26.360  0.00  0.00    +0.000 A 
ENDBRANCH   6  10
BRANCH   9  16
ATOM     16  C   UNL     1      11.201 -10.824  26.866  0.00  0.00    +0.000 C 
ATOM     17  C   UNL     1      10.092  -9.963  27.403  0.00  0.00    +0.000 C 
ATOM     18  C   UNL     1      10.597 -11.696  25.758  0.00  0.00    +0.000 C 
ATOM     19  C   UNL     1      11.808 -11.702  27.938  0.00  0.00    +0.000 C 
ENDBRANCH   9  16
TORSDOF 2
ENDMDL
MODEL 10
REMARK VINA RESULT:      -5.3     33.924     35.738
REMARK  Name = 
REMARK  2 active torsions:
REMARK  status: ('A' for Active; 'I' for Inactive)
REMARK    1  A    between atoms: C_6  and  C_8
REMARK    2  A    between atoms: C_15  and  C_16
REMARK                            x       y       z     vdW  Elec       q    Type
REMARK                         _______ _______ _______ _____ _____    ______ ____
ROOT
ATOM      1  C   UNL     1      26.058  26.514  24.468  0.00  0.00    +0.000 C 
ATOM      2  C   UNL     1      27.058  26.209  23.367  0.00  0.00    +0.000 A 
ATOM      3  N   UNL     1      27.299  27.041  22.409  0.00  0.00    +0.000 NA
ATOM      4  C   UNL     1      28.174  26.739  21.473  0.00  0.00    +0.000 A 
ATOM      5  N   UNL     1      28.586  27.522  20.324  0.00  0.00    +0.000 NA
ATOM      6  C   UNL     1      29.558  27.001  19.425  0.00  0.00    +0.000 C 
ATOM      7  O   UNL     1      30.013  25.860  19.692  0.00  0.00    +0.000 OA
ATOM      8  S   UNL     1      28.700  25.181  21.963  0.00  0.00    +0.000 S 
ATOM      9  C   UNL     1      27.738  25.020  23.369  0.00  0.00    +0.000 A 
ENDROOT
BRANCH   6  10
ATOM     10  C   UNL     1      30.011  27.751  18.247  0.00  0.00    +0.000 A 
ATOM     11  C   UNL     1      29.170  28.587  17.545  0.00  0.00    +0.000 A 
ATOM     12  C   UNL     1      29.561  29.308  16.433  0.00  0.00    +0.000 A 
ATOM     13  C   UNL     1      30.860  29.201  15.981  0.00  0.00    +0.000 A 
ATOM     14  C   UNL     1      31.722  28.361  16.677  0.00  0.00    +0.000 A 
ATOM     15  C   UNL     1      31.306  27.652  17.786  0.00  0.00    +0.000 A 
ENDBRANCH   6  10
BRANCH   9  16
ATOM     16  C   UNL     1      27.646  23.897  24.354  0.00  0.00    +0.000 C 
ATOM     17  C   UNL     1      28.738  22.915  24.034  0.00  0.00    +0.000 C 
ATOM     18  C   UNL     1      27.912  24.418  25.773  0.00  0.00    +0.000 C 
ATOM     19  C   UNL     1      26.275  23.262  24.290  0.00  0.00    +0.000 C 
ENDBRANCH   9  16
TORSDOF 2
ENDMDL
