MODEL 1
REMARK VINA RESULT:      -6.2      0.000      0.000
REMARK  Name = 
REMARK  3 active torsions:
REMARK  status: ('A' for Active; 'I' for Inactive)
REMARK    1  A    between atoms: O_2  and  C_3
REMARK    2  A    between atoms: C_7  and  N_8
REMARK    3  A    between atoms: C_11  and  C_12
REMARK                            x       y       z     vdW  Elec       q    Type
REMARK                         _______ _______ _______ _____ _____    ______ ____
ROOT
ATOM      1  N   UNL     1      16.372  11.305  36.656  0.00  0.00    +0.000 N 
ATOM      2  C   UNL     1      15.189  11.401  37.297  0.00  0.00    +0.000 A 
ATOM      3  N   UNL     1      14.940  11.095  38.662  0.00  0.00    +0.000 NA
ATOM      4  C   UNL     1      14.243  11.854  36.387  0.00  0.00    +0.000 A 
ATOM      5  C   UNL     1      14.868  12.034  35.178  0.00  0.00    +0.000 A 
ATOM      6  C   UNL     1      16.187  11.683  35.384  0.00  0.00    +0.000 A 
ATOM      7  C   UNL     1      17.103  11.783  34.233  0.00  0.00    +0.000 C 
ATOM      8  C   UNL     1      16.510  11.354  32.933  0.00  0.00    +0.000 C 
ATOM      9  C   UNL     1      15.026  11.477  32.835  0.00  0.00    +0.000 C 
ATOM     10  C   UNL     1      14.484  12.479  33.819  0.00  0.00    +0.000 C 
ENDROOT
BRANCH   1  15
ATOM     11  C   UNL     1      19.722  11.301  38.307  0.00  0.00    +0.000 A 
ATOM     12  C   UNL     1      19.918   9.965  38.587  0.00  0.00    +0.000 A 
ATOM     13  C   UNL     1      18.923   9.087  38.218  0.00  0.00    +0.000 A 
ATOM     14  C   UNL     1      17.781   9.535  37.594  0.00  0.00    +0.000 A 
ATOM     15  C   UNL     1      17.562  10.867  37.303  0.00  0.00    +0.000 A 
ATOM     16  C   UNL     1      18.571  11.743  37.679  0.00  0.00    +0.000 A 
BRANCH  11  18
ATOM     17  C   UNL     1      20.427  13.549  38.782  0.00  0.00    +0.000 C 
ATOM     18  O   UNL     1      20.744  12.169  38.691  0.00  0.00    +0.000 OA
ENDBRANCH  11  18
ENDBRANCH   1  15
BRANCH   4  19
ATOM     19  C   UNL     1      12.861  12.096  36.643  0.00  0.00    +0.000 C 
ATOM     20  N   UNL     1      11.734  12.276  36.857  0.00  0.00    +0.000 NA
ENDBRANCH   4  19
TORSDOF 3
ENDMDL
MODEL 2
REMARK VINA RESULT:      -6.1     17.866     19.690
REMARK  Name = 
REMARK  3 active torsions:
REMARK  status: ('A' for Active; 'I' for Inactive)
REMARK    1  A    between atoms: O_2  and  C_3
REMARK    2  A    between atoms: C_7  and  N_8
REMARK    3  A    between atoms: C_11  and  C_12
REMARK                            x       y       z     vdW  Elec       q    Type
REMARK                         _______ _______ _______ _____ _____    ______ ____
ROOT
ATOM      1  N   UNL     1      27.863  23.414  26.470  0.00  0.00    +0.000 N 
ATOM      2  C   UNL     1      27.087  23.314  25.371  0.00  0.00    +0.000 A 
ATOM      3  N   UNL     1      25.694  23.033  25.343  0.00  0.00    +0.000 NA
ATOM      4  C   UNL     1      27.888  23.535  24.258  0.00  0.00    +0.000 A 
ATOM      5  C   UNL     1      29.167  23.772  24.695  0.00  0.00    +0.000 A 
ATOM      6  C   UNL     1      29.113  23.688  26.072  0.00  0.00    +0.000 A 
ATOM      7  C   UNL     1      30.368  23.904  26.815  0.00  0.00    +0.000 C 
ATOM      8  C   UNL     1      31.576  23.308  26.173  0.00  0.00    +0.000 C 
ATOM      9  C   UNL     1      31.497  23.141  24.692  0.00  0.00    +0.000 C 
ATOM     10  C   UNL     1      30.481  24.070  24.081  0.00  0.00    +0.000 C 
ENDROOT
BRANCH   1  15
ATOM     11  C   UNL     1      26.039  23.993  29.677  0.00  0.00    +0.000 A 
ATOM     12  C   UNL     1      26.357  22.871  30.412  0.00  0.00    +0.000 A 
ATOM     13  C   UNL     1      27.178  21.936  29.819  0.00  0.00    +0.000 A 
ATOM     14  C   UNL     1      27.657  22.126  28.543  0.00  0.00    +0.000 A 
ATOM     15  C   UNL     1      27.354  23.241  27.788  0.00  0.00    +0.000 A 
ATOM     16  C   UNL     1      26.526  24.176  28.395  0.00  0.00    +0.000 A 
BRANCH  11  18
ATOM     17  C   UNL     1      25.708  25.575  31.456  0.00  0.00    +0.000 C 
ATOM     18  O   UNL     1      25.207  24.924  30.300  0.00  0.00    +0.000 OA
ENDBRANCH  11  18
ENDBRANCH   1  15
BRANCH   4  19
ATOM     19  C   UNL     1      27.473  23.523  22.894  0.00  0.00    +0.000 C 
ATOM     20  N   UNL     1      27.122  23.499  21.787  0.00  0.00    +0.000 NA
ENDBRANCH   4  19
TORSDOF 3
ENDMDL
MODEL 3
REMARK VINA RESULT:      -6.1     18.498     20.169
REMARK  Name = 
REMARK  3 active torsions:
REMARK  status: ('A' for Active; 'I' for Inactive)
REMARK    1  A    between atoms: O_2  and  C_3
REMARK    2  A    between atoms: C_7  and  N_8
REMARK    3  A    between atoms: C_11  and  C_12
REMARK                            x       y       z     vdW  Elec       q    Type
REMARK                         _______ _______ _______ _____ _____    ______ ____
ROOT
ATOM      1  N   UNL     1      34.017   2.586  35.661  0.00  0.00    +0.000 N 
ATOM      2  C   UNL     1      33.984   1.874  36.806  0.00  0.00    +0.000 A 
ATOM      3  N   UNL     1      34.225   2.370  38.117  0.00  0.00    +0.000 NA
ATOM      4  C   UNL     1      33.670   0.560  36.487  0.00  0.00    +0.000 A 
ATOM      5  C   UNL     1      33.511   0.480  35.126  0.00  0.00    +0.000 A 
ATOM      6  C   UNL     1      33.734   1.755  34.648  0.00  0.00    +0.000 A 
ATOM      7  C   UNL     1      33.627   1.963  33.193  0.00  0.00    +0.000 C 
ATOM      8  C   UNL     1      34.184   0.851  32.367  0.00  0.00    +0.000 C 
ATOM      9  C   UNL     1      34.196  -0.489  33.024  0.00  0.00    +0.000 C 
ATOM     10  C   UNL     1      33.185  -0.572  34.137  0.00  0.00    +0.000 C 
ENDROOT
BRANCH   1  15
ATOM     11  C   UNL     1      35.819   5.843  35.964  0.00  0.00    +0.000 A 
ATOM     12  C   UNL     1      34.866   6.753  35.559  0.00  0.00    +0.000 A 
ATOM     13  C   UNL     1      33.634   6.260  35.190  0.00  0.00    +0.000 A 
ATOM     14  C   UNL     1      33.374   4.909  35.228  0.00  0.00    +0.000 A 
ATOM     15  C   UNL     1      34.311   3.979  35.630  0.00  0.00    +0.000 A 
ATOM     16  C   UNL     1      35.549   4.486  36.000  0.00  0.00    +0.000 A 
BRANCH  11  18
ATOM     17  C   UNL     1      37.868   5.584  37.192  0.00  0.00    +0.000 C 
ATOM     18  O   UNL     1      37.058   6.368  36.332  0.00  0.00    +0.000 OA
ENDBRANCH  11  18
ENDBRANCH   1  15
BRANCH   4  19
ATOM     19  C   UNL     1      33.532  -0.529  37.397  0.00  0.00    +0.000 C 
ATOM     20  N   UNL     1      33.425  -1.404  38.153  0.00  0.00    +0.000 NA
ENDBRANCH   4  19
TORSDOF 3
ENDMDL
MODEL 4
REMARK VINA RESULT:      -6.1     21.227     22.626
REMARK  Name = 
REMARK  3 active torsions:
REMARK  status: ('A' for Active; 'I' for Inactive)
REMARK    1  A    between atoms: O_2  and  C_3
REMARK    2  A    between atoms: C_7  and  N_8
REMARK    3  A    between atoms: C_11  and  C_12
REMARK                            x       y       z     vdW  Elec       q    Type
REMARK                         _______ _______ _______ _____ _____    ______ ____
ROOT
ATOM      1  N   UNL     1      17.662  -8.645  27.329  0.00  0.00    +0.000 N 
ATOM      2  C   UNL     1      16.600  -9.143  26.664  0.00  0.00    +0.000 A 
ATOM      3  N   UNL     1      16.058  -8.649  25.446  0.00  0.00    +0.000 NA
ATOM      4  C   UNL     1      16.118 -10.232  27.377  0.00  0.00    +0.000 A 
ATOM      5  C   UNL     1      16.904 -10.392  28.490  0.00  0.00    +0.000 A 
ATOM      6  C   UNL     1      17.850  -9.389  28.427  0.00  0.00    +0.000 A 
ATOM      7  C   UNL     1      18.843  -9.323  29.515  0.00  0.00    +0.000 C 
ATOM      8  C   UNL     1      18.293  -9.614  30.871  0.00  0.00    +0.000 C 
ATOM      9  C   UNL     1      17.078 -10.482  30.896  0.00  0.00    +0.000 C 
ATOM     10  C   UNL     1      16.964 -11.315  29.647  0.00  0.00    +0.000 C 
ENDROOT
BRANCH   1  15
ATOM     11  C   UNL     1      20.265  -6.533  25.681  0.00  0.00    +0.000 A 
ATOM     12  C   UNL     1      19.838  -5.253  25.965  0.00  0.00    +0.000 A 
ATOM     13  C   UNL     1      18.683  -5.119  26.704  0.00  0.00    +0.000 A 
ATOM     14  C   UNL     1      17.990  -6.225  27.138  0.00  0.00    +0.000 A 
ATOM     15  C   UNL     1      18.397  -7.516  26.868  0.00  0.00    +0.000 A 
ATOM     16  C   UNL     1      19.562  -7.640  26.123  0.00  0.00    +0.000 A 
BRANCH  11  18
ATOM     17  C   UNL     1      22.105  -7.893  24.945  0.00  0.00    +0.000 C 
ATOM     18  O   UNL     1      21.437  -6.642  24.933  0.00  0.00    +0.000 OA
ENDBRANCH  11  18
ENDBRANCH   1  15
BRANCH   4  19
ATOM     19  C   UNL     1      15.004 -11.052  27.031  0.00  0.00    +0.000 C 
ATOM     20  N   UNL     1      14.085 -11.708  26.757  0.00  0.00    +0.000 NA
ENDBRANCH   4  19
TORSDOF 3
ENDMDL
MODEL 5
REMARK VINA RESULT:      -6.0     19.270     20.958
REMARK  Name = 
REMARK  3 active torsions:
REMARK  status: ('A' for Active; 'I' for Inactive)
REMARK    1  A    between atoms: O_2  and  C_3
REMARK    2  A    between atoms: C_7  and  N_8
REMARK    3  A    between atoms: C_11  and  C_12
REMARK                            x       y       z     vdW  Elec       q    Type
REMARK                         _______ _______ _______ _____ _____    ______ ____
ROOT
ATOM      1  N   UNL     1      29.424  23.589  25.438  0.00  0.00    +0.000 N 
ATOM      2  C   UNL     1      30.059  24.019  24.329  0.00  0.00    +0.000 A 
ATOM      3  N   UNL     1      31.415  24.436  24.239  0.00  0.00    +0.000 NA
ATOM      4  C   UNL     1      29.154  23.986  23.276  0.00  0.00    +0.000 A 
ATOM      5  C   UNL     1      27.955  23.528  23.760  0.00  0.00    +0.000 A 
ATOM      6  C   UNL     1      28.160  23.292  25.104  0.00  0.00    +0.000 A 
ATOM      7  C   UNL     1      27.018  22.785  25.886  0.00  0.00    +0.000 C 
ATOM      8  C   UNL     1      25.703  23.391  25.524  0.00  0.00    +0.000 C 
ATOM      9  C   UNL     1      25.600  23.906  24.127  0.00  0.00    +0.000 C 
ATOM     10  C   UNL     1      26.605  23.252  23.217  0.00  0.00    +0.000 C 
ENDROOT
BRANCH   1  15
ATOM     11  C   UNL     1      31.430  22.317  28.320  0.00  0.00    +0.000 A 
ATOM     12  C   UNL     1      31.333  23.347  29.232  0.00  0.00    +0.000 A 
ATOM     13  C   UNL     1      30.597  24.452  28.865  0.00  0.00    +0.000 A 
ATOM     14  C   UNL     1      29.985  24.516  27.634  0.00  0.00    +0.000 A 
ATOM     15  C   UNL     1      30.067  23.498  26.705  0.00  0.00    +0.000 A 
ATOM     16  C   UNL     1      30.811  22.389  27.085  0.00  0.00    +0.000 A 
BRANCH  11  18
ATOM     17  C   UNL     1      33.208  21.426  29.669  0.00  0.00    +0.000 C 
ATOM     18  O   UNL     1      32.181  21.210  28.716  0.00  0.00    +0.000 OA
ENDBRANCH  11  18
ENDBRANCH   1  15
BRANCH   4  19
ATOM     19  C   UNL     1      29.408  24.358  21.923  0.00  0.00    +0.000 C 
ATOM     20  N   UNL     1      29.596  24.661  20.817  0.00  0.00    +0.000 NA
ENDBRANCH   4  19
TORSDOF 3
ENDMDL
MODEL 6
REMARK VINA RESULT:      -5.9     18.395     20.092
REMARK  Name = 
REMARK  3 active torsions:
REMARK  status: ('A' for Active; 'I' for Inactive)
REMARK    1  A    between atoms: O_2  and  C_3
REMARK    2  A    between atoms: C_7  and  N_8
REMARK    3  A    between atoms: C_11  and  C_12
REMARK                            x       y       z     vdW  Elec       q    Type
REMARK                         _______ _______ _______ _____ _____    ______ ____
ROOT
ATOM      1  N   UNL     1      25.532  24.793  25.907  0.00  0.00    +0.000 N 
ATOM      2  C   UNL     1      26.063  24.206  26.999  0.00  0.00    +0.000 A 
ATOM      3  N   UNL     1      27.106  23.240  27.016  0.00  0.00    +0.000 NA
ATOM      4  C   UNL     1      25.412  24.709  28.118  0.00  0.00    +0.000 A 
ATOM      5  C   UNL     1      24.474  25.615  27.692  0.00  0.00    +0.000 A 
ATOM      6  C   UNL     1      24.577  25.640  26.315  0.00  0.00    +0.000 A 
ATOM      7  C   UNL     1      23.671  26.544  25.583  0.00  0.00    +0.000 C 
ATOM      8  C   UNL     1      22.285  26.609  26.134  0.00  0.00    +0.000 C 
ATOM      9  C   UNL     1      22.159  26.292  27.587  0.00  0.00    +0.000 C 
ATOM     10  C   UNL     1      23.461  26.496  28.316  0.00  0.00    +0.000 C 
ENDROOT
BRANCH   1  15
ATOM     11  C   UNL     1      27.352  24.968  22.650  0.00  0.00    +0.000 A 
ATOM     12  C   UNL     1      26.832  23.895  21.957  0.00  0.00    +0.000 A 
ATOM     13  C   UNL     1      25.880  23.130  22.594  0.00  0.00    +0.000 A 
ATOM     14  C   UNL     1      25.470  23.432  23.872  0.00  0.00    +0.000 A 
ATOM     15  C   UNL     1      25.974  24.501  24.586  0.00  0.00    +0.000 A 
ATOM     16  C   UNL     1      26.932  25.266  23.935  0.00  0.00    +0.000 A 
BRANCH  11  18
ATOM     17  C   UNL     1      29.287  25.026  21.227  0.00  0.00    +0.000 C 
ATOM     18  O   UNL     1      28.314  25.727  21.984  0.00  0.00    +0.000 OA
ENDBRANCH  11  18
ENDBRANCH   1  15
BRANCH   4  19
ATOM     19  C   UNL     1      25.661  24.359  29.478  0.00  0.00    +0.000 C 
ATOM     20  N   UNL     1      25.852  24.088  30.591  0.00  0.00    +0.000 NA
ENDBRANCH   4  19
TORSDOF 3
ENDMDL
MODEL 7
REMARK VINA RESULT:      -5.9     19.333     20.901
REMARK  Name = 
REMARK  3 active torsions:
REMARK  status: ('A' for Active; 'I' for Inactive)
REMARK    1  A    between atoms: O_2  and  C_3
REMARK    2  A    between atoms: C_7  and  N_8
REMARK    3  A    between atoms: C_11  and  C_12
REMARK                            x       y       z     vdW  Elec       q    Type
REMARK                         _______ _______ _______ _____ _____    ______ ____
ROOT
ATOM      1  N   UNL     1      29.441  23.382  25.383  0.00  0.00    +0.000 N 
ATOM      2  C   UNL     1      30.069  23.771  24.254  0.00  0.00    +0.000 A 
ATOM      3  N   UNL     1      31.455  24.050  24.111  0.00  0.00    +0.000 NA
ATOM      4  C   UNL     1      29.121  23.854  23.242  0.00  0.00    +0.000 A 
ATOM      5  C   UNL     1      27.903  23.509  23.772  0.00  0.00    +0.000 A 
ATOM      6  C   UNL     1      28.141  23.224  25.101  0.00  0.00    +0.000 A 
ATOM      7  C   UNL     1      26.988  22.817  25.924  0.00  0.00    +0.000 C 
ATOM      8  C   UNL     1      25.728  23.562  25.633  0.00  0.00    +0.000 C 
ATOM      9  C   UNL     1      25.617  24.116  24.252  0.00  0.00    +0.000 C 
ATOM     10  C   UNL     1      26.510  23.385  23.285  0.00  0.00    +0.000 C 
ENDROOT
BRANCH   1  15
ATOM     11  C   UNL     1      30.920  24.018  28.753  0.00  0.00    +0.000 A 
ATOM     12  C   UNL     1      31.493  22.802  29.065  0.00  0.00    +0.000 A 
ATOM     13  C   UNL     1      31.372  21.789  28.139  0.00  0.00    +0.000 A 
ATOM     14  C   UNL     1      30.706  21.991  26.953  0.00  0.00    +0.000 A 
ATOM     15  C   UNL     1      30.125  23.198  26.618  0.00  0.00    +0.000 A 
ATOM     16  C   UNL     1      30.252  24.213  27.557  0.00  0.00    +0.000 A 
BRANCH  11  18
ATOM     17  C   UNL     1      29.978  25.221  30.608  0.00  0.00    +0.000 C 
ATOM     18  O   UNL     1      31.056  25.027  29.706  0.00  0.00    +0.000 OA
ENDBRANCH  11  18
ENDBRANCH   1  15
BRANCH   4  19
ATOM     19  C   UNL     1      29.354  24.229  21.886  0.00  0.00    +0.000 C 
ATOM     20  N   UNL     1      29.529  24.547  20.783  0.00  0.00    +0.000 NA
ENDBRANCH   4  19
TORSDOF 3
ENDMDL
MODEL 8
REMARK VINA RESULT:      -5.8     17.841     19.866
REMARK  Name = 
REMARK  3 active torsions:
REMARK  status: ('A' for Active; 'I' for Inactive)
REMARK    1  A    between atoms: O_2  and  C_3
REMARK    2  A    between atoms: C_7  and  N_8
REMARK    3  A    between atoms: C_11  and  C_12
REMARK                            x       y       z     vdW  Elec       q    Type
REMARK                         _______ _______ _______ _____ _____    ______ ____
ROOT
ATOM      1  N   UNL     1      26.979  23.700  26.833  0.00  0.00    +0.000 N 
ATOM      2  C   UNL     1      26.130  24.310  27.684  0.00  0.00    +0.000 A 
ATOM      3  N   UNL     1      24.991  25.084  27.332  0.00  0.00    +0.000 NA
ATOM      4  C   UNL     1      26.561  24.053  28.979  0.00  0.00    +0.000 A 
ATOM      5  C   UNL     1      27.688  23.274  28.905  0.00  0.00    +0.000 A 
ATOM      6  C   UNL     1      27.917  23.076  27.558  0.00  0.00    +0.000 A 
ATOM      7  C   UNL     1      29.086  22.259  27.182  0.00  0.00    +0.000 C 
ATOM      8  C   UNL     1      30.297  22.490  28.022  0.00  0.00    +0.000 C 
ATOM      9  C   UNL     1      30.032  22.986  29.405  0.00  0.00    +0.000 C 
ATOM     10  C   UNL     1      28.636  22.652  29.858  0.00  0.00    +0.000 C 
ENDROOT
BRANCH   1  15
ATOM     11  C   UNL     1      27.486  24.591  23.241  0.00  0.00    +0.000 A 
ATOM     12  C   UNL     1      26.498  23.866  22.609  0.00  0.00    +0.000 A 
ATOM     13  C   UNL     1      25.678  23.089  23.398  0.00  0.00    +0.000 A 
ATOM     14  C   UNL     1      25.846  23.045  24.763  0.00  0.00    +0.000 A 
ATOM     15  C   UNL     1      26.827  23.762  25.419  0.00  0.00    +0.000 A 
ATOM     16  C   UNL     1      27.647  24.542  24.615  0.00  0.00    +0.000 A 
BRANCH  11  18
ATOM     17  C   UNL     1      29.096  24.692  21.460  0.00  0.00    +0.000 C 
ATOM     18  O   UNL     1      28.302  25.370  22.421  0.00  0.00    +0.000 OA
ENDBRANCH  11  18
ENDBRANCH   1  15
BRANCH   4  19
ATOM     19  C   UNL     1      25.953  24.509  30.186  0.00  0.00    +0.000 C 
ATOM     20  N   UNL     1      25.474  24.886  31.175  0.00  0.00    +0.000 NA
ENDBRANCH   4  19
TORSDOF 3
ENDMDL
MODEL 9
REMARK VINA RESULT:      -5.5     17.999     19.761
REMARK  Name = 
REMARK  3 active torsions:
REMARK  status: ('A' for Active; 'I' for Inactive)
REMARK    1  A    between atoms: O_2  and  C_3
REMARK    2  A    between atoms: C_7  and  N_8
REMARK    3  A    between atoms: C_11  and  C_12
REMARK                            x       y       z     vdW  Elec       q    Type
REMARK                         _______ _______ _______ _____ _____    ______ ____
ROOT
ATOM      1  N   UNL     1      34.126   2.624  36.242  0.00  0.00    +0.000 N 
ATOM      2  C   UNL     1      34.126   1.535  37.037  0.00  0.00    +0.000 A 
ATOM      3  N   UNL     1      34.466   1.495  38.416  0.00  0.00    +0.000 NA
ATOM      4  C   UNL     1      33.734   0.444  36.272  0.00  0.00    +0.000 A 
ATOM      5  C   UNL     1      33.494   0.886  34.995  0.00  0.00    +0.000 A 
ATOM      6  C   UNL     1      33.748   2.242  35.014  0.00  0.00    +0.000 A 
ATOM      7  C   UNL     1      33.566   2.985  33.754  0.00  0.00    +0.000 C 
ATOM      8  C   UNL     1      34.022   2.254  32.535  0.00  0.00    +0.000 C 
ATOM      9  C   UNL     1      34.010   0.766  32.640  0.00  0.00    +0.000 C 
ATOM     10  C   UNL     1      33.062   0.291  33.709  0.00  0.00    +0.000 C 
ENDROOT
BRANCH   1  15
ATOM     11  C   UNL     1      33.953   5.989  37.855  0.00  0.00    +0.000 A 
ATOM     12  C   UNL     1      35.219   6.491  37.639  0.00  0.00    +0.000 A 
ATOM     13  C   UNL     1      36.110   5.693  36.956  0.00  0.00    +0.000 A 
ATOM     14  C   UNL     1      35.743   4.445  36.510  0.00  0.00    +0.000 A 
ATOM     15  C   UNL     1      34.482   3.920  36.713  0.00  0.00    +0.000 A 
ATOM     16  C   UNL     1      33.592   4.732  37.402  0.00  0.00    +0.000 A 
BRANCH  11  18
ATOM     17  C   UNL     1      33.497   8.140  38.823  0.00  0.00    +0.000 C 
ATOM     18  O   UNL     1      33.070   6.816  38.548  0.00  0.00    +0.000 OA
ENDBRANCH  11  18
ENDBRANCH   1  15
BRANCH   4  19
ATOM     19  C   UNL     1      33.599  -0.904  36.716  0.00  0.00    +0.000 C 
ATOM     20  N   UNL     1      33.506  -2.001  37.086  0.00  0.00    +0.000 NA
ENDBRANCH   4  19
TORSDOF 3
ENDMDL
MODEL 10
REMARK VINA RESULT:      -5.5     18.176     20.311
REMARK  Name = 
REMARK  3 active torsions:
REMARK  status: ('A' for Active; 'I' for Inactive)
REMARK    1  A    between atoms: O_2  and  C_3
REMARK    2  A    between atoms: C_7  and  N_8
REMARK    3  A    between atoms: C_11  and  C_12
REMARK                            x       y       z     vdW  Elec       q    Type
REMARK                         _______ _______ _______ _____ _____    ______ ____
ROOT
ATOM      1  N   UNL     1      30.056  23.060  28.355  0.00  0.00    +0.000 N 
ATOM      2  C   UNL     1      30.698  22.493  29.396  0.00  0.00    +0.000 A 
ATOM      3  N   UNL     1      32.007  21.939  29.382  0.00  0.00    +0.000 NA
ATOM      4  C   UNL     1      29.856  22.541  30.499  0.00  0.00    +0.000 A 
ATOM      5  C   UNL     1      28.687  23.149  30.115  0.00  0.00    +0.000 A 
ATOM      6  C   UNL     1      28.848  23.456  28.778  0.00  0.00    +0.000 A 
ATOM      7  C   UNL     1      27.726  24.127  28.097  0.00  0.00    +0.000 C 
ATOM      8  C   UNL     1      26.376  23.630  28.493  0.00  0.00    +0.000 C 
ATOM      9  C   UNL     1      26.290  23.032  29.858  0.00  0.00    +0.000 C 
ATOM     10  C   UNL     1      27.401  23.517  30.750  0.00  0.00    +0.000 C 
ENDROOT
BRANCH   1  15
ATOM     11  C   UNL     1      32.234  24.158  25.527  0.00  0.00    +0.000 A 
ATOM     12  C   UNL     1      31.783  23.382  24.480  0.00  0.00    +0.000 A 
ATOM     13  C   UNL     1      30.756  22.501  24.741  0.00  0.00    +0.000 A 
ATOM     14  C   UNL     1      30.207  22.408  25.999  0.00  0.00    +0.000 A 
ATOM     15  C   UNL     1      30.640  23.175  27.062  0.00  0.00    +0.000 A 
ATOM     16  C   UNL     1      31.676  24.059  26.789  0.00  0.00    +0.000 A 
BRANCH  11  18
ATOM     17  C   UNL     1      34.436  24.502  24.627  0.00  0.00    +0.000 C 
ATOM     18  O   UNL     1      33.274  25.042  25.237  0.00  0.00    +0.000 OA
ENDBRANCH  11  18
ENDBRANCH   1  15
BRANCH   4  19
ATOM     19  C   UNL     1      30.137  22.052  31.809  0.00  0.00    +0.000 C 
ATOM     20  N   UNL     1      30.353  21.665  32.882  0.00  0.00    +0.000 NA
ENDBRANCH   4  19
TORSDOF 3
ENDMDL
