MODEL 1
REMARK VINA RESULT:      -7.8      0.000      0.000
REMARK  Name = 
REMARK  7 active torsions:
REMARK  status: ('A' for Active; 'I' for Inactive)
REMARK    1  A    between atoms: C_6  and  N_7
REMARK    2  A    between atoms: N_7  and  C_8
REMARK    3  A    between atoms: C_9  and  S_10
REMARK    4  A    between atoms: S_10  and  C_11
REMARK    5  A    between atoms: N_19  and  C_20
REMARK    6  A    between atoms: C_20  and  C_21
REMARK    7  A    between atoms: C_21  and  C_22
REMARK                            x       y       z     vdW  Elec       q    Type
REMARK                         _______ _______ _______ _____ _____    ______ ____
ROOT
ATOM      1  C   UNL     1      36.614   1.180  15.432  0.00  0.00    +0.000 C 
ATOM      2  C   UNL     1      37.380   1.442  14.406  0.00  0.00    +0.000 C 
ATOM      3  C   UNL     1      37.942   2.784  14.475  0.00  0.00    +0.000 C 
ATOM      4  O   UNL     1      38.715   3.359  13.663  0.00  0.00    +0.000 OA
ATOM      5  N   UNL     1      37.454   3.384  15.673  0.00  0.00    +0.000 N 
ATOM      6  C   UNL     1      36.627   2.391  16.272  0.00  0.00    +0.000 C 
ATOM      7  O   UNL     1      36.001   2.531  17.362  0.00  0.00    +0.000 OA
ENDROOT
BRANCH   1   8
ATOM      8  N   UNL     1      35.913  -0.033  15.674  0.00  0.00    +0.000 NA
BRANCH   8  14
ATOM      9  C   UNL     1      37.218  -4.776  16.201  0.00  0.00    +0.000 C 
ATOM     10  C   UNL     1      37.181  -3.366  16.730  0.00  0.00    +0.000 A 
ATOM     11  C   UNL     1      37.737  -3.053  17.952  0.00  0.00    +0.000 A 
ATOM     12  C   UNL     1      37.703  -1.747  18.441  0.00  0.00    +0.000 A 
ATOM     13  C   UNL     1      37.102  -0.764  17.688  0.00  0.00    +0.000 A 
ATOM     14  C   UNL     1      36.542  -1.053  16.468  0.00  0.00    +0.000 A 
ATOM     15  C   UNL     1      36.592  -2.350  16.014  0.00  0.00    +0.000 A 
ATOM     16  C   UNL     1      36.003  -2.724  14.699  0.00  0.00    +0.000 C 
ENDBRANCH   8  14
ENDBRANCH   1   8
BRANCH   2  17
ATOM     17  S   UNL     1      37.714   0.298  13.066  0.00  0.00    +0.000 S 
BRANCH  17  18
ATOM     18  C   UNL     1      38.926  -0.908  13.520  0.00  0.00    +0.000 A 
ATOM     19  C   UNL     1      39.634  -0.757  14.684  0.00  0.00    +0.000 A 
ATOM     20  C   UNL     1      40.578  -1.725  15.005  0.00  0.00    +0.000 A 
ATOM     21  C   UNL     1      40.814  -2.804  14.208  0.00  0.00    +0.000 A 
ATOM     22  C   UNL     1      40.103  -2.950  13.043  0.00  0.00    +0.000 A 
ATOM     23  C   UNL     1      39.148  -1.984  12.705  0.00  0.00    +0.000 A 
ENDBRANCH  17  18
ENDBRANCH   2  17
BRANCH   5  24
ATOM     24  C   UNL     1      37.747   4.720  16.161  0.00  0.00    +0.000 C 
BRANCH  24  25
ATOM     25  C   UNL     1      39.020   4.777  16.943  0.00  0.00    +0.000 C 
BRANCH  25  26
ATOM     26  C   UNL     1      38.966   5.835  17.978  0.00  0.00    +0.000 A 
ATOM     27  C   UNL     1      38.052   6.864  17.915  0.00  0.00    +0.000 A 
ATOM     28  C   UNL     1      38.022   7.838  18.894  0.00  0.00    +0.000 A 
ATOM     29  C   UNL     1      38.928   7.770  19.946  0.00  0.00    +0.000 A 
ATOM     30  C   UNL     1      39.843   6.740  20.008  0.00  0.00    +0.000 A 
ATOM     31  C   UNL     1      39.872   5.776  19.041  0.00  0.00    +0.000 A 
ENDBRANCH  25  26
ENDBRANCH  24  25
ENDBRANCH   5  24
TORSDOF 7
ENDMDL
MODEL 2
REMARK VINA RESULT:      -7.7      1.571      3.438
REMARK  Name = 
REMARK  7 active torsions:
REMARK  status: ('A' for Active; 'I' for Inactive)
REMARK    1  A    between atoms: C_6  and  N_7
REMARK    2  A    between atoms: N_7  and  C_8
REMARK    3  A    between atoms: C_9  and  S_10
REMARK    4  A    between atoms: S_10  and  C_11
REMARK    5  A    between atoms: N_19  and  C_20
REMARK    6  A    between atoms: C_20  and  C_21
REMARK    7  A    between atoms: C_21  and  C_22
REMARK                            x       y       z     vdW  Elec       q    Type
REMARK                         _______ _______ _______ _____ _____    ______ ____
ROOT
ATOM      1  C   UNL     1      38.319   2.481  14.243  0.00  0.00    +0.000 C 
ATOM      2  C   UNL     1      37.270   2.032  14.880  0.00  0.00    +0.000 C 
ATOM      3  C   UNL     1      36.924   2.875  16.017  0.00  0.00    +0.000 C 
ATOM      4  O   UNL     1      35.980   2.740  16.841  0.00  0.00    +0.000 OA
ATOM      5  N   UNL     1      37.873   3.938  16.059  0.00  0.00    +0.000 N 
ATOM      6  C   UNL     1      38.744   3.698  14.957  0.00  0.00    +0.000 C 
ATOM      7  O   UNL     1      39.731   4.423  14.643  0.00  0.00    +0.000 OA
ENDROOT
BRANCH   1   8
ATOM      8  N   UNL     1      38.920   1.899  13.092  0.00  0.00    +0.000 NA
BRANCH   8  14
ATOM      9  C   UNL     1      40.210  -2.571  11.414  0.00  0.00    +0.000 C 
ATOM     10  C   UNL     1      40.348  -1.471  12.433  0.00  0.00    +0.000 A 
ATOM     11  C   UNL     1      41.217  -1.593  13.496  0.00  0.00    +0.000 A 
ATOM     12  C   UNL     1      41.343  -0.572  14.438  0.00  0.00    +0.000 A 
ATOM     13  C   UNL     1      40.585   0.568  14.299  0.00  0.00    +0.000 A 
ATOM     14  C   UNL     1      39.715   0.712  13.247  0.00  0.00    +0.000 A 
ATOM     15  C   UNL     1      39.613  -0.312  12.335  0.00  0.00    +0.000 A 
ATOM     16  C   UNL     1      38.686  -0.214  11.175  0.00  0.00    +0.000 C 
ENDBRANCH   8  14
ENDBRANCH   1   8
BRANCH   2  17
ATOM     17  S   UNL     1      36.353   0.562  14.423  0.00  0.00    +0.000 S 
BRANCH  17  18
ATOM     18  C   UNL     1      37.185  -0.915  14.933  0.00  0.00    +0.000 A 
ATOM     19  C   UNL     1      37.902  -0.923  16.100  0.00  0.00    +0.000 A 
ATOM     20  C   UNL     1      38.542  -2.102  16.465  0.00  0.00    +0.000 A 
ATOM     21  C   UNL     1      38.475  -3.231  15.707  0.00  0.00    +0.000 A 
ATOM     22  C   UNL     1      37.755  -3.217  14.539  0.00  0.00    +0.000 A 
ATOM     23  C   UNL     1      37.105  -2.037  14.156  0.00  0.00    +0.000 A 
ENDBRANCH  17  18
ENDBRANCH   2  17
BRANCH   5  24
ATOM     24  C   UNL     1      37.926   5.022  17.023  0.00  0.00    +0.000 C 
BRANCH  24  25
ATOM     25  C   UNL     1      38.931   4.781  18.101  0.00  0.00    +0.000 C 
BRANCH  25  26
ATOM     26  C   UNL     1      39.239   6.029  18.837  0.00  0.00    +0.000 A 
ATOM     27  C   UNL     1      38.419   7.134  18.763  0.00  0.00    +0.000 A 
ATOM     28  C   UNL     1      38.728   8.287  19.460  0.00  0.00    +0.000 A 
ATOM     29  C   UNL     1      39.879   8.320  20.237  0.00  0.00    +0.000 A 
ATOM     30  C   UNL     1      40.700   7.215  20.310  0.00  0.00    +0.000 A 
ATOM     31  C   UNL     1      40.394   6.075  19.623  0.00  0.00    +0.000 A 
ENDBRANCH  25  26
ENDBRANCH  24  25
ENDBRANCH   5  24
TORSDOF 7
ENDMDL
MODEL 3
REMARK VINA RESULT:      -7.7      3.040      8.770
REMARK  Name = 
REMARK  7 active torsions:
REMARK  status: ('A' for Active; 'I' for Inactive)
REMARK    1  A    between atoms: C_6  and  N_7
REMARK    2  A    between atoms: N_7  and  C_8
REMARK    3  A    between atoms: C_9  and  S_10
REMARK    4  A    between atoms: S_10  and  C_11
REMARK    5  A    between atoms: N_19  and  C_20
REMARK    6  A    between atoms: C_20  and  C_21
REMARK    7  A    between atoms: C_21  and  C_22
REMARK                            x       y       z     vdW  Elec       q    Type
REMARK                         _______ _______ _______ _____ _____    ______ ____
ROOT
ATOM      1  C   UNL     1      38.901   5.419  15.417  0.00  0.00    +0.000 C 
ATOM      2  C   UNL     1      38.039   6.328  15.041  0.00  0.00    +0.000 C 
ATOM      3  C   UNL     1      36.761   5.741  14.662  0.00  0.00    +0.000 C 
ATOM      4  O   UNL     1      35.717   6.317  14.255  0.00  0.00    +0.000 OA
ATOM      5  N   UNL     1      36.879   4.330  14.831  0.00  0.00    +0.000 N 
ATOM      6  C   UNL     1      38.208   4.125  15.300  0.00  0.00    +0.000 C 
ATOM      7  O   UNL     1      38.713   2.997  15.575  0.00  0.00    +0.000 OA
ENDROOT
BRANCH   1   8
ATOM      8  N   UNL     1      40.236   5.650  15.849  0.00  0.00    +0.000 NA
BRANCH   8  14
ATOM      9  C   UNL     1      43.348   7.228  19.355  0.00  0.00    +0.000 C 
ATOM     10  C   UNL     1      41.994   6.707  18.951  0.00  0.00    +0.000 A 
ATOM     11  C   UNL     1      41.002   6.507  19.887  0.00  0.00    +0.000 A 
ATOM     12  C   UNL     1      39.749   6.025  19.511  0.00  0.00    +0.000 A 
ATOM     13  C   UNL     1      39.507   5.745  18.185  0.00  0.00    +0.000 A 
ATOM     14  C   UNL     1      40.479   5.938  17.236  0.00  0.00    +0.000 A 
ATOM     15  C   UNL     1      41.705   6.414  17.638  0.00  0.00    +0.000 A 
ATOM     16  C   UNL     1      42.798   6.643  16.654  0.00  0.00    +0.000 C 
ENDBRANCH   8  14
ENDBRANCH   1   8
BRANCH   2  17
ATOM     17  S   UNL     1      38.372   8.089  14.994  0.00  0.00    +0.000 S 
BRANCH  17  18
ATOM     18  C   UNL     1      38.571   8.762  16.618  0.00  0.00    +0.000 A 
ATOM     19  C   UNL     1      39.732   9.410  16.949  0.00  0.00    +0.000 A 
ATOM     20  C   UNL     1      39.850   9.924  18.235  0.00  0.00    +0.000 A 
ATOM     21  C   UNL     1      38.858   9.805  19.160  0.00  0.00    +0.000 A 
ATOM     22  C   UNL     1      37.697   9.155  18.824  0.00  0.00    +0.000 A 
ATOM     23  C   UNL     1      37.562   8.631  17.532  0.00  0.00    +0.000 A 
ENDBRANCH  17  18
ENDBRANCH   2  17
BRANCH   5  24
ATOM     24  C   UNL     1      35.855   3.333  14.575  0.00  0.00    +0.000 C 
BRANCH  24  25
ATOM     25  C   UNL     1      35.190   2.861  15.827  0.00  0.00    +0.000 C 
BRANCH  25  26
ATOM     26  C   UNL     1      35.328   1.395  15.989  0.00  0.00    +0.000 A 
ATOM     27  C   UNL     1      34.702   0.718  17.013  0.00  0.00    +0.000 A 
ATOM     28  C   UNL     1      34.847  -0.650  17.142  0.00  0.00    +0.000 A 
ATOM     29  C   UNL     1      35.633  -1.338  16.224  0.00  0.00    +0.000 A 
ATOM     30  C   UNL     1      36.258  -0.660  15.201  0.00  0.00    +0.000 A 
ATOM     31  C   UNL     1      36.115   0.693  15.072  0.00  0.00    +0.000 A 
ENDBRANCH  25  26
ENDBRANCH  24  25
ENDBRANCH   5  24
TORSDOF 7
ENDMDL
MODEL 4
REMARK VINA RESULT:      -7.5      1.232      1.649
REMARK  Name = 
REMARK  7 active torsions:
REMARK  status: ('A' for Active; 'I' for Inactive)
REMARK    1  A    between atoms: C_6  and  N_7
REMARK    2  A    between atoms: N_7  and  C_8
REMARK    3  A    between atoms: C_9  and  S_10
REMARK    4  A    between atoms: S_10  and  C_11
REMARK    5  A    between atoms: N_19  and  C_20
REMARK    6  A    between atoms: C_20  and  C_21
REMARK    7  A    between atoms: C_21  and  C_22
REMARK                            x       y       z     vdW  Elec       q    Type
REMARK                         _______ _______ _______ _____ _____    ______ ____
ROOT
ATOM      1  C   UNL     1      37.012   1.526  15.395  0.00  0.00    +0.000 C 
ATOM      2  C   UNL     1      37.517   1.929  14.259  0.00  0.00    +0.000 C 
ATOM      3  C   UNL     1      38.006   3.299  14.337  0.00  0.00    +0.000 C 
ATOM      4  O   UNL     1      38.548   3.996  13.438  0.00  0.00    +0.000 OA
ATOM      5  N   UNL     1      37.762   3.758  15.665  0.00  0.00    +0.000 N 
ATOM      6  C   UNL     1      37.144   2.659  16.327  0.00  0.00    +0.000 C 
ATOM      7  O   UNL     1      36.767   2.661  17.535  0.00  0.00    +0.000 OA
ENDROOT
BRANCH   1   8
ATOM      8  N   UNL     1      36.450   0.247  15.663  0.00  0.00    +0.000 NA
BRANCH   8  14
ATOM      9  C   UNL     1      37.322  -2.174  19.887  0.00  0.00    +0.000 C 
ATOM     10  C   UNL     1      37.661  -1.903  18.445  0.00  0.00    +0.000 A 
ATOM     11  C   UNL     1      38.698  -2.565  17.824  0.00  0.00    +0.000 A 
ATOM     12  C   UNL     1      39.010  -2.313  16.488  0.00  0.00    +0.000 A 
ATOM     13  C   UNL     1      38.269  -1.389  15.788  0.00  0.00    +0.000 A 
ATOM     14  C   UNL     1      37.231  -0.719  16.386  0.00  0.00    +0.000 A 
ATOM     15  C   UNL     1      36.948  -0.989  17.704  0.00  0.00    +0.000 A 
ATOM     16  C   UNL     1      35.834  -0.294  18.406  0.00  0.00    +0.000 C 
ENDBRANCH   8  14
ENDBRANCH   1   8
BRANCH   2  17
ATOM     17  S   UNL     1      37.609   0.929  12.774  0.00  0.00    +0.000 S 
BRANCH  17  18
ATOM     18  C   UNL     1      39.068  -0.071  12.745  0.00  0.00    +0.000 A 
ATOM     19  C   UNL     1      40.236   0.413  13.276  0.00  0.00    +0.000 A 
ATOM     20  C   UNL     1      41.360  -0.403  13.234  0.00  0.00    +0.000 A 
ATOM     21  C   UNL     1      41.334  -1.650  12.689  0.00  0.00    +0.000 A 
ATOM     22  C   UNL     1      40.162  -2.130  12.158  0.00  0.00    +0.000 A 
ATOM     23  C   UNL     1      39.020  -1.321  12.193  0.00  0.00    +0.000 A 
ENDBRANCH  17  18
ENDBRANCH   2  17
BRANCH   5  24
ATOM     24  C   UNL     1      38.083   5.067  16.207  0.00  0.00    +0.000 C 
BRANCH  24  25
ATOM     25  C   UNL     1      39.231   5.025  17.162  0.00  0.00    +0.000 C 
BRANCH  25  26
ATOM     26  C   UNL     1      39.096   6.064  18.209  0.00  0.00    +0.000 A 
ATOM     27  C   UNL     1      38.107   7.023  18.155  0.00  0.00    +0.000 A 
ATOM     28  C   UNL     1      38.002   7.981  19.145  0.00  0.00    +0.000 A 
ATOM     29  C   UNL     1      38.908   7.967  20.199  0.00  0.00    +0.000 A 
ATOM     30  C   UNL     1      39.896   7.008  20.253  0.00  0.00    +0.000 A 
ATOM     31  C   UNL     1      40.000   6.060  19.275  0.00  0.00    +0.000 A 
ENDBRANCH  25  26
ENDBRANCH  24  25
ENDBRANCH   5  24
TORSDOF 7
ENDMDL
MODEL 5
REMARK VINA RESULT:      -7.4      1.649      4.142
REMARK  Name = 
REMARK  7 active torsions:
REMARK  status: ('A' for Active; 'I' for Inactive)
REMARK    1  A    between atoms: C_6  and  N_7
REMARK    2  A    between atoms: N_7  and  C_8
REMARK    3  A    between atoms: C_9  and  S_10
REMARK    4  A    between atoms: S_10  and  C_11
REMARK    5  A    between atoms: N_19  and  C_20
REMARK    6  A    between atoms: C_20  and  C_21
REMARK    7  A    between atoms: C_21  and  C_22
REMARK                            x       y       z     vdW  Elec       q    Type
REMARK                         _______ _______ _______ _____ _____    ______ ____
ROOT
ATOM      1  C   UNL     1      37.155  -0.270  14.443  0.00  0.00    +0.000 C 
ATOM      2  C   UNL     1      36.280  -0.460  15.395  0.00  0.00    +0.000 C 
ATOM      3  C   UNL     1      35.931   0.785  16.068  0.00  0.00    +0.000 C 
ATOM      4  O   UNL     1      35.129   0.968  17.021  0.00  0.00    +0.000 OA
ATOM      5  N   UNL     1      36.684   1.825  15.447  0.00  0.00    +0.000 N 
ATOM      6  C   UNL     1      37.447   1.174  14.435  0.00  0.00    +0.000 C 
ATOM      7  O   UNL     1      38.252   1.753  13.650  0.00  0.00    +0.000 OA
ENDROOT
BRANCH   1   8
ATOM      8  N   UNL     1      37.708  -1.269  13.594  0.00  0.00    +0.000 NA
BRANCH   8  14
ATOM      9  C   UNL     1      42.249  -1.374  11.637  0.00  0.00    +0.000 C 
ATOM     10  C   UNL     1      41.315  -1.664  12.783  0.00  0.00    +0.000 A 
ATOM     11  C   UNL     1      41.776  -2.246  13.944  0.00  0.00    +0.000 A 
ATOM     12  C   UNL     1      40.910  -2.513  15.004  0.00  0.00    +0.000 A 
ATOM     13  C   UNL     1      39.577  -2.191  14.880  0.00  0.00    +0.000 A 
ATOM     14  C   UNL     1      39.097  -1.610  13.732  0.00  0.00    +0.000 A 
ATOM     15  C   UNL     1      39.976  -1.359  12.706  0.00  0.00    +0.000 A 
ATOM     16  C   UNL     1      39.513  -0.732  11.438  0.00  0.00    +0.000 C 
ENDBRANCH   8  14
ENDBRANCH   1   8
BRANCH   2  17
ATOM     17  S   UNL     1      35.580  -2.051  15.833  0.00  0.00    +0.000 S 
BRANCH  17  18
ATOM     18  C   UNL     1      36.746  -3.065  16.696  0.00  0.00    +0.000 A 
ATOM     19  C   UNL     1      37.482  -2.533  17.723  0.00  0.00    +0.000 A 
ATOM     20  C   UNL     1      38.387  -3.362  18.375  0.00  0.00    +0.000 A 
ATOM     21  C   UNL     1      38.559  -4.667  18.028  0.00  0.00    +0.000 A 
ATOM     22  C   UNL     1      37.819  -5.195  17.000  0.00  0.00    +0.000 A 
ATOM     23  C   UNL     1      36.903  -4.373  16.332  0.00  0.00    +0.000 A 
ENDBRANCH  17  18
ENDBRANCH   2  17
BRANCH   5  24
ATOM     24  C   UNL     1      36.663   3.236  15.785  0.00  0.00    +0.000 C 
BRANCH  24  25
ATOM     25  C   UNL     1      37.184   3.503  17.161  0.00  0.00    +0.000 C 
BRANCH  25  26
ATOM     26  C   UNL     1      38.352   4.414  17.125  0.00  0.00    +0.000 A 
ATOM     27  C   UNL     1      38.865   4.977  18.274  0.00  0.00    +0.000 A 
ATOM     28  C   UNL     1      39.955   5.824  18.214  0.00  0.00    +0.000 A 
ATOM     29  C   UNL     1      40.531   6.101  16.980  0.00  0.00    +0.000 A 
ATOM     30  C   UNL     1      40.017   5.537  15.832  0.00  0.00    +0.000 A 
ATOM     31  C   UNL     1      38.939   4.700  15.890  0.00  0.00    +0.000 A 
ENDBRANCH  25  26
ENDBRANCH  24  25
ENDBRANCH   5  24
TORSDOF 7
ENDMDL
MODEL 6
REMARK VINA RESULT:      -7.3      1.853      4.502
REMARK  Name = 
REMARK  7 active torsions:
REMARK  status: ('A' for Active; 'I' for Inactive)
REMARK    1  A    between atoms: C_6  and  N_7
REMARK    2  A    between atoms: N_7  and  C_8
REMARK    3  A    between atoms: C_9  and  S_10
REMARK    4  A    between atoms: S_10  and  C_11
REMARK    5  A    between atoms: N_19  and  C_20
REMARK    6  A    between atoms: C_20  and  C_21
REMARK    7  A    between atoms: C_21  and  C_22
REMARK                            x       y       z     vdW  Elec       q    Type
REMARK                         _______ _______ _______ _____ _____    ______ ____
ROOT
ATOM      1  C   UNL     1      38.496   1.985  14.433  0.00  0.00    +0.000 C 
ATOM      2  C   UNL     1      37.500   1.820  15.263  0.00  0.00    +0.000 C 
ATOM      3  C   UNL     1      37.292   2.993  16.103  0.00  0.00    +0.000 C 
ATOM      4  O   UNL     1      36.430   3.177  17.002  0.00  0.00    +0.000 OA
ATOM      5  N   UNL     1      38.274   3.957  15.729  0.00  0.00    +0.000 N 
ATOM      6  C   UNL     1      39.026   3.335  14.691  0.00  0.00    +0.000 C 
ATOM      7  O   UNL     1      40.000   3.867  14.085  0.00  0.00    +0.000 OA
ENDROOT
BRANCH   1   8
ATOM      8  N   UNL     1      38.964   1.040  13.479  0.00  0.00    +0.000 NA
BRANCH   8  14
ATOM      9  C   UNL     1      43.770  -0.130  13.412  0.00  0.00    +0.000 C 
ATOM     10  C   UNL     1      42.357  -0.445  13.826  0.00  0.00    +0.000 A 
ATOM     11  C   UNL     1      42.065  -1.580  14.551  0.00  0.00    +0.000 A 
ATOM     12  C   UNL     1      40.756  -1.869  14.934  0.00  0.00    +0.000 A 
ATOM     13  C   UNL     1      39.746  -1.006  14.577  0.00  0.00    +0.000 A 
ATOM     14  C   UNL     1      40.013   0.131  13.855  0.00  0.00    +0.000 A 
ATOM     15  C   UNL     1      41.313   0.388  13.493  0.00  0.00    +0.000 A 
ATOM     16  C   UNL     1      41.664   1.605  12.710  0.00  0.00    +0.000 C 
ENDBRANCH   8  14
ENDBRANCH   1   8
BRANCH   2  17
ATOM     17  S   UNL     1      36.498   0.338  15.370  0.00  0.00    +0.000 S 
BRANCH  17  18
ATOM     18  C   UNL     1      36.605  -0.413  16.969  0.00  0.00    +0.000 A 
ATOM     19  C   UNL     1      35.771   0.004  17.974  0.00  0.00    +0.000 A 
ATOM     20  C   UNL     1      35.887  -0.610  19.215  0.00  0.00    +0.000 A 
ATOM     21  C   UNL     1      36.791  -1.600  19.456  0.00  0.00    +0.000 A 
ATOM     22  C   UNL     1      37.623  -2.014  18.446  0.00  0.00    +0.000 A 
ATOM     23  C   UNL     1      37.520  -1.405  17.189  0.00  0.00    +0.000 A 
ENDBRANCH  17  18
ENDBRANCH   2  17
BRANCH   5  24
ATOM     24  C   UNL     1      38.454   5.282  16.296  0.00  0.00    +0.000 C 
BRANCH  24  25
ATOM     25  C   UNL     1      38.604   5.253  17.782  0.00  0.00    +0.000 C 
BRANCH  25  26
ATOM     26  C   UNL     1      39.919   5.792  18.200  0.00  0.00    +0.000 A 
ATOM     27  C   UNL     1      40.201   6.071  19.520  0.00  0.00    +0.000 A 
ATOM     28  C   UNL     1      41.436   6.573  19.883  0.00  0.00    +0.000 A 
ATOM     29  C   UNL     1      42.394   6.793  18.900  0.00  0.00    +0.000 A 
ATOM     30  C   UNL     1      42.111   6.513  17.581  0.00  0.00    +0.000 A 
ATOM     31  C   UNL     1      40.890   6.017  17.220  0.00  0.00    +0.000 A 
ENDBRANCH  25  26
ENDBRANCH  24  25
ENDBRANCH   5  24
TORSDOF 7
ENDMDL
MODEL 7
REMARK VINA RESULT:      -7.3      3.242      8.051
REMARK  Name = 
REMARK  7 active torsions:
REMARK  status: ('A' for Active; 'I' for Inactive)
REMARK    1  A    between atoms: C_6  and  N_7
REMARK    2  A    between atoms: N_7  and  C_8
REMARK    3  A    between atoms: C_9  and  S_10
REMARK    4  A    between atoms: S_10  and  C_11
REMARK    5  A    between atoms: N_19  and  C_20
REMARK    6  A    between atoms: C_20  and  C_21
REMARK    7  A    between atoms: C_21  and  C_22
REMARK                            x       y       z     vdW  Elec       q    Type
REMARK                         _______ _______ _______ _____ _____    ______ ____
ROOT
ATOM      1  C   UNL     1      37.836   4.474  15.086  0.00  0.00    +0.000 C 
ATOM      2  C   UNL     1      36.613   4.838  14.802  0.00  0.00    +0.000 C 
ATOM      3  C   UNL     1      35.704   3.700  14.759  0.00  0.00    +0.000 C 
ATOM      4  O   UNL     1      34.468   3.686  14.517  0.00  0.00    +0.000 OA
ATOM      5  N   UNL     1      36.473   2.535  15.049  0.00  0.00    +0.000 N 
ATOM      6  C   UNL     1      37.800   3.011  15.253  0.00  0.00    +0.000 C 
ATOM      7  O   UNL     1      38.795   2.283  15.536  0.00  0.00    +0.000 OA
ENDROOT
BRANCH   1   8
ATOM      8  N   UNL     1      38.964   5.332  15.206  0.00  0.00    +0.000 NA
BRANCH   8  14
ATOM      9  C   UNL     1      42.745   6.864  18.002  0.00  0.00    +0.000 C 
ATOM     10  C   UNL     1      41.331   6.359  17.884  0.00  0.00    +0.000 A 
ATOM     11  C   UNL     1      40.550   6.167  19.003  0.00  0.00    +0.000 A 
ATOM     12  C   UNL     1      39.241   5.700  18.891  0.00  0.00    +0.000 A 
ATOM     13  C   UNL     1      38.730   5.427  17.642  0.00  0.00    +0.000 A 
ATOM     14  C   UNL     1      39.489   5.612  16.514  0.00  0.00    +0.000 A 
ATOM     15  C   UNL     1      40.776   6.074  16.657  0.00  0.00    +0.000 A 
ATOM     16  C   UNL     1      41.648   6.294  15.471  0.00  0.00    +0.000 C 
ENDBRANCH   8  14
ENDBRANCH   1   8
BRANCH   2  17
ATOM     17  S   UNL     1      36.096   6.527  14.499  0.00  0.00    +0.000 S 
BRANCH  17  18
ATOM     18  C   UNL     1      35.389   6.718  12.888  0.00  0.00    +0.000 A 
ATOM     19  C   UNL     1      34.087   7.129  12.761  0.00  0.00    +0.000 A 
ATOM     20  C   UNL     1      33.569   7.266  11.479  0.00  0.00    +0.000 A 
ATOM     21  C   UNL     1      34.307   7.009  10.364  0.00  0.00    +0.000 A 
ATOM     22  C   UNL     1      35.610   6.599  10.497  0.00  0.00    +0.000 A 
ATOM     23  C   UNL     1      36.148   6.455  11.782  0.00  0.00    +0.000 A 
ENDBRANCH  17  18
ENDBRANCH   2  17
BRANCH   5  24
ATOM     24  C   UNL     1      35.991   1.167  15.117  0.00  0.00    +0.000 C 
BRANCH  24  25
ATOM     25  C   UNL     1      35.413   0.830  16.453  0.00  0.00    +0.000 C 
BRANCH  25  26
ATOM     26  C   UNL     1      36.270  -0.136  17.181  0.00  0.00    +0.000 A 
ATOM     27  C   UNL     1      36.167  -0.310  18.544  0.00  0.00    +0.000 A 
ATOM     28  C   UNL     1      36.977  -1.218  19.199  0.00  0.00    +0.000 A 
ATOM     29  C   UNL     1      37.900  -1.955  18.466  0.00  0.00    +0.000 A 
ATOM     30  C   UNL     1      38.002  -1.779  17.103  0.00  0.00    +0.000 A 
ATOM     31  C   UNL     1      37.201  -0.883  16.454  0.00  0.00    +0.000 A 
ENDBRANCH  25  26
ENDBRANCH  24  25
ENDBRANCH   5  24
TORSDOF 7
ENDMDL
MODEL 8
REMARK VINA RESULT:      -7.2      3.067      9.031
REMARK  Name = 
REMARK  7 active torsions:
REMARK  status: ('A' for Active; 'I' for Inactive)
REMARK    1  A    between atoms: C_6  and  N_7
REMARK    2  A    between atoms: N_7  and  C_8
REMARK    3  A    between atoms: C_9  and  S_10
REMARK    4  A    between atoms: S_10  and  C_11
REMARK    5  A    between atoms: N_19  and  C_20
REMARK    6  A    between atoms: C_20  and  C_21
REMARK    7  A    between atoms: C_21  and  C_22
REMARK                            x       y       z     vdW  Elec       q    Type
REMARK                         _______ _______ _______ _____ _____    ______ ____
ROOT
ATOM      1  C   UNL     1      38.088   5.748  16.390  0.00  0.00    +0.000 C 
ATOM      2  C   UNL     1      37.537   5.847  15.208  0.00  0.00    +0.000 C 
ATOM      3  C   UNL     1      37.017   4.568  14.742  0.00  0.00    +0.000 C 
ATOM      4  O   UNL     1      36.431   4.302  13.659  0.00  0.00    +0.000 OA
ATOM      5  N   UNL     1      37.293   3.606  15.758  0.00  0.00    +0.000 N 
ATOM      6  C   UNL     1      37.958   4.335  16.785  0.00  0.00    +0.000 C 
ATOM      7  O   UNL     1      38.373   3.838  17.872  0.00  0.00    +0.000 OA
ENDROOT
BRANCH   1   8
ATOM      8  N   UNL     1      38.689   6.802  17.131  0.00  0.00    +0.000 NA
BRANCH   8  14
ATOM      9  C   UNL     1      42.279   6.559  20.524  0.00  0.00    +0.000 C 
ATOM     10  C   UNL     1      41.849   6.611  19.082  0.00  0.00    +0.000 A 
ATOM     11  C   UNL     1      42.777   6.591  18.063  0.00  0.00    +0.000 A 
ATOM     12  C   UNL     1      42.377   6.640  16.729  0.00  0.00    +0.000 A 
ATOM     13  C   UNL     1      41.034   6.710  16.432  0.00  0.00    +0.000 A 
ATOM     14  C   UNL     1      40.093   6.730  17.431  0.00  0.00    +0.000 A 
ATOM     15  C   UNL     1      40.519   6.682  18.737  0.00  0.00    +0.000 A 
ATOM     16  C   UNL     1      39.544   6.700  19.862  0.00  0.00    +0.000 C 
ENDBRANCH   8  14
ENDBRANCH   1   8
BRANCH   2  17
ATOM     17  S   UNL     1      37.422   7.365  14.262  0.00  0.00    +0.000 S 
BRANCH  17  18
ATOM     18  C   UNL     1      36.084   8.383  14.816  0.00  0.00    +0.000 A 
ATOM     19  C   UNL     1      34.799   8.075  14.454  0.00  0.00    +0.000 A 
ATOM     20  C   UNL     1      33.777   8.899  14.909  0.00  0.00    +0.000 A 
ATOM     21  C   UNL     1      34.014   9.988  15.692  0.00  0.00    +0.000 A 
ATOM     22  C   UNL     1      35.303  10.292  16.052  0.00  0.00    +0.000 A 
ATOM     23  C   UNL     1      36.345   9.472  15.602  0.00  0.00    +0.000 A 
ENDBRANCH  17  18
ENDBRANCH   2  17
BRANCH   5  24
ATOM     24  C   UNL     1      36.959   2.193  15.734  0.00  0.00    +0.000 C 
BRANCH  24  25
ATOM     25  C   UNL     1      35.671   1.897  16.432  0.00  0.00    +0.000 C 
BRANCH  25  26
ATOM     26  C   UNL     1      35.400   0.442  16.465  0.00  0.00    +0.000 A 
ATOM     27  C   UNL     1      34.494  -0.106  17.347  0.00  0.00    +0.000 A 
ATOM     28  C   UNL     1      34.259  -1.468  17.359  0.00  0.00    +0.000 A 
ATOM     29  C   UNL     1      34.950  -2.282  16.468  0.00  0.00    +0.000 A 
ATOM     30  C   UNL     1      35.856  -1.733  15.586  0.00  0.00    +0.000 A 
ATOM     31  C   UNL     1      36.088  -0.387  15.574  0.00  0.00    +0.000 A 
ENDBRANCH  25  26
ENDBRANCH  24  25
ENDBRANCH   5  24
TORSDOF 7
ENDMDL
MODEL 9
REMARK VINA RESULT:      -7.2     26.107     28.946
REMARK  Name = 
REMARK  7 active torsions:
REMARK  status: ('A' for Active; 'I' for Inactive)
REMARK    1  A    between atoms: C_6  and  N_7
REMARK    2  A    between atoms: N_7  and  C_8
REMARK    3  A    between atoms: C_9  and  S_10
REMARK    4  A    between atoms: S_10  and  C_11
REMARK    5  A    between atoms: N_19  and  C_20
REMARK    6  A    between atoms: C_20  and  C_21
REMARK    7  A    between atoms: C_21  and  C_22
REMARK                            x       y       z     vdW  Elec       q    Type
REMARK                         _______ _______ _______ _____ _____    ______ ____
ROOT
ATOM      1  C   UNL     1      27.861  14.454  40.463  0.00  0.00    +0.000 C 
ATOM      2  C   UNL     1      26.619  14.066  40.582  0.00  0.00    +0.000 C 
ATOM      3  C   UNL     1      25.813  14.467  39.436  0.00  0.00    +0.000 C 
ATOM      4  O   UNL     1      24.588  14.262  39.222  0.00  0.00    +0.000 OA
ATOM      5  N   UNL     1      26.672  15.171  38.542  0.00  0.00    +0.000 N 
ATOM      6  C   UNL     1      27.948  15.165  39.176  0.00  0.00    +0.000 C 
ATOM      7  O   UNL     1      28.995  15.693  38.701  0.00  0.00    +0.000 OA
ENDROOT
BRANCH   1   8
ATOM      8  N   UNL     1      28.909  14.227  41.399  0.00  0.00    +0.000 NA
BRANCH   8  14
ATOM      9  C   UNL     1      30.890  10.405  43.834  0.00  0.00    +0.000 C 
ATOM     10  C   UNL     1      30.592  11.113  42.539  0.00  0.00    +0.000 A 
ATOM     11  C   UNL     1      30.993  10.583  41.331  0.00  0.00    +0.000 A 
ATOM     12  C   UNL     1      30.715  11.240  40.133  0.00  0.00    +0.000 A 
ATOM     13  C   UNL     1      30.033  12.435  40.164  0.00  0.00    +0.000 A 
ATOM     14  C   UNL     1      29.623  12.981  41.355  0.00  0.00    +0.000 A 
ATOM     15  C   UNL     1      29.912  12.309  42.520  0.00  0.00    +0.000 A 
ATOM     16  C   UNL     1      29.493  12.852  43.841  0.00  0.00    +0.000 C 
ENDBRANCH   8  14
ENDBRANCH   1   8
BRANCH   2  17
ATOM     17  S   UNL     1      25.967  13.148  41.977  0.00  0.00    +0.000 S 
BRANCH  17  18
ATOM     18  C   UNL     1      26.540  11.474  41.986  0.00  0.00    +0.000 A 
ATOM     19  C   UNL     1      26.913  10.876  40.811  0.00  0.00    +0.000 A 
ATOM     20  C   UNL     1      27.357   9.560  40.860  0.00  0.00    +0.000 A 
ATOM     21  C   UNL     1      27.431   8.860  42.025  0.00  0.00    +0.000 A 
ATOM     22  C   UNL     1      27.057   9.464  43.200  0.00  0.00    +0.000 A 
ATOM     23  C   UNL     1      26.607  10.789  43.168  0.00  0.00    +0.000 A 
ENDBRANCH  17  18
ENDBRANCH   2  17
BRANCH   5  24
ATOM     24  C   UNL     1      26.308  15.759  37.265  0.00  0.00    +0.000 C 
BRANCH  24  25
ATOM     25  C   UNL     1      26.750  14.926  36.105  0.00  0.00    +0.000 C 
BRANCH  25  26
ATOM     26  C   UNL     1      26.051  15.324  34.862  0.00  0.00    +0.000 A 
ATOM     27  C   UNL     1      25.903  14.452  33.804  0.00  0.00    +0.000 A 
ATOM     28  C   UNL     1      25.246  14.847  32.655  0.00  0.00    +0.000 A 
ATOM     29  C   UNL     1      24.734  16.137  32.577  0.00  0.00    +0.000 A 
ATOM     30  C   UNL     1      24.882  17.008  33.635  0.00  0.00    +0.000 A 
ATOM     31  C   UNL     1      25.531  16.618  34.772  0.00  0.00    +0.000 A 
ENDBRANCH  25  26
ENDBRANCH  24  25
ENDBRANCH   5  24
TORSDOF 7
ENDMDL
MODEL 10
REMARK VINA RESULT:      -7.0      3.061      8.007
REMARK  Name = 
REMARK  7 active torsions:
REMARK  status: ('A' for Active; 'I' for Inactive)
REMARK    1  A    between atoms: C_6  and  N_7
REMARK    2  A    between atoms: N_7  and  C_8
REMARK    3  A    between atoms: C_9  and  S_10
REMARK    4  A    between atoms: S_10  and  C_11
REMARK    5  A    between atoms: N_19  and  C_20
REMARK    6  A    between atoms: C_20  and  C_21
REMARK    7  A    between atoms: C_21  and  C_22
REMARK                            x       y       z     vdW  Elec       q    Type
REMARK                         _______ _______ _______ _____ _____    ______ ____
ROOT
ATOM      1  C   UNL     1      36.750   3.774  14.677  0.00  0.00    +0.000 C 
ATOM      2  C   UNL     1      37.960   3.330  14.896  0.00  0.00    +0.000 C 
ATOM      3  C   UNL     1      37.984   1.885  15.079  0.00  0.00    +0.000 C 
ATOM      4  O   UNL     1      38.969   1.134  15.307  0.00  0.00    +0.000 OA
ATOM      5  N   UNL     1      36.640   1.422  14.956  0.00  0.00    +0.000 N 
ATOM      6  C   UNL     1      35.869   2.594  14.706  0.00  0.00    +0.000 C 
ATOM      7  O   UNL     1      34.616   2.612  14.534  0.00  0.00    +0.000 OA
ENDROOT
BRANCH   1   8
ATOM      8  N   UNL     1      36.375   5.128  14.457  0.00  0.00    +0.000 NA
BRANCH   8  14
ATOM      9  C   UNL     1      33.350   7.519  11.359  0.00  0.00    +0.000 C 
ATOM     10  C   UNL     1      34.607   6.726  11.602  0.00  0.00    +0.000 A 
ATOM     11  C   UNL     1      35.462   6.415  10.566  0.00  0.00    +0.000 A 
ATOM     12  C   UNL     1      36.625   5.680  10.793  0.00  0.00    +0.000 A 
ATOM     13  C   UNL     1      36.916   5.261  12.071  0.00  0.00    +0.000 A 
ATOM     14  C   UNL     1      36.080   5.560  13.118  0.00  0.00    +0.000 A 
ATOM     15  C   UNL     1      34.941   6.286  12.862  0.00  0.00    +0.000 A 
ATOM     16  C   UNL     1      33.996   6.640  13.957  0.00  0.00    +0.000 C 
ENDBRANCH   8  14
ENDBRANCH   1   8
BRANCH   2  17
ATOM     17  S   UNL     1      39.426   4.360  14.964  0.00  0.00    +0.000 S 
BRANCH  17  18
ATOM     18  C   UNL     1      39.489   5.313  16.454  0.00  0.00    +0.000 A 
ATOM     19  C   UNL     1      40.024   6.574  16.433  0.00  0.00    +0.000 A 
ATOM     20  C   UNL     1      40.056   7.290  17.624  0.00  0.00    +0.000 A 
ATOM     21  C   UNL     1      39.576   6.781  18.792  0.00  0.00    +0.000 A 
ATOM     22  C   UNL     1      39.040   5.517  18.808  0.00  0.00    +0.000 A 
ATOM     23  C   UNL     1      39.001   4.782  17.616  0.00  0.00    +0.000 A 
ENDBRANCH  17  18
ENDBRANCH   2  17
BRANCH   5  24
ATOM     24  C   UNL     1      36.178   0.051  15.065  0.00  0.00    +0.000 C 
BRANCH  24  25
ATOM     25  C   UNL     1      35.517  -0.228  16.376  0.00  0.00    +0.000 C 
BRANCH  25  26
ATOM     26  C   UNL     1      36.440  -0.915  17.308  0.00  0.00    +0.000 A 
ATOM     27  C   UNL     1      36.243  -0.892  18.672  0.00  0.00    +0.000 A 
ATOM     28  C   UNL     1      37.119  -1.541  19.520  0.00  0.00    +0.000 A 
ATOM     29  C   UNL     1      38.206  -2.220  18.981  0.00  0.00    +0.000 A 
ATOM     30  C   UNL     1      38.403  -2.243  17.617  0.00  0.00    +0.000 A 
ATOM     31  C   UNL     1      37.536  -1.602  16.778  0.00  0.00    +0.000 A 
ENDBRANCH  25  26
ENDBRANCH  24  25
ENDBRANCH   5  24
TORSDOF 7
ENDMDL
