MODEL 1
REMARK VINA RESULT:      -7.8      0.000      0.000
REMARK  Name = 
REMARK  1 active torsions:
REMARK  status: ('A' for Active; 'I' for Inactive)
REMARK    1  A    between atoms: C_4  and  C_5
REMARK                            x       y       z     vdW  Elec       q    Type
REMARK                         _______ _______ _______ _____ _____    ______ ____
ROOT
ATOM      1  O   UNL     1      14.394  13.544  35.520  0.00  0.00    +0.000 OA
ATOM      2  C   UNL     1      15.221  12.620  35.372  0.00  0.00    +0.000 C 
ATOM      3  N   UNL     1      15.919  12.198  36.521  0.00  0.00    +0.000 NA
ATOM      4  C   UNL     1      16.137  10.611  36.579  0.00  0.00    +0.000 C 
ATOM      5  N   UNL     1      17.083  10.608  35.288  0.00  0.00    +0.000 NA
ATOM      6  C   UNL     1      16.405  10.996  34.103  0.00  0.00    +0.000 A 
ATOM      7  S   UNL     1      16.479  10.467  32.460  0.00  0.00    +0.000 S 
ATOM      8  C   UNL     1      15.307  11.537  31.798  0.00  0.00    +0.000 A 
ATOM      9  C   UNL     1      14.910  12.256  32.876  0.00  0.00    +0.000 A 
ATOM     10  C   UNL     1      15.486  11.970  34.074  0.00  0.00    +0.000 A 
ATOM     11  C   UNL     1      13.855  13.277  32.487  0.00  0.00    +0.000 C 
ATOM     12  C   UNL     1      14.539  14.148  31.430  0.00  0.00    +0.000 C 
ATOM     13  C   UNL     1      14.834  13.334  30.196  0.00  0.00    +0.000 C 
ATOM     14  C   UNL     1      14.686  11.834  30.459  0.00  0.00    +0.000 C 
ENDROOT
BRANCH   4  15
ATOM     15  C   UNL     1      17.366  10.702  37.650  0.00  0.00    +0.000 A 
ATOM     16  C   UNL     1      17.351   9.899  38.721  0.00  0.00    +0.000 A 
ATOM     17  C   UNL     1      18.398   9.992  39.614  0.00  0.00    +0.000 A 
ATOM     18  C   UNL     1      19.393  10.906  39.348  0.00  0.00    +0.000 A 
ATOM     19  N   UNL     1      19.353  11.684  38.255  0.00  0.00    +0.000 NA
ATOM     20  C   UNL     1      18.334  11.609  37.365  0.00  0.00    +0.000 A 
ENDBRANCH   4  15
TORSDOF 1
ENDMDL
MODEL 2
REMARK VINA RESULT:      -7.3      2.381      7.113
REMARK  Name = 
REMARK  1 active torsions:
REMARK  status: ('A' for Active; 'I' for Inactive)
REMARK    1  A    between atoms: C_4  and  C_5
REMARK                            x       y       z     vdW  Elec       q    Type
REMARK                         _______ _______ _______ _____ _____    ______ ____
ROOT
ATOM      1  O   UNL     1      14.571  11.041  38.592  0.00  0.00    +0.000 OA
ATOM      2  C   UNL     1      15.542  10.827  37.836  0.00  0.00    +0.000 C 
ATOM      3  N   UNL     1      15.403  11.221  36.490  0.00  0.00    +0.000 NA
ATOM      4  C   UNL     1      16.747  11.840  35.872  0.00  0.00    +0.000 C 
ATOM      5  N   UNL     1      17.542  10.458  35.996  0.00  0.00    +0.000 NA
ATOM      6  C   UNL     1      17.732  10.044  37.341  0.00  0.00    +0.000 A 
ATOM      7  S   UNL     1      19.035   9.285  38.182  0.00  0.00    +0.000 S 
ATOM      8  C   UNL     1      18.310   9.193  39.738  0.00  0.00    +0.000 A 
ATOM      9  C   UNL     1      17.093   9.753  39.540  0.00  0.00    +0.000 A 
ATOM     10  C   UNL     1      16.797  10.195  38.288  0.00  0.00    +0.000 A 
ATOM     11  C   UNL     1      16.285   9.764  40.826  0.00  0.00    +0.000 C 
ATOM     12  C   UNL     1      16.186   8.289  41.225  0.00  0.00    +0.000 C 
ATOM     13  C   UNL     1      17.550   7.750  41.572  0.00  0.00    +0.000 C 
ATOM     14  C   UNL     1      18.664   8.695  41.114  0.00  0.00    +0.000 C 
ENDROOT
BRANCH   4  15
ATOM     15  C   UNL     1      16.286  11.596  34.325  0.00  0.00    +0.000 A 
ATOM     16  C   UNL     1      17.010  10.771  33.558  0.00  0.00    +0.000 A 
ATOM     17  C   UNL     1      16.604  10.578  32.253  0.00  0.00    +0.000 A 
ATOM     18  C   UNL     1      15.482  11.249  31.822  0.00  0.00    +0.000 A 
ATOM     19  N   UNL     1      14.797  12.064  32.639  0.00  0.00    +0.000 NA
ATOM     20  C   UNL     1      15.177  12.267  33.924  0.00  0.00    +0.000 A 
ENDBRANCH   4  15
TORSDOF 1
ENDMDL
MODEL 3
REMARK VINA RESULT:      -7.1     19.817     21.170
REMARK  Name = 
REMARK  1 active torsions:
REMARK  status: ('A' for Active; 'I' for Inactive)
REMARK    1  A    between atoms: C_4  and  C_5
REMARK                            x       y       z     vdW  Elec       q    Type
REMARK                         _______ _______ _______ _____ _____    ______ ____
ROOT
ATOM      1  O   UNL     1      34.157   1.079  37.627  0.00  0.00    +0.000 OA
ATOM      2  C   UNL     1      33.838   0.887  36.435  0.00  0.00    +0.000 C 
ATOM      3  N   UNL     1      33.471  -0.425  36.075  0.00  0.00    +0.000 NA
ATOM      4  C   UNL     1      32.252  -0.476  35.034  0.00  0.00    +0.000 C 
ATOM      5  N   UNL     1      33.100   0.232  33.876  0.00  0.00    +0.000 NA
ATOM      6  C   UNL     1      33.460   1.569  34.189  0.00  0.00    +0.000 A 
ATOM      7  S   UNL     1      33.566   3.023  33.262  0.00  0.00    +0.000 S 
ATOM      8  C   UNL     1      34.090   4.080  34.513  0.00  0.00    +0.000 A 
ATOM      9  C   UNL     1      34.159   3.264  35.591  0.00  0.00    +0.000 A 
ATOM     10  C   UNL     1      33.830   1.956  35.417  0.00  0.00    +0.000 A 
ATOM     11  C   UNL     1      34.613   4.029  36.822  0.00  0.00    +0.000 C 
ATOM     12  C   UNL     1      35.982   4.594  36.435  0.00  0.00    +0.000 C 
ATOM     13  C   UNL     1      35.834   5.602  35.324  0.00  0.00    +0.000 C 
ATOM     14  C   UNL     1      34.449   5.533  34.679  0.00  0.00    +0.000 C 
ENDROOT
BRANCH   4  15
ATOM     15  C   UNL     1      32.585  -1.995  34.539  0.00  0.00    +0.000 A 
ATOM     16  C   UNL     1      33.490  -2.175  33.569  0.00  0.00    +0.000 A 
ATOM     17  C   UNL     1      33.756  -3.468  33.165  0.00  0.00    +0.000 A 
ATOM     18  C   UNL     1      33.074  -4.490  33.784  0.00  0.00    +0.000 A 
ATOM     19  N   UNL     1      32.177  -4.247  34.753  0.00  0.00    +0.000 NA
ATOM     20  C   UNL     1      31.901  -2.986  35.166  0.00  0.00    +0.000 A 
ENDBRANCH   4  15
TORSDOF 1
ENDMDL
MODEL 4
REMARK VINA RESULT:      -6.8     27.840     30.608
REMARK  Name = 
REMARK  1 active torsions:
REMARK  status: ('A' for Active; 'I' for Inactive)
REMARK    1  A    between atoms: C_4  and  C_5
REMARK                            x       y       z     vdW  Elec       q    Type
REMARK                         _______ _______ _______ _____ _____    ______ ____
ROOT
ATOM      1  O   UNL     1      32.513  20.460  12.420  0.00  0.00    +0.000 OA
ATOM      2  C   UNL     1      31.803  21.208  11.716  0.00  0.00    +0.000 C 
ATOM      3  N   UNL     1      30.574  21.625  12.266  0.00  0.00    +0.000 NA
ATOM      4  C   UNL     1      30.213  23.148  11.920  0.00  0.00    +0.000 C 
ATOM      5  N   UNL     1      30.080  22.851  10.354  0.00  0.00    +0.000 NA
ATOM      6  C   UNL     1      31.308  22.460   9.756  0.00  0.00    +0.000 A 
ATOM      7  S   UNL     1      32.050  22.789   8.232  0.00  0.00    +0.000 S 
ATOM      8  C   UNL     1      33.487  21.870   8.449  0.00  0.00    +0.000 A 
ATOM      9  C   UNL     1      33.330  21.349   9.689  0.00  0.00    +0.000 A 
ATOM     10  C   UNL     1      32.192  21.660  10.366  0.00  0.00    +0.000 A 
ATOM     11  C   UNL     1      34.522  20.488  10.070  0.00  0.00    +0.000 C 
ATOM     12  C   UNL     1      34.569  19.405   8.989  0.00  0.00    +0.000 C 
ATOM     13  C   UNL     1      34.886  20.020   7.649  0.00  0.00    +0.000 C 
ATOM     14  C   UNL     1      34.737  21.542   7.677  0.00  0.00    +0.000 C 
ENDROOT
BRANCH   4  15
ATOM     15  C   UNL     1      28.622  22.964  12.231  0.00  0.00    +0.000 A 
ATOM     16  C   UNL     1      27.840  22.416  11.292  0.00  0.00    +0.000 A 
ATOM     17  C   UNL     1      26.496  22.270  11.574  0.00  0.00    +0.000 A 
ATOM     18  C   UNL     1      26.045  22.698  12.802  0.00  0.00    +0.000 A 
ATOM     19  N   UNL     1      26.879  23.240  13.704  0.00  0.00    +0.000 NA
ATOM     20  C   UNL     1      28.202  23.393  13.448  0.00  0.00    +0.000 A 
ENDBRANCH   4  15
TORSDOF 1
ENDMDL
MODEL 5
REMARK VINA RESULT:      -6.5     28.087     30.770
REMARK  Name = 
REMARK  1 active torsions:
REMARK  status: ('A' for Active; 'I' for Inactive)
REMARK    1  A    between atoms: C_4  and  C_5
REMARK                            x       y       z     vdW  Elec       q    Type
REMARK                         _______ _______ _______ _____ _____    ______ ____
ROOT
ATOM      1  O   UNL     1      31.346  22.793   8.340  0.00  0.00    +0.000 OA
ATOM      2  C   UNL     1      31.332  22.425   9.533  0.00  0.00    +0.000 C 
ATOM      3  N   UNL     1      30.197  22.766  10.294  0.00  0.00    +0.000 NA
ATOM      4  C   UNL     1      29.743  21.606  11.305  0.00  0.00    +0.000 C 
ATOM      5  N   UNL     1      31.083  21.721  12.173  0.00  0.00    +0.000 NA
ATOM      6  C   UNL     1      32.247  21.352  11.448  0.00  0.00    +0.000 A 
ATOM      7  S   UNL     1      33.687  20.494  11.863  0.00  0.00    +0.000 S 
ATOM      8  C   UNL     1      34.476  20.575  10.337  0.00  0.00    +0.000 A 
ATOM      9  C   UNL     1      33.592  21.261   9.575  0.00  0.00    +0.000 A 
ATOM     10  C   UNL     1      32.432  21.664  10.158  0.00  0.00    +0.000 A 
ATOM     11  C   UNL     1      34.120  21.439   8.161  0.00  0.00    +0.000 C 
ATOM     12  C   UNL     1      35.439  22.194   8.340  0.00  0.00    +0.000 C 
ATOM     13  C   UNL     1      36.437  21.334   9.073  0.00  0.00    +0.000 C 
ATOM     14  C   UNL     1      35.769  20.117   9.716  0.00  0.00    +0.000 C 
ENDROOT
BRANCH   4  15
ATOM     15  C   UNL     1      28.878  22.613  12.255  0.00  0.00    +0.000 A 
ATOM     16  C   UNL     1      27.590  22.829  11.962  0.00  0.00    +0.000 A 
ATOM     17  C   UNL     1      26.876  23.684  12.778  0.00  0.00    +0.000 A 
ATOM     18  C   UNL     1      27.534  24.262  13.840  0.00  0.00    +0.000 A 
ATOM     19  N   UNL     1      28.829  24.005  14.083  0.00  0.00    +0.000 NA
ATOM     20  C   UNL     1      29.549  23.168  13.296  0.00  0.00    +0.000 A 
ENDBRANCH   4  15
TORSDOF 1
ENDMDL
MODEL 6
REMARK VINA RESULT:      -6.4     27.270     29.608
REMARK  Name = 
REMARK  1 active torsions:
REMARK  status: ('A' for Active; 'I' for Inactive)
REMARK    1  A    between atoms: C_4  and  C_5
REMARK                            x       y       z     vdW  Elec       q    Type
REMARK                         _______ _______ _______ _____ _____    ______ ____
ROOT
ATOM      1  O   UNL     1      29.268  20.821   9.521  0.00  0.00    +0.000 OA
ATOM      2  C   UNL     1      30.035  21.266  10.400  0.00  0.00    +0.000 C 
ATOM      3  N   UNL     1      31.392  20.898  10.309  0.00  0.00    +0.000 NA
ATOM      4  C   UNL     1      32.395  22.088  10.696  0.00  0.00    +0.000 C 
ATOM      5  N   UNL     1      31.901  22.123  12.218  0.00  0.00    +0.000 NA
ATOM      6  C   UNL     1      30.545  22.522  12.353  0.00  0.00    +0.000 A 
ATOM      7  S   UNL     1      29.699  23.502  13.496  0.00  0.00    +0.000 S 
ATOM      8  C   UNL     1      28.124  23.375  12.819  0.00  0.00    +0.000 A 
ATOM      9  C   UNL     1      28.321  22.581  11.739  0.00  0.00    +0.000 A 
ATOM     10  C   UNL     1      29.585  22.139  11.501  0.00  0.00    +0.000 A 
ATOM     11  C   UNL     1      27.018  22.347  10.994  0.00  0.00    +0.000 C 
ATOM     12  C   UNL     1      26.099  21.697  12.031  0.00  0.00    +0.000 C 
ATOM     13  C   UNL     1      25.797  22.670  13.142  0.00  0.00    +0.000 C 
ATOM     14  C   UNL     1      26.734  23.878  13.106  0.00  0.00    +0.000 C 
ENDROOT
BRANCH   4  15
ATOM     15  C   UNL     1      33.654  21.090  10.984  0.00  0.00    +0.000 A 
ATOM     16  C   UNL     1      33.792  20.559  12.205  0.00  0.00    +0.000 A 
ATOM     17  C   UNL     1      34.864  19.718  12.427  0.00  0.00    +0.000 A 
ATOM     18  C   UNL     1      35.724  19.480  11.380  0.00  0.00    +0.000 A 
ATOM     19  N   UNL     1      35.533  20.041  10.175  0.00  0.00    +0.000 NA
ATOM     20  C   UNL     1      34.487  20.869   9.935  0.00  0.00    +0.000 A 
ENDBRANCH   4  15
TORSDOF 1
ENDMDL
MODEL 7
REMARK VINA RESULT:      -6.4      7.795     10.105
REMARK  Name = 
REMARK  1 active torsions:
REMARK  status: ('A' for Active; 'I' for Inactive)
REMARK    1  A    between atoms: C_4  and  C_5
REMARK                            x       y       z     vdW  Elec       q    Type
REMARK                         _______ _______ _______ _____ _____    ______ ____
ROOT
ATOM      1  O   UNL     1      17.284   4.548  42.822  0.00  0.00    +0.000 OA
ATOM      2  C   UNL     1      18.151   4.882  41.987  0.00  0.00    +0.000 C 
ATOM      3  N   UNL     1      19.181   3.956  41.731  0.00  0.00    +0.000 NA
ATOM      4  C   UNL     1      19.607   3.899  40.186  0.00  0.00    +0.000 C 
ATOM      5  N   UNL     1      20.162   5.400  40.195  0.00  0.00    +0.000 NA
ATOM      6  C   UNL     1      19.145   6.366  40.418  0.00  0.00    +0.000 A 
ATOM      7  S   UNL     1      18.840   7.943  39.783  0.00  0.00    +0.000 S 
ATOM      8  C   UNL     1      17.406   8.295  40.665  0.00  0.00    +0.000 A 
ATOM      9  C   UNL     1      17.227   7.180  41.411  0.00  0.00    +0.000 A 
ATOM     10  C   UNL     1      18.136   6.177  41.279  0.00  0.00    +0.000 A 
ATOM     11  C   UNL     1      15.985   7.300  42.277  0.00  0.00    +0.000 C 
ATOM     12  C   UNL     1      16.242   8.539  43.139  0.00  0.00    +0.000 C 
ATOM     13  C   UNL     1      16.294   9.773  42.276  0.00  0.00    +0.000 C 
ATOM     14  C   UNL     1      16.415   9.421  40.792  0.00  0.00    +0.000 C 
ENDROOT
BRANCH   4  15
ATOM     15  C   UNL     1      21.057   3.215  40.491  0.00  0.00    +0.000 A 
ATOM     16  C   UNL     1      22.153   3.984  40.467  0.00  0.00    +0.000 A 
ATOM     17  C   UNL     1      23.369   3.386  40.726  0.00  0.00    +0.000 A 
ATOM     18  C   UNL     1      23.380   2.036  40.992  0.00  0.00    +0.000 A 
ATOM     19  N   UNL     1      22.247   1.316  41.003  0.00  0.00    +0.000 NA
ATOM     20  C   UNL     1      21.042   1.883  40.751  0.00  0.00    +0.000 A 
ENDBRANCH   4  15
TORSDOF 1
ENDMDL
MODEL 8
REMARK VINA RESULT:      -6.1     20.883     22.127
REMARK  Name = 
REMARK  1 active torsions:
REMARK  status: ('A' for Active; 'I' for Inactive)
REMARK    1  A    between atoms: C_4  and  C_5
REMARK                            x       y       z     vdW  Elec       q    Type
REMARK                         _______ _______ _______ _____ _____    ______ ____
ROOT
ATOM      1  O   UNL     1      23.946   4.076  14.199  0.00  0.00    +0.000 OA
ATOM      2  C   UNL     1      23.574   3.587  15.286  0.00  0.00    +0.000 C 
ATOM      3  N   UNL     1      22.422   2.777  15.262  0.00  0.00    +0.000 NA
ATOM      4  C   UNL     1      22.525   1.505  16.233  0.00  0.00    +0.000 C 
ATOM      5  N   UNL     1      22.575   2.408  17.552  0.00  0.00    +0.000 NA
ATOM      6  C   UNL     1      23.740   3.216  17.629  0.00  0.00    +0.000 A 
ATOM      7  S   UNL     1      24.779   3.691  18.925  0.00  0.00    +0.000 S 
ATOM      8  C   UNL     1      25.877   4.660  18.025  0.00  0.00    +0.000 A 
ATOM      9  C   UNL     1      25.394   4.574  16.763  0.00  0.00    +0.000 A 
ATOM     10  C   UNL     1      24.280   3.820  16.562  0.00  0.00    +0.000 A 
ATOM     11  C   UNL     1      26.247   5.380  15.799  0.00  0.00    +0.000 C 
ATOM     12  C   UNL     1      26.189   6.810  16.345  0.00  0.00    +0.000 C 
ATOM     13  C   UNL     1      26.864   6.881  17.691  0.00  0.00    +0.000 C 
ATOM     14  C   UNL     1      27.109   5.488  18.275  0.00  0.00    +0.000 C 
ENDROOT
BRANCH   4  15
ATOM     15  C   UNL     1      20.911   1.270  16.288  0.00  0.00    +0.000 A 
ATOM     16  C   UNL     1      20.203   1.870  17.253  0.00  0.00    +0.000 A 
ATOM     17  C   UNL     1      18.840   1.658  17.283  0.00  0.00    +0.000 A 
ATOM     18  C   UNL     1      18.293   0.841  16.320  0.00  0.00    +0.000 A 
ATOM     19  N   UNL     1      19.056   0.267  15.375  0.00  0.00    +0.000 NA
ATOM     20  C   UNL     1      20.396   0.462  15.327  0.00  0.00    +0.000 A 
ENDBRANCH   4  15
TORSDOF 1
ENDMDL
MODEL 9
REMARK VINA RESULT:      -6.0     17.614     19.149
REMARK  Name = 
REMARK  1 active torsions:
REMARK  status: ('A' for Active; 'I' for Inactive)
REMARK    1  A    between atoms: C_4  and  C_5
REMARK                            x       y       z     vdW  Elec       q    Type
REMARK                         _______ _______ _______ _____ _____    ______ ____
ROOT
ATOM      1  O   UNL     1      30.774  22.689  27.571  0.00  0.00    +0.000 OA
ATOM      2  C   UNL     1      30.098  22.737  28.620  0.00  0.00    +0.000 C 
ATOM      3  N   UNL     1      28.784  23.233  28.512  0.00  0.00    +0.000 NA
ATOM      4  C   UNL     1      27.735  22.446  29.435  0.00  0.00    +0.000 C 
ATOM      5  N   UNL     1      28.432  22.934  30.790  0.00  0.00    +0.000 NA
ATOM      6  C   UNL     1      29.748  22.426  30.951  0.00  0.00    +0.000 A 
ATOM      7  S   UNL     1      30.647  21.855  32.311  0.00  0.00    +0.000 S 
ATOM      8  C   UNL     1      32.117  21.479  31.500  0.00  0.00    +0.000 A 
ATOM      9  C   UNL     1      31.848  21.811  30.215  0.00  0.00    +0.000 A 
ATOM     10  C   UNL     1      30.612  22.304  29.934  0.00  0.00    +0.000 A 
ATOM     11  C   UNL     1      33.049  21.545  29.324  0.00  0.00    +0.000 C 
ATOM     12  C   UNL     1      34.164  22.406  29.924  0.00  0.00    +0.000 C 
ATOM     13  C   UNL     1      34.524  21.909  31.300  0.00  0.00    +0.000 C 
ATOM     14  C   UNL     1      33.477  20.931  31.839  0.00  0.00    +0.000 C 
ENDROOT
BRANCH   4  15
ATOM     15  C   UNL     1      26.632  23.649  29.407  0.00  0.00    +0.000 A 
ATOM     16  C   UNL     1      26.167  24.073  28.226  0.00  0.00    +0.000 A 
ATOM     17  C   UNL     1      25.236  25.092  28.224  0.00  0.00    +0.000 A 
ATOM     18  C   UNL     1      24.844  25.608  29.438  0.00  0.00    +0.000 A 
ATOM     19  N   UNL     1      25.345  25.140  30.592  0.00  0.00    +0.000 NA
ATOM     20  C   UNL     1      26.261  24.140  30.617  0.00  0.00    +0.000 A 
ENDBRANCH   4  15
TORSDOF 1
ENDMDL
MODEL 10
REMARK VINA RESULT:      -5.7     18.424     19.845
REMARK  Name = 
REMARK  1 active torsions:
REMARK  status: ('A' for Active; 'I' for Inactive)
REMARK    1  A    between atoms: C_4  and  C_5
REMARK                            x       y       z     vdW  Elec       q    Type
REMARK                         _______ _______ _______ _____ _____    ______ ____
ROOT
ATOM      1  O   UNL     1      25.606  26.471  24.510  0.00  0.00    +0.000 OA
ATOM      2  C   UNL     1      26.373  25.570  24.909  0.00  0.00    +0.000 C 
ATOM      3  N   UNL     1      26.141  25.060  26.202  0.00  0.00    +0.000 NA
ATOM      4  C   UNL     1      26.363  23.475  26.304  0.00  0.00    +0.000 C 
ATOM      5  N   UNL     1      27.929  23.588  25.994  0.00  0.00    +0.000 NA
ATOM      6  C   UNL     1      28.202  24.068  24.686  0.00  0.00    +0.000 A 
ATOM      7  S   UNL     1      29.395  23.678  23.498  0.00  0.00    +0.000 S 
ATOM      8  C   UNL     1      28.908  24.790  22.279  0.00  0.00    +0.000 A 
ATOM      9  C   UNL     1      27.846  25.412  22.843  0.00  0.00    +0.000 A 
ATOM     10  C   UNL     1      27.482  25.033  24.098  0.00  0.00    +0.000 A 
ATOM     11  C   UNL     1      27.265  26.452  21.901  0.00  0.00    +0.000 C 
ATOM     12  C   UNL     1      28.426  27.414  21.634  0.00  0.00    +0.000 C 
ATOM     13  C   UNL     1      29.524  26.709  20.881  0.00  0.00    +0.000 C 
ATOM     14  C   UNL     1      29.332  25.191  20.892  0.00  0.00    +0.000 C 
ENDROOT
BRANCH   4  15
ATOM     15  C   UNL     1      26.544  23.488  27.926  0.00  0.00    +0.000 A 
ATOM     16  C   UNL     1      25.761  24.290  28.658  0.00  0.00    +0.000 A 
ATOM     17  C   UNL     1      25.930  24.287  30.027  0.00  0.00    +0.000 A 
ATOM     18  C   UNL     1      26.894  23.459  30.555  0.00  0.00    +0.000 A 
ATOM     19  N   UNL     1      27.650  22.675  29.770  0.00  0.00    +0.000 NA
ATOM     20  C   UNL     1      27.500  22.662  28.423  0.00  0.00    +0.000 A 
ENDBRANCH   4  15
TORSDOF 1
ENDMDL
