MODEL 1
REMARK VINA RESULT:      -6.6      0.000      0.000
REMARK  Name = 
REMARK  2 active torsions:
REMARK  status: ('A' for Active; 'I' for Inactive)
REMARK    1  A    between atoms: C_2  and  C_3
REMARK    2  A    between atoms: C_3  and  C_5
REMARK                            x       y       z     vdW  Elec       q    Type
REMARK                         _______ _______ _______ _____ _____    ______ ____
ROOT
ATOM      1  C   UNL     1      27.626  23.559  24.256  0.00  0.00    +0.000 A 
ATOM      2  C   UNL     1      27.884  23.825  22.892  0.00  0.00    +0.000 A 
ATOM      3  C   UNL     1      29.180  23.977  22.490  0.00  0.00    +0.000 A 
ATOM      4  N   UNL     1      29.574  24.248  21.149  0.00  0.00    +0.000 NA
ATOM      5  N   UNL     1      30.146  23.866  23.410  0.00  0.00    +0.000 NA
ATOM      6  C   UNL     1      29.912  23.614  24.703  0.00  0.00    +0.000 A 
ATOM      7  N   UNL     1      30.657  23.460  25.783  0.00  0.00    +0.000 NA
ATOM      8  C   UNL     1      29.894  23.216  26.855  0.00  0.00    +0.000 A 
ATOM      9  C   UNL     1      30.221  22.990  28.191  0.00  0.00    +0.000 A 
ATOM     10  C   UNL     1      29.213  22.765  29.086  0.00  0.00    +0.000 A 
ATOM     11  C   UNL     1      29.555  22.524  30.506  0.00  0.00    +0.000 C 
ATOM     12  C   UNL     1      27.881  22.756  28.695  0.00  0.00    +0.000 A 
ATOM     13  C   UNL     1      26.858  22.502  29.739  0.00  0.00    +0.000 C 
ATOM     14  C   UNL     1      27.638  22.983  27.383  0.00  0.00    +0.000 A 
ATOM     15  C   UNL     1      28.580  23.217  26.418  0.00  0.00    +0.000 A 
ATOM     16  N   UNL     1      28.603  23.465  25.084  0.00  0.00    +0.000 N 
ENDROOT
BRANCH   1  17
ATOM     17  C   UNL     1      26.094  23.406  24.580  0.00  0.00    +0.000 C 
ATOM     18  C   UNL     1      25.438  23.072  23.148  0.00  0.00    +0.000 C 
BRANCH  17  20
ATOM     19  C   UNL     1      25.064  25.144  26.050  0.00  0.00    +0.000 C 
ATOM     20  C   UNL     1      25.733  24.968  24.727  0.00  0.00    +0.000 C 
ENDBRANCH  17  20
ENDBRANCH   1  17
TORSDOF 2
ENDMDL
MODEL 2
REMARK VINA RESULT:      -6.4     12.962     16.380
REMARK  Name = 
REMARK  2 active torsions:
REMARK  status: ('A' for Active; 'I' for Inactive)
REMARK    1  A    between atoms: C_2  and  C_3
REMARK    2  A    between atoms: C_3  and  C_5
REMARK                            x       y       z     vdW  Elec       q    Type
REMARK                         _______ _______ _______ _____ _____    ______ ____
ROOT
ATOM      1  C   UNL     1      31.727  20.554   8.884  0.00  0.00    +0.000 A 
ATOM      2  C   UNL     1      32.820  19.880   8.294  0.00  0.00    +0.000 A 
ATOM      3  C   UNL     1      33.913  19.605   9.066  0.00  0.00    +0.000 A 
ATOM      4  N   UNL     1      35.077  18.935   8.595  0.00  0.00    +0.000 NA
ATOM      5  N   UNL     1      33.894  19.990  10.348  0.00  0.00    +0.000 NA
ATOM      6  C   UNL     1      32.864  20.629  10.915  0.00  0.00    +0.000 A 
ATOM      7  N   UNL     1      32.598  21.104  12.119  0.00  0.00    +0.000 NA
ATOM      8  C   UNL     1      31.385  21.668  12.148  0.00  0.00    +0.000 A 
ATOM      9  C   UNL     1      30.679  22.293  13.176  0.00  0.00    +0.000 A 
ATOM     10  C   UNL     1      29.433  22.786  12.912  0.00  0.00    +0.000 A 
ATOM     11  C   UNL     1      28.680  23.451  14.000  0.00  0.00    +0.000 C 
ATOM     12  C   UNL     1      28.859  22.679  11.653  0.00  0.00    +0.000 A 
ATOM     13  C   UNL     1      27.501  23.246  11.464  0.00  0.00    +0.000 C 
ATOM     14  C   UNL     1      29.600  22.061  10.704  0.00  0.00    +0.000 A 
ATOM     15  C   UNL     1      30.853  21.538  10.876  0.00  0.00    +0.000 A 
ATOM     16  N   UNL     1      31.779  20.893  10.121  0.00  0.00    +0.000 N 
ENDROOT
BRANCH   1  17
ATOM     17  C   UNL     1      30.538  20.804   7.883  0.00  0.00    +0.000 C 
ATOM     18  C   UNL     1      30.672  19.594   6.830  0.00  0.00    +0.000 C 
BRANCH  17  20
ATOM     19  C   UNL     1      31.000  21.705   5.599  0.00  0.00    +0.000 C 
ATOM     20  C   UNL     1      31.193  22.014   7.046  0.00  0.00    +0.000 C 
ENDBRANCH  17  20
ENDBRANCH   1  17
TORSDOF 2
ENDMDL
MODEL 3
REMARK VINA RESULT:      -6.4     19.729     22.479
REMARK  Name = 
REMARK  2 active torsions:
REMARK  status: ('A' for Active; 'I' for Inactive)
REMARK    1  A    between atoms: C_2  and  C_3
REMARK    2  A    between atoms: C_3  and  C_5
REMARK                            x       y       z     vdW  Elec       q    Type
REMARK                         _______ _______ _______ _____ _____    ______ ____
ROOT
ATOM      1  C   UNL     1      17.512   9.286  40.063  0.00  0.00    +0.000 A 
ATOM      2  C   UNL     1      18.606   8.654  40.695  0.00  0.00    +0.000 A 
ATOM      3  C   UNL     1      19.812   8.641  40.055  0.00  0.00    +0.000 A 
ATOM      4  N   UNL     1      20.989   8.038  40.581  0.00  0.00    +0.000 NA
ATOM      5  N   UNL     1      19.899   9.229  38.856  0.00  0.00    +0.000 NA
ATOM      6  C   UNL     1      18.869   9.831  38.249  0.00  0.00    +0.000 A 
ATOM      7  N   UNL     1      18.689  10.467  37.105  0.00  0.00    +0.000 NA
ATOM      8  C   UNL     1      17.424  10.885  36.988  0.00  0.00    +0.000 A 
ATOM      9  C   UNL     1      16.771  11.587  35.976  0.00  0.00    +0.000 A 
ATOM     10  C   UNL     1      15.447  11.883  36.130  0.00  0.00    +0.000 A 
ATOM     11  C   UNL     1      14.749  12.629  35.057  0.00  0.00    +0.000 C 
ATOM     12  C   UNL     1      14.742  11.503  37.264  0.00  0.00    +0.000 A 
ATOM     13  C   UNL     1      13.307  11.870  37.339  0.00  0.00    +0.000 C 
ATOM     14  C   UNL     1      15.439  10.824  38.205  0.00  0.00    +0.000 A 
ATOM     15  C   UNL     1      16.763  10.484  38.137  0.00  0.00    +0.000 A 
ATOM     16  N   UNL     1      17.668   9.832  38.911  0.00  0.00    +0.000 N 
ENDROOT
BRANCH   1  17
ATOM     17  C   UNL     1      16.186   9.229  40.910  0.00  0.00    +0.000 C 
ATOM     18  C   UNL     1      16.624   9.835  42.335  0.00  0.00    +0.000 C 
BRANCH  17  20
ATOM     19  C   UNL     1      15.781   7.492  42.660  0.00  0.00    +0.000 C 
ATOM     20  C   UNL     1      16.188   7.651  41.233  0.00  0.00    +0.000 C 
ENDBRANCH  17  20
ENDBRANCH   1  17
TORSDOF 2
ENDMDL
MODEL 4
REMARK VINA RESULT:      -6.3     31.730     32.733
REMARK  Name = 
REMARK  2 active torsions:
REMARK  status: ('A' for Active; 'I' for Inactive)
REMARK    1  A    between atoms: C_2  and  C_3
REMARK    2  A    between atoms: C_3  and  C_5
REMARK                            x       y       z     vdW  Elec       q    Type
REMARK                         _______ _______ _______ _____ _____    ______ ____
ROOT
ATOM      1  C   UNL     1      19.723  -8.658  26.391  0.00  0.00    +0.000 A 
ATOM      2  C   UNL     1      18.452  -8.322  26.908  0.00  0.00    +0.000 A 
ATOM      3  C   UNL     1      18.015  -7.035  26.783  0.00  0.00    +0.000 A 
ATOM      4  N   UNL     1      16.757  -6.568  27.259  0.00  0.00    +0.000 NA
ATOM      5  N   UNL     1      18.816  -6.151  26.176  0.00  0.00    +0.000 NA
ATOM      6  C   UNL     1      20.022  -6.459  25.684  0.00  0.00    +0.000 A 
ATOM      7  N   UNL     1      20.981  -5.799  25.060  0.00  0.00    +0.000 NA
ATOM      8  C   UNL     1      22.009  -6.609  24.781  0.00  0.00    +0.000 A 
ATOM      9  C   UNL     1      23.227  -6.373  24.143  0.00  0.00    +0.000 A 
ATOM     10  C   UNL     1      24.103  -7.410  23.995  0.00  0.00    +0.000 A 
ATOM     11  C   UNL     1      25.397  -7.165  23.318  0.00  0.00    +0.000 C 
ATOM     12  C   UNL     1      23.809  -8.684  24.461  0.00  0.00    +0.000 A 
ATOM     13  C   UNL     1      24.824  -9.746  24.254  0.00  0.00    +0.000 C 
ATOM     14  C   UNL     1      22.610  -8.841  25.070  0.00  0.00    +0.000 A 
ATOM     15  C   UNL     1      21.672  -7.863  25.263  0.00  0.00    +0.000 A 
ATOM     16  N   UNL     1      20.439  -7.757  25.820  0.00  0.00    +0.000 N 
ENDROOT
BRANCH   1  17
ATOM     17  C   UNL     1      20.100 -10.171  26.602  0.00  0.00    +0.000 C 
ATOM     18  C   UNL     1      18.672 -10.892  26.788  0.00  0.00    +0.000 C 
BRANCH  17  20
ATOM     19  C   UNL     1      21.954 -10.695  28.193  0.00  0.00    +0.000 C 
ATOM     20  C   UNL     1      20.598 -10.075  28.130  0.00  0.00    +0.000 C 
ENDBRANCH  17  20
ENDBRANCH   1  17
TORSDOF 2
ENDMDL
MODEL 5
REMARK VINA RESULT:      -6.3     19.598     21.661
REMARK  Name = 
REMARK  2 active torsions:
REMARK  status: ('A' for Active; 'I' for Inactive)
REMARK    1  A    between atoms: C_2  and  C_3
REMARK    2  A    between atoms: C_3  and  C_5
REMARK                            x       y       z     vdW  Elec       q    Type
REMARK                         _______ _______ _______ _____ _____    ______ ____
ROOT
ATOM      1  C   UNL     1      14.639  11.767  36.809  0.00  0.00    +0.000 A 
ATOM      2  C   UNL     1      13.247  11.913  36.614  0.00  0.00    +0.000 A 
ATOM      3  C   UNL     1      12.397  11.372  37.535  0.00  0.00    +0.000 A 
ATOM      4  N   UNL     1      10.978  11.448  37.456  0.00  0.00    +0.000 NA
ATOM      5  N   UNL     1      12.927  10.726  38.582  0.00  0.00    +0.000 NA
ATOM      6  C   UNL     1      14.243  10.582  38.775  0.00  0.00    +0.000 A 
ATOM      7  N   UNL     1      15.004  10.011  39.692  0.00  0.00    +0.000 NA
ATOM      8  C   UNL     1      16.299  10.165  39.396  0.00  0.00    +0.000 A 
ATOM      9  C   UNL     1      17.455   9.743  40.052  0.00  0.00    +0.000 A 
ATOM     10  C   UNL     1      18.670  10.049  39.507  0.00  0.00    +0.000 A 
ATOM     11  C   UNL     1      19.900   9.604  40.201  0.00  0.00    +0.000 C 
ATOM     12  C   UNL     1      18.777  10.766  38.323  0.00  0.00    +0.000 A 
ATOM     13  C   UNL     1      20.139  11.050  37.810  0.00  0.00    +0.000 C 
ATOM     14  C   UNL     1      17.614  11.143  37.741  0.00  0.00    +0.000 A 
ATOM     15  C   UNL     1      16.356  10.882  38.212  0.00  0.00    +0.000 A 
ATOM     16  N   UNL     1      15.076  11.135  37.837  0.00  0.00    +0.000 N 
ENDROOT
BRANCH   1  17
ATOM     17  C   UNL     1      15.500  12.438  35.675  0.00  0.00    +0.000 C 
ATOM     18  C   UNL     1      14.436  13.357  34.890  0.00  0.00    +0.000 C 
BRANCH  17  20
ATOM     19  C   UNL     1      16.973  11.188  34.090  0.00  0.00    +0.000 C 
ATOM     20  C   UNL     1      15.604  11.172  34.685  0.00  0.00    +0.000 C 
ENDBRANCH  17  20
ENDBRANCH   1  17
TORSDOF 2
ENDMDL
MODEL 6
REMARK VINA RESULT:      -6.2     18.493     20.992
REMARK  Name = 
REMARK  2 active torsions:
REMARK  status: ('A' for Active; 'I' for Inactive)
REMARK    1  A    between atoms: C_2  and  C_3
REMARK    2  A    between atoms: C_3  and  C_5
REMARK                            x       y       z     vdW  Elec       q    Type
REMARK                         _______ _______ _______ _____ _____    ______ ____
ROOT
ATOM      1  C   UNL     1      18.223  10.170  38.204  0.00  0.00    +0.000 A 
ATOM      2  C   UNL     1      16.973  10.110  38.859  0.00  0.00    +0.000 A 
ATOM      3  C   UNL     1      16.915   9.561  40.108  0.00  0.00    +0.000 A 
ATOM      4  N   UNL     1      15.721   9.441  40.874  0.00  0.00    +0.000 NA
ATOM      5  N   UNL     1      18.050   9.103  40.651  0.00  0.00    +0.000 NA
ATOM      6  C   UNL     1      19.238   9.155  40.038  0.00  0.00    +0.000 A 
ATOM      7  N   UNL     1      20.471   8.787  40.340  0.00  0.00    +0.000 NA
ATOM      8  C   UNL     1      21.310   9.079  39.340  0.00  0.00    +0.000 A 
ATOM      9  C   UNL     1      22.684   8.884  39.199  0.00  0.00    +0.000 A 
ATOM     10  C   UNL     1      23.290   9.289  38.043  0.00  0.00    +0.000 A 
ATOM     11  C   UNL     1      24.748   9.084  37.889  0.00  0.00    +0.000 C 
ATOM     12  C   UNL     1      22.573   9.886  37.016  0.00  0.00    +0.000 A 
ATOM     13  C   UNL     1      23.319  10.292  35.799  0.00  0.00    +0.000 C 
ATOM     14  C   UNL     1      21.244  10.044  37.221  0.00  0.00    +0.000 A 
ATOM     15  C   UNL     1      20.554   9.670  38.342  0.00  0.00    +0.000 A 
ATOM     16  N   UNL     1      19.271   9.711  38.786  0.00  0.00    +0.000 N 
ENDROOT
BRANCH   1  17
ATOM     17  C   UNL     1      18.145  10.826  36.776  0.00  0.00    +0.000 C 
ATOM     18  C   UNL     1      17.199  12.109  37.003  0.00  0.00    +0.000 C 
BRANCH  17  20
ATOM     19  C   UNL     1      17.910   8.825  35.298  0.00  0.00    +0.000 C 
ATOM     20  C   UNL     1      17.108   9.794  36.103  0.00  0.00    +0.000 C 
ENDBRANCH  17  20
ENDBRANCH   1  17
TORSDOF 2
ENDMDL
MODEL 7
REMARK VINA RESULT:      -6.1      1.823      5.466
REMARK  Name = 
REMARK  2 active torsions:
REMARK  status: ('A' for Active; 'I' for Inactive)
REMARK    1  A    between atoms: C_2  and  C_3
REMARK    2  A    between atoms: C_3  and  C_5
REMARK                            x       y       z     vdW  Elec       q    Type
REMARK                         _______ _______ _______ _____ _____    ______ ____
ROOT
ATOM      1  C   UNL     1      29.011  22.774  28.520  0.00  0.00    +0.000 A 
ATOM      2  C   UNL     1      29.806  22.617  29.677  0.00  0.00    +0.000 A 
ATOM      3  C   UNL     1      31.164  22.590  29.539  0.00  0.00    +0.000 A 
ATOM      4  N   UNL     1      32.075  22.436  30.622  0.00  0.00    +0.000 NA
ATOM      5  N   UNL     1      31.677  22.713  28.309  0.00  0.00    +0.000 NA
ATOM      6  C   UNL     1      30.933  22.863  27.207  0.00  0.00    +0.000 A 
ATOM      7  N   UNL     1      31.178  23.002  25.916  0.00  0.00    +0.000 NA
ATOM      8  C   UNL     1      30.038  23.118  25.227  0.00  0.00    +0.000 A 
ATOM      9  C   UNL     1      29.793  23.281  23.864  0.00  0.00    +0.000 A 
ATOM     10  C   UNL     1      28.499  23.371  23.435  0.00  0.00    +0.000 A 
ATOM     11  C   UNL     1      28.234  23.545  21.989  0.00  0.00    +0.000 C 
ATOM     12  C   UNL     1      27.432  23.305  24.320  0.00  0.00    +0.000 A 
ATOM     13  C   UNL     1      26.063  23.413  23.759  0.00  0.00    +0.000 C 
ATOM     14  C   UNL     1      27.743  23.146  25.628  0.00  0.00    +0.000 A 
ATOM     15  C   UNL     1      29.005  23.046  26.148  0.00  0.00    +0.000 A 
ATOM     16  N   UNL     1      29.573  22.888  27.371  0.00  0.00    +0.000 N 
ENDROOT
BRANCH   1  17
ATOM     17  C   UNL     1      27.467  22.790  28.824  0.00  0.00    +0.000 C 
ATOM     18  C   UNL     1      27.165  24.335  29.156  0.00  0.00    +0.000 C 
BRANCH  17  20
ATOM     19  C   UNL     1      26.217  21.462  30.532  0.00  0.00    +0.000 C 
ATOM     20  C   UNL     1      27.517  22.160  30.305  0.00  0.00    +0.000 C 
ENDBRANCH  17  20
ENDBRANCH   1  17
TORSDOF 2
ENDMDL
MODEL 8
REMARK VINA RESULT:      -6.0     27.955     29.737
REMARK  Name = 
REMARK  2 active torsions:
REMARK  status: ('A' for Active; 'I' for Inactive)
REMARK    1  A    between atoms: C_2  and  C_3
REMARK    2  A    between atoms: C_3  and  C_5
REMARK                            x       y       z     vdW  Elec       q    Type
REMARK                         _______ _______ _______ _____ _____    ______ ____
ROOT
ATOM      1  C   UNL     1      32.854  -5.705  32.429  0.00  0.00    +0.000 A 
ATOM      2  C   UNL     1      32.452  -7.055  32.311  0.00  0.00    +0.000 A 
ATOM      3  C   UNL     1      31.772  -7.627  33.348  0.00  0.00    +0.000 A 
ATOM      4  N   UNL     1      31.313  -8.975  33.356  0.00  0.00    +0.000 NA
ATOM      5  N   UNL     1      31.521  -6.879  34.430  0.00  0.00    +0.000 NA
ATOM      6  C   UNL     1      31.898  -5.601  34.550  0.00  0.00    +0.000 A 
ATOM      7  N   UNL     1      31.780  -4.668  35.478  0.00  0.00    +0.000 NA
ATOM      8  C   UNL     1      32.353  -3.527  35.078  0.00  0.00    +0.000 A 
ATOM      9  C   UNL     1      32.482  -2.287  35.703  0.00  0.00    +0.000 A 
ATOM     10  C   UNL     1      33.131  -1.282  35.044  0.00  0.00    +0.000 A 
ATOM     11  C   UNL     1      33.269   0.036  35.703  0.00  0.00    +0.000 C 
ATOM     12  C   UNL     1      33.660  -1.468  33.774  0.00  0.00    +0.000 A 
ATOM     13  C   UNL     1      34.348  -0.317  33.139  0.00  0.00    +0.000 C 
ATOM     14  C   UNL     1      33.499  -2.696  33.229  0.00  0.00    +0.000 A 
ATOM     15  C   UNL     1      32.866  -3.760  33.813  0.00  0.00    +0.000 A 
ATOM     16  N   UNL     1      32.577  -5.048  33.497  0.00  0.00    +0.000 N 
ENDROOT
BRANCH   1  17
ATOM     17  C   UNL     1      33.625  -5.174  31.164  0.00  0.00    +0.000 C 
ATOM     18  C   UNL     1      32.647  -5.551  29.942  0.00  0.00    +0.000 C 
BRANCH  17  20
ATOM     19  C   UNL     1      35.857  -5.975  31.950  0.00  0.00    +0.000 C 
ATOM     20  C   UNL     1      34.723  -6.347  31.053  0.00  0.00    +0.000 C 
ENDBRANCH  17  20
ENDBRANCH   1  17
TORSDOF 2
ENDMDL
MODEL 9
REMARK VINA RESULT:      -5.9      1.579      3.829
REMARK  Name = 
REMARK  2 active torsions:
REMARK  status: ('A' for Active; 'I' for Inactive)
REMARK    1  A    between atoms: C_2  and  C_3
REMARK    2  A    between atoms: C_3  and  C_5
REMARK                            x       y       z     vdW  Elec       q    Type
REMARK                         _______ _______ _______ _____ _____    ______ ____
ROOT
ATOM      1  C   UNL     1      30.173  23.804  24.980  0.00  0.00    +0.000 A 
ATOM      2  C   UNL     1      30.359  24.010  23.595  0.00  0.00    +0.000 A 
ATOM      3  C   UNL     1      29.261  24.023  22.783  0.00  0.00    +0.000 A 
ATOM      4  N   UNL     1      29.311  24.219  21.374  0.00  0.00    +0.000 NA
ATOM      5  N   UNL     1      28.058  23.838  23.342  0.00  0.00    +0.000 NA
ATOM      6  C   UNL     1      27.873  23.642  24.652  0.00  0.00    +0.000 A 
ATOM      7  N   UNL     1      26.828  23.441  25.436  0.00  0.00    +0.000 NA
ATOM      8  C   UNL     1      27.212  23.302  26.710  0.00  0.00    +0.000 A 
ATOM      9  C   UNL     1      26.482  23.076  27.877  0.00  0.00    +0.000 A 
ATOM     10  C   UNL     1      27.152  22.975  29.063  0.00  0.00    +0.000 A 
ATOM     11  C   UNL     1      26.382  22.736  30.304  0.00  0.00    +0.000 C 
ATOM     12  C   UNL     1      28.534  23.091  29.130  0.00  0.00    +0.000 A 
ATOM     13  C   UNL     1      29.172  22.965  30.463  0.00  0.00    +0.000 C 
ATOM     14  C   UNL     1      29.177  23.308  27.959  0.00  0.00    +0.000 A 
ATOM     15  C   UNL     1      28.591  23.423  26.728  0.00  0.00    +0.000 A 
ATOM     16  N   UNL     1      28.989  23.634  25.447  0.00  0.00    +0.000 N 
ENDROOT
BRANCH   1  17
ATOM     17  C   UNL     1      31.519  23.814  25.796  0.00  0.00    +0.000 C 
ATOM     18  C   UNL     1      31.705  25.363  26.195  0.00  0.00    +0.000 C 
BRANCH  17  20
ATOM     19  C   UNL     1      33.753  24.488  24.904  0.00  0.00    +0.000 C 
ATOM     20  C   UNL     1      32.540  23.690  24.557  0.00  0.00    +0.000 C 
ENDBRANCH  17  20
ENDBRANCH   1  17
TORSDOF 2
ENDMDL
MODEL 10
REMARK VINA RESULT:      -5.9     23.485     25.906
REMARK  Name = 
REMARK  2 active torsions:
REMARK  status: ('A' for Active; 'I' for Inactive)
REMARK    1  A    between atoms: C_2  and  C_3
REMARK    2  A    between atoms: C_3  and  C_5
REMARK                            x       y       z     vdW  Elec       q    Type
REMARK                         _______ _______ _______ _____ _____    ______ ____
ROOT
ATOM      1  C   UNL     1      34.356  -0.864  35.965  0.00  0.00    +0.000 A 
ATOM      2  C   UNL     1      34.349  -2.242  35.654  0.00  0.00    +0.000 A 
ATOM      3  C   UNL     1      33.964  -2.627  34.402  0.00  0.00    +0.000 A 
ATOM      4  N   UNL     1      33.912  -3.980  33.963  0.00  0.00    +0.000 NA
ATOM      5  N   UNL     1      33.610  -1.677  33.528  0.00  0.00    +0.000 NA
ATOM      6  C   UNL     1      33.614  -0.369  33.814  0.00  0.00    +0.000 A 
ATOM      7  N   UNL     1      33.321   0.739  33.157  0.00  0.00    +0.000 NA
ATOM      8  C   UNL     1      33.503   1.812  33.934  0.00  0.00    +0.000 A 
ATOM      9  C   UNL     1      33.328   3.174  33.688  0.00  0.00    +0.000 A 
ATOM     10  C   UNL     1      33.596   4.063  34.690  0.00  0.00    +0.000 A 
ATOM     11  C   UNL     1      33.412   5.510  34.433  0.00  0.00    +0.000 C 
ATOM     12  C   UNL     1      34.037   3.643  35.938  0.00  0.00    +0.000 A 
ATOM     13  C   UNL     1      34.302   4.684  36.961  0.00  0.00    +0.000 C 
ATOM     14  C   UNL     1      34.184   2.308  36.106  0.00  0.00    +0.000 A 
ATOM     15  C   UNL     1      33.940   1.346  35.163  0.00  0.00    +0.000 A 
ATOM     16  N   UNL     1      34.005  -0.007  35.076  0.00  0.00    +0.000 N 
ENDROOT
BRANCH   1  17
ATOM     17  C   UNL     1      34.821  -0.562  37.438  0.00  0.00    +0.000 C 
ATOM     18  C   UNL     1      35.786  -1.802  37.790  0.00  0.00    +0.000 C 
BRANCH  17  20
ATOM     19  C   UNL     1      33.015   0.181  38.997  0.00  0.00    +0.000 C 
ATOM     20  C   UNL     1      33.471  -0.996  38.200  0.00  0.00    +0.000 C 
ENDBRANCH  17  20
ENDBRANCH   1  17
TORSDOF 2
ENDMDL
