MODEL 1
REMARK VINA RESULT:      -5.7      0.000      0.000
REMARK  Name = 
REMARK  5 active torsions:
REMARK  status: ('A' for Active; 'I' for Inactive)
REMARK    1  A    between atoms: C_2  and  O_3
REMARK    2  A    between atoms: O_3  and  C_4
REMARK    3  A    between atoms: C_4  and  C_6
REMARK    4  A    between atoms: C_7  and  C_8
REMARK    5  A    between atoms: C_14  and  C_15
REMARK                            x       y       z     vdW  Elec       q    Type
REMARK                         _______ _______ _______ _____ _____    ______ ____
ROOT
ATOM      1  C   UNL     1      28.351  23.494  24.247  0.00  0.00    +0.000 C 
ATOM      2  C   UNL     1      27.432  23.425  25.108  0.00  0.00    +0.000 C 
ATOM      3  N   UNL     1      26.069  23.216  24.854  0.00  0.00    +0.000 NA
ATOM      4  C   UNL     1      25.711  23.066  23.480  0.00  0.00    +0.000 C 
ATOM      5  O   UNL     1      24.502  22.874  23.128  0.00  0.00    +0.000 OA
ATOM      6  N   UNL     1      26.667  23.128  22.541  0.00  0.00    +0.000 NA
ATOM      7  C   UNL     1      28.152  23.434  22.663  0.00  0.00    +0.000 C 
ENDROOT
BRANCH   7   8
ATOM      8  C   UNL     1      28.134  25.020  22.347  0.00  0.00    +0.000 A 
ATOM      9  C   UNL     1      27.321  25.807  23.073  0.00  0.00    +0.000 A 
ATOM     10  C   UNL     1      27.315  27.161  22.792  0.00  0.00    +0.000 A 
ATOM     11  C   UNL     1      28.124  27.667  21.795  0.00  0.00    +0.000 A 
ATOM     12  C   UNL     1      28.938  26.821  21.080  0.00  0.00    +0.000 A 
ATOM     13  C   UNL     1      28.940  25.462  21.367  0.00  0.00    +0.000 A 
ATOM     14  O   UNL     1      29.788  24.641  20.610  0.00  0.00    +0.000 OA
ENDBRANCH   7   8
BRANCH   1  15
ATOM     15  C   UNL     1      29.787  23.680  24.616  0.00  0.00    +0.000 C 
ATOM     16  O   UNL     1      30.633  22.812  24.410  0.00  0.00    +0.000 OA
BRANCH  15  17
ATOM     17  O   UNL     1      30.140  24.865  25.198  0.00  0.00    +0.000 OA
BRANCH  17  19
ATOM     18  C   UNL     1      30.472  27.189  24.709  0.00  0.00    +0.000 C 
ATOM     19  C   UNL     1      31.002  25.770  24.505  0.00  0.00    +0.000 C 
ENDBRANCH  17  19
ENDBRANCH  15  17
ENDBRANCH   1  15
BRANCH   2  20
ATOM     20  C   UNL     1      27.882  23.548  26.554  0.00  0.00    +0.000 C 
ATOM     21 CL   UNL     1      28.084  21.945  27.283  0.00  0.00    +0.000 Cl
ENDBRANCH   2  20
TORSDOF 5
ENDMDL
MODEL 2
REMARK VINA RESULT:      -5.5     32.452     34.728
REMARK  Name = 
REMARK  5 active torsions:
REMARK  status: ('A' for Active; 'I' for Inactive)
REMARK    1  A    between atoms: C_2  and  O_3
REMARK    2  A    between atoms: O_3  and  C_4
REMARK    3  A    between atoms: C_4  and  C_6
REMARK    4  A    between atoms: C_7  and  C_8
REMARK    5  A    between atoms: C_14  and  C_15
REMARK                            x       y       z     vdW  Elec       q    Type
REMARK                         _______ _______ _______ _____ _____    ______ ____
ROOT
ATOM      1  C   UNL     1      19.525  -8.211  26.708  0.00  0.00    +0.000 C 
ATOM      2  C   UNL     1      19.994  -7.412  25.853  0.00  0.00    +0.000 C 
ATOM      3  N   UNL     1      19.629  -6.069  25.681  0.00  0.00    +0.000 NA
ATOM      4  C   UNL     1      18.629  -5.581  26.576  0.00  0.00    +0.000 C 
ATOM      5  O   UNL     1      18.216  -4.377  26.512  0.00  0.00    +0.000 OA
ATOM      6  N   UNL     1      18.115  -6.404  27.500  0.00  0.00    +0.000 NA
ATOM      7  C   UNL     1      18.348  -7.888  27.741  0.00  0.00    +0.000 C 
ENDROOT
BRANCH   7   8
ATOM      8  C   UNL     1      17.104  -8.502  26.911  0.00  0.00    +0.000 A 
ATOM      9  C   UNL     1      16.666  -7.835  25.828  0.00  0.00    +0.000 A 
ATOM     10  C   UNL     1      15.601  -8.371  25.128  0.00  0.00    +0.000 A 
ATOM     11  C   UNL     1      15.019  -9.551  25.545  0.00  0.00    +0.000 A 
ATOM     12  C   UNL     1      15.502 -10.194  26.659  0.00  0.00    +0.000 A 
ATOM     13  C   UNL     1      16.573  -9.652  27.359  0.00  0.00    +0.000 A 
ATOM     14  O   UNL     1      17.029 -10.347  28.487  0.00  0.00    +0.000 OA
ENDBRANCH   7   8
BRANCH   1  15
ATOM     15  C   UNL     1      20.005  -9.619  26.843  0.00  0.00    +0.000 C 
ATOM     16  O   UNL     1      19.628 -10.513  26.087  0.00  0.00    +0.000 OA
BRANCH  15  17
ATOM     17  O   UNL     1      20.891  -9.891  27.847  0.00  0.00    +0.000 OA
BRANCH  17  19
ATOM     18  C   UNL     1      20.156  -9.969  30.129  0.00  0.00    +0.000 C 
ATOM     19  C   UNL     1      20.527 -10.792  28.895  0.00  0.00    +0.000 C 
ENDBRANCH  17  19
ENDBRANCH  15  17
ENDBRANCH   1  15
BRANCH   2  20
ATOM     20  C   UNL     1      21.085  -7.980  24.960  0.00  0.00    +0.000 C 
ATOM     21 CL   UNL     1      22.431  -6.836  24.817  0.00  0.00    +0.000 Cl
ENDBRANCH   2  20
TORSDOF 5
ENDMDL
MODEL 3
REMARK VINA RESULT:      -5.5      2.868      5.179
REMARK  Name = 
REMARK  5 active torsions:
REMARK  status: ('A' for Active; 'I' for Inactive)
REMARK    1  A    between atoms: C_2  and  O_3
REMARK    2  A    between atoms: O_3  and  C_4
REMARK    3  A    between atoms: C_4  and  C_6
REMARK    4  A    between atoms: C_7  and  C_8
REMARK    5  A    between atoms: C_14  and  C_15
REMARK                            x       y       z     vdW  Elec       q    Type
REMARK                         _______ _______ _______ _____ _____    ______ ____
ROOT
ATOM      1  C   UNL     1      27.569  25.272  23.821  0.00  0.00    +0.000 C 
ATOM      2  C   UNL     1      28.116  26.236  23.219  0.00  0.00    +0.000 C 
ATOM      3  N   UNL     1      28.894  26.156  22.056  0.00  0.00    +0.000 NA
ATOM      4  C   UNL     1      29.069  24.846  21.517  0.00  0.00    +0.000 C 
ATOM      5  O   UNL     1      29.759  24.651  20.464  0.00  0.00    +0.000 OA
ATOM      6  N   UNL     1      28.496  23.801  22.130  0.00  0.00    +0.000 NA
ATOM      7  C   UNL     1      27.710  23.729  23.431  0.00  0.00    +0.000 C 
ENDROOT
BRANCH   7   8
ATOM      8  C   UNL     1      28.895  23.314  24.448  0.00  0.00    +0.000 A 
ATOM      9  C   UNL     1      30.160  23.632  24.120  0.00  0.00    +0.000 A 
ATOM     10  C   UNL     1      31.165  23.270  24.999  0.00  0.00    +0.000 A 
ATOM     11  C   UNL     1      30.858  22.605  26.169  0.00  0.00    +0.000 A 
ATOM     12  C   UNL     1      29.549  22.303  26.459  0.00  0.00    +0.000 A 
ATOM     13  C   UNL     1      28.543  22.669  25.573  0.00  0.00    +0.000 A 
ATOM     14  O   UNL     1      27.225  22.338  25.915  0.00  0.00    +0.000 OA
ENDBRANCH   7   8
BRANCH   1  15
ATOM     15  C   UNL     1      26.721  25.459  25.036  0.00  0.00    +0.000 C 
ATOM     16  O   UNL     1      27.205  25.717  26.137  0.00  0.00    +0.000 OA
BRANCH  15  17
ATOM     17  O   UNL     1      25.369  25.333  24.889  0.00  0.00    +0.000 OA
BRANCH  17  19
ATOM     18  C   UNL     1      23.557  26.882  25.154  0.00  0.00    +0.000 C 
ATOM     19  C   UNL     1      24.490  25.899  25.862  0.00  0.00    +0.000 C 
ENDBRANCH  17  19
ENDBRANCH  15  17
ENDBRANCH   1  15
BRANCH   2  20
ATOM     20  C   UNL     1      27.856  27.609  23.817  0.00  0.00    +0.000 C 
ATOM     21 CL   UNL     1      26.489  28.393  23.006  0.00  0.00    +0.000 Cl
ENDBRANCH   2  20
TORSDOF 5
ENDMDL
MODEL 4
REMARK VINA RESULT:      -5.2      3.221      4.929
REMARK  Name = 
REMARK  5 active torsions:
REMARK  status: ('A' for Active; 'I' for Inactive)
REMARK    1  A    between atoms: C_2  and  O_3
REMARK    2  A    between atoms: O_3  and  C_4
REMARK    3  A    between atoms: C_4  and  C_6
REMARK    4  A    between atoms: C_7  and  C_8
REMARK    5  A    between atoms: C_14  and  C_15
REMARK                            x       y       z     vdW  Elec       q    Type
REMARK                         _______ _______ _______ _____ _____    ______ ____
ROOT
ATOM      1  C   UNL     1      26.701  24.691  26.040  0.00  0.00    +0.000 C 
ATOM      2  C   UNL     1      26.268  25.360  25.063  0.00  0.00    +0.000 C 
ATOM      3  N   UNL     1      25.739  24.845  23.871  0.00  0.00    +0.000 NA
ATOM      4  C   UNL     1      25.694  23.421  23.778  0.00  0.00    +0.000 C 
ATOM      5  O   UNL     1      25.237  22.840  22.741  0.00  0.00    +0.000 OA
ATOM      6  N   UNL     1      26.143  22.681  24.803  0.00  0.00    +0.000 NA
ATOM      7  C   UNL     1      26.815  23.098  26.102  0.00  0.00    +0.000 C 
ENDROOT
BRANCH   7   8
ATOM      8  C   UNL     1      28.366  22.935  25.675  0.00  0.00    +0.000 A 
ATOM      9  C   UNL     1      28.710  23.200  24.402  0.00  0.00    +0.000 A 
ATOM     10  C   UNL     1      30.039  23.056  24.051  0.00  0.00    +0.000 A 
ATOM     11  C   UNL     1      30.966  22.652  24.990  0.00  0.00    +0.000 A 
ATOM     12  C   UNL     1      30.565  22.392  26.279  0.00  0.00    +0.000 A 
ATOM     13  C   UNL     1      29.228  22.539  26.627  0.00  0.00    +0.000 A 
ATOM     14  O   UNL     1      28.869  22.263  27.954  0.00  0.00    +0.000 OA
ENDBRANCH   7   8
BRANCH   1  15
ATOM     15  C   UNL     1      27.212  25.329  27.290  0.00  0.00    +0.000 C 
ATOM     16  O   UNL     1      28.332  25.831  27.357  0.00  0.00    +0.000 OA
BRANCH  15  17
ATOM     17  O   UNL     1      26.384  25.340  28.377  0.00  0.00    +0.000 OA
BRANCH  17  19
ATOM     18  C   UNL     1      26.171  23.481  29.877  0.00  0.00    +0.000 C 
ATOM     19  C   UNL     1      26.845  24.830  29.630  0.00  0.00    +0.000 C 
ENDBRANCH  17  19
ENDBRANCH  15  17
ENDBRANCH   1  15
BRANCH   2  20
ATOM     20  C   UNL     1      26.302  26.869  25.241  0.00  0.00    +0.000 C 
ATOM     21 CL   UNL     1      24.814  27.604  24.618  0.00  0.00    +0.000 Cl
ENDBRANCH   2  20
TORSDOF 5
ENDMDL
MODEL 5
REMARK VINA RESULT:      -5.1     20.835     23.199
REMARK  Name = 
REMARK  5 active torsions:
REMARK  status: ('A' for Active; 'I' for Inactive)
REMARK    1  A    between atoms: C_2  and  O_3
REMARK    2  A    between atoms: O_3  and  C_4
REMARK    3  A    between atoms: C_4  and  C_6
REMARK    4  A    between atoms: C_7  and  C_8
REMARK    5  A    between atoms: C_14  and  C_15
REMARK                            x       y       z     vdW  Elec       q    Type
REMARK                         _______ _______ _______ _____ _____    ______ ____
ROOT
ATOM      1  C   UNL     1      18.163   9.451  38.726  0.00  0.00    +0.000 C 
ATOM      2  C   UNL     1      17.032   9.902  39.054  0.00  0.00    +0.000 C 
ATOM      3  N   UNL     1      16.174  10.662  38.246  0.00  0.00    +0.000 NA
ATOM      4  C   UNL     1      16.648  10.937  36.928  0.00  0.00    +0.000 C 
ATOM      5  O   UNL     1      15.956  11.621  36.106  0.00  0.00    +0.000 OA
ATOM      6  N   UNL     1      17.844  10.466  36.547  0.00  0.00    +0.000 NA
ATOM      7  C   UNL     1      18.905   9.714  37.336  0.00  0.00    +0.000 C 
ENDROOT
BRANCH   7   8
ATOM      8  C   UNL     1      19.849  10.950  37.779  0.00  0.00    +0.000 A 
ATOM      9  C   UNL     1      19.261  12.098  38.160  0.00  0.00    +0.000 A 
ATOM     10  C   UNL     1      20.080  13.147  38.535  0.00  0.00    +0.000 A 
ATOM     11  C   UNL     1      21.452  13.000  38.512  0.00  0.00    +0.000 A 
ATOM     12  C   UNL     1      22.004  11.806  38.115  0.00  0.00    +0.000 A 
ATOM     13  C   UNL     1      21.178  10.755  37.739  0.00  0.00    +0.000 A 
ATOM     14  O   UNL     1      21.790   9.558  37.342  0.00  0.00    +0.000 OA
ENDBRANCH   7   8
BRANCH   1  15
ATOM     15  C   UNL     1      18.992   8.613  39.644  0.00  0.00    +0.000 C 
ATOM     16  O   UNL     1      19.796   9.108  40.433  0.00  0.00    +0.000 OA
BRANCH  15  17
ATOM     17  O   UNL     1      18.829   7.258  39.583  0.00  0.00    +0.000 OA
BRANCH  17  19
ATOM     18  C   UNL     1      17.651   5.912  41.181  0.00  0.00    +0.000 C 
ATOM     19  C   UNL     1      19.012   6.465  40.757  0.00  0.00    +0.000 C 
ENDBRANCH  17  19
ENDBRANCH  15  17
ENDBRANCH   1  15
BRANCH   2  20
ATOM     20  C   UNL     1      16.565   9.538  40.454  0.00  0.00    +0.000 C 
ATOM     21 CL   UNL     1      14.795   9.546  40.542  0.00  0.00    +0.000 Cl
ENDBRANCH   2  20
TORSDOF 5
ENDMDL
MODEL 6
REMARK VINA RESULT:      -5.0      2.522      4.731
REMARK  Name = 
REMARK  5 active torsions:
REMARK  status: ('A' for Active; 'I' for Inactive)
REMARK    1  A    between atoms: C_2  and  O_3
REMARK    2  A    between atoms: O_3  and  C_4
REMARK    3  A    between atoms: C_4  and  C_6
REMARK    4  A    between atoms: C_7  and  C_8
REMARK    5  A    between atoms: C_14  and  C_15
REMARK                            x       y       z     vdW  Elec       q    Type
REMARK                         _______ _______ _______ _____ _____    ______ ____
ROOT
ATOM      1  C   UNL     1      27.857  25.083  24.078  0.00  0.00    +0.000 C 
ATOM      2  C   UNL     1      28.115  24.403  23.047  0.00  0.00    +0.000 C 
ATOM      3  N   UNL     1      27.251  23.503  22.408  0.00  0.00    +0.000 NA
ATOM      4  C   UNL     1      25.959  23.360  22.998  0.00  0.00    +0.000 C 
ATOM      5  O   UNL     1      25.091  22.568  22.506  0.00  0.00    +0.000 OA
ATOM      6  N   UNL     1      25.652  24.074  24.091  0.00  0.00    +0.000 NA
ATOM      7  C   UNL     1      26.509  25.009  24.932  0.00  0.00    +0.000 C 
ENDROOT
BRANCH   7   8
ATOM      8  C   UNL     1      26.991  23.981  26.083  0.00  0.00    +0.000 A 
ATOM      9  C   UNL     1      27.765  22.940  25.728  0.00  0.00    +0.000 A 
ATOM     10  C   UNL     1      28.170  22.069  26.723  0.00  0.00    +0.000 A 
ATOM     11  C   UNL     1      27.780  22.279  28.030  0.00  0.00    +0.000 A 
ATOM     12  C   UNL     1      26.988  23.358  28.343  0.00  0.00    +0.000 A 
ATOM     13  C   UNL     1      26.584  24.230  27.340  0.00  0.00    +0.000 A 
ATOM     14  O   UNL     1      25.778  25.315  27.710  0.00  0.00    +0.000 OA
ENDBRANCH   7   8
BRANCH   1  15
ATOM     15  C   UNL     1      28.831  26.051  24.667  0.00  0.00    +0.000 C 
ATOM     16  O   UNL     1      28.933  27.206  24.259  0.00  0.00    +0.000 OA
BRANCH  15  17
ATOM     17  O   UNL     1      29.618  25.609  25.692  0.00  0.00    +0.000 OA
BRANCH  17  19
ATOM     18  C   UNL     1      31.420  24.028  25.633  0.00  0.00    +0.000 C 
ATOM     19  C   UNL     1      31.032  25.501  25.510  0.00  0.00    +0.000 C 
ENDBRANCH  17  19
ENDBRANCH  15  17
ENDBRANCH   1  15
BRANCH   2  20
ATOM     20  C   UNL     1      29.490  24.632  22.442  0.00  0.00    +0.000 C 
ATOM     21 CL   UNL     1      29.349  25.343  20.825  0.00  0.00    +0.000 Cl
ENDBRANCH   2  20
TORSDOF 5
ENDMDL
MODEL 7
REMARK VINA RESULT:      -4.9     33.131     35.430
REMARK  Name = 
REMARK  5 active torsions:
REMARK  status: ('A' for Active; 'I' for Inactive)
REMARK    1  A    between atoms: C_2  and  O_3
REMARK    2  A    between atoms: O_3  and  C_4
REMARK    3  A    between atoms: C_4  and  C_6
REMARK    4  A    between atoms: C_7  and  C_8
REMARK    5  A    between atoms: C_14  and  C_15
REMARK                            x       y       z     vdW  Elec       q    Type
REMARK                         _______ _______ _______ _____ _____    ______ ____
ROOT
ATOM      1  C   UNL     1      17.198  -9.372  26.763  0.00  0.00    +0.000 C 
ATOM      2  C   UNL     1      17.520 -10.585  26.890  0.00  0.00    +0.000 C 
ATOM      3  N   UNL     1      18.293 -11.136  27.922  0.00  0.00    +0.000 NA
ATOM      4  C   UNL     1      18.746 -10.215  28.915  0.00  0.00    +0.000 C 
ATOM      5  O   UNL     1      19.458 -10.601  29.898  0.00  0.00    +0.000 OA
ATOM      6  N   UNL     1      18.415  -8.920  28.810  0.00  0.00    +0.000 NA
ATOM      7  C   UNL     1      17.668  -8.177  27.713  0.00  0.00    +0.000 C 
ENDROOT
BRANCH   7   8
ATOM      8  C   UNL     1      18.920  -7.636  26.844  0.00  0.00    +0.000 A 
ATOM      9  C   UNL     1      19.912  -8.495  26.548  0.00  0.00    +0.000 A 
ATOM     10  C   UNL     1      20.976  -8.018  25.805  0.00  0.00    +0.000 A 
ATOM     11  C   UNL     1      21.001  -6.702  25.392  0.00  0.00    +0.000 A 
ATOM     12  C   UNL     1      19.963  -5.863  25.720  0.00  0.00    +0.000 A 
ATOM     13  C   UNL     1      18.895  -6.346  26.466  0.00  0.00    +0.000 A 
ATOM     14  O   UNL     1      17.861  -5.452  26.775  0.00  0.00    +0.000 OA
ENDBRANCH   7   8
BRANCH   1  15
ATOM     15  C   UNL     1      16.334  -8.882  25.646  0.00  0.00    +0.000 C 
ATOM     16  O   UNL     1      16.711  -8.892  24.476  0.00  0.00    +0.000 OA
BRANCH  15  17
ATOM     17  O   UNL     1      15.092  -8.414  25.968  0.00  0.00    +0.000 OA
BRANCH  17  19
ATOM     18  C   UNL     1      13.453 -10.159  25.834  0.00  0.00    +0.000 C 
ATOM     19  C   UNL     1      13.951  -8.849  25.225  0.00  0.00    +0.000 C 
ENDBRANCH  17  19
ENDBRANCH  15  17
ENDBRANCH   1  15
BRANCH   2  20
ATOM     20  C   UNL     1      16.970 -11.521  25.826  0.00  0.00    +0.000 C 
ATOM     21 CL   UNL     1      15.937 -12.760  26.559  0.00  0.00    +0.000 Cl
ENDBRANCH   2  20
TORSDOF 5
ENDMDL
MODEL 8
REMARK VINA RESULT:      -4.9     32.931     34.996
REMARK  Name = 
REMARK  5 active torsions:
REMARK  status: ('A' for Active; 'I' for Inactive)
REMARK    1  A    between atoms: C_2  and  O_3
REMARK    2  A    between atoms: O_3  and  C_4
REMARK    3  A    between atoms: C_4  and  C_6
REMARK    4  A    between atoms: C_7  and  C_8
REMARK    5  A    between atoms: C_14  and  C_15
REMARK                            x       y       z     vdW  Elec       q    Type
REMARK                         _______ _______ _______ _____ _____    ______ ____
ROOT
ATOM      1  C   UNL     1      17.832  -9.753  26.714  0.00  0.00    +0.000 C 
ATOM      2  C   UNL     1      16.685  -9.804  27.235  0.00  0.00    +0.000 C 
ATOM      3  N   UNL     1      15.482  -9.396  26.640  0.00  0.00    +0.000 NA
ATOM      4  C   UNL     1      15.593  -8.879  25.314  0.00  0.00    +0.000 C 
ATOM      5  O   UNL     1      14.567  -8.475  24.675  0.00  0.00    +0.000 OA
ATOM      6  N   UNL     1      16.798  -8.817  24.730  0.00  0.00    +0.000 NA
ATOM      7  C   UNL     1      18.179  -9.136  25.282  0.00  0.00    +0.000 C 
ENDROOT
BRANCH   7   8
ATOM      8  C   UNL     1      18.641  -7.658  25.745  0.00  0.00    +0.000 A 
ATOM      9  C   UNL     1      17.755  -6.886  26.398  0.00  0.00    +0.000 A 
ATOM     10  C   UNL     1      18.162  -5.623  26.787  0.00  0.00    +0.000 A 
ATOM     11  C   UNL     1      19.441  -5.189  26.504  0.00  0.00    +0.000 A 
ATOM     12  C   UNL     1      20.311  -6.015  25.833  0.00  0.00    +0.000 A 
ATOM     13  C   UNL     1      19.896  -7.283  25.444  0.00  0.00    +0.000 A 
ATOM     14  O   UNL     1      20.820  -8.087  24.763  0.00  0.00    +0.000 OA
ENDBRANCH   7   8
BRANCH   1  15
ATOM     15  C   UNL     1      19.056 -10.250  27.412  0.00  0.00    +0.000 C 
ATOM     16  O   UNL     1      19.520 -11.369  27.201  0.00  0.00    +0.000 OA
BRANCH  15  17
ATOM     17  O   UNL     1      19.657  -9.410  28.307  0.00  0.00    +0.000 OA
BRANCH  17  19
ATOM     18  C   UNL     1      19.630  -9.773  30.677  0.00  0.00    +0.000 C 
ATOM     19  C   UNL     1      20.426  -9.949  29.384  0.00  0.00    +0.000 C 
ENDBRANCH  17  19
ENDBRANCH  15  17
ENDBRANCH   1  15
BRANCH   2  20
ATOM     20  C   UNL     1      16.628 -10.405  28.630  0.00  0.00    +0.000 C 
ATOM     21 CL   UNL     1      16.108 -12.098  28.559  0.00  0.00    +0.000 Cl
ENDBRANCH   2  20
TORSDOF 5
ENDMDL
MODEL 9
REMARK VINA RESULT:      -4.9      2.364      4.478
REMARK  Name = 
REMARK  5 active torsions:
REMARK  status: ('A' for Active; 'I' for Inactive)
REMARK    1  A    between atoms: C_2  and  O_3
REMARK    2  A    between atoms: O_3  and  C_4
REMARK    3  A    between atoms: C_4  and  C_6
REMARK    4  A    between atoms: C_7  and  C_8
REMARK    5  A    between atoms: C_14  and  C_15
REMARK                            x       y       z     vdW  Elec       q    Type
REMARK                         _______ _______ _______ _____ _____    ______ ____
ROOT
ATOM      1  C   UNL     1      27.643  25.605  23.724  0.00  0.00    +0.000 C 
ATOM      2  C   UNL     1      27.526  25.393  22.487  0.00  0.00    +0.000 C 
ATOM      3  N   UNL     1      26.755  24.388  21.885  0.00  0.00    +0.000 NA
ATOM      4  C   UNL     1      26.038  23.538  22.781  0.00  0.00    +0.000 C 
ATOM      5  O   UNL     1      25.306  22.589  22.348  0.00  0.00    +0.000 OA
ATOM      6  N   UNL     1      26.137  23.742  24.102  0.00  0.00    +0.000 NA
ATOM      7  C   UNL     1      26.995  24.723  24.888  0.00  0.00    +0.000 C 
ENDROOT
BRANCH   7   8
ATOM      8  C   UNL     1      28.260  23.775  25.226  0.00  0.00    +0.000 A 
ATOM      9  C   UNL     1      28.960  23.253  24.202  0.00  0.00    +0.000 A 
ATOM     10  C   UNL     1      30.038  22.443  24.506  0.00  0.00    +0.000 A 
ATOM     11  C   UNL     1      30.369  22.191  25.822  0.00  0.00    +0.000 A 
ATOM     12  C   UNL     1      29.622  22.747  26.832  0.00  0.00    +0.000 A 
ATOM     13  C   UNL     1      28.539  23.560  26.523  0.00  0.00    +0.000 A 
ATOM     14  O   UNL     1      27.810  24.104  27.589  0.00  0.00    +0.000 OA
ENDBRANCH   7   8
BRANCH   1  15
ATOM     15  C   UNL     1      28.460  26.729  24.274  0.00  0.00    +0.000 C 
ATOM     16  O   UNL     1      27.952  27.785  24.646  0.00  0.00    +0.000 OA
BRANCH  15  17
ATOM     17  O   UNL     1      29.812  26.546  24.354  0.00  0.00    +0.000 OA
BRANCH  17  19
ATOM     18  C   UNL     1      31.936  26.954  25.390  0.00  0.00    +0.000 C 
ATOM     19  C   UNL     1      30.466  26.610  25.624  0.00  0.00    +0.000 C 
ENDBRANCH  17  19
ENDBRANCH  15  17
ENDBRANCH   1  15
BRANCH   2  20
ATOM     20  C   UNL     1      28.278  26.358  21.585  0.00  0.00    +0.000 C 
ATOM     21 CL   UNL     1      29.470  25.491  20.601  0.00  0.00    +0.000 Cl
ENDBRANCH   2  20
TORSDOF 5
ENDMDL
MODEL 10
REMARK VINA RESULT:      -4.9     20.302     21.810
REMARK  Name = 
REMARK  5 active torsions:
REMARK  status: ('A' for Active; 'I' for Inactive)
REMARK    1  A    between atoms: C_2  and  O_3
REMARK    2  A    between atoms: O_3  and  C_4
REMARK    3  A    between atoms: C_4  and  C_6
REMARK    4  A    between atoms: C_7  and  C_8
REMARK    5  A    between atoms: C_14  and  C_15
REMARK                            x       y       z     vdW  Elec       q    Type
REMARK                         _______ _______ _______ _____ _____    ______ ____
ROOT
ATOM      1  C   UNL     1      26.207   3.076  16.275  0.00  0.00    +0.000 C 
ATOM      2  C   UNL     1      25.842   2.141  17.038  0.00  0.00    +0.000 C 
ATOM      3  N   UNL     1      24.696   2.127  17.846  0.00  0.00    +0.000 NA
ATOM      4  C   UNL     1      23.877   3.294  17.779  0.00  0.00    +0.000 C 
ATOM      5  O   UNL     1      22.812   3.395  18.470  0.00  0.00    +0.000 OA
ATOM      6  N   UNL     1      24.235   4.303  16.972  0.00  0.00    +0.000 NA
ATOM      7  C   UNL     1      25.481   4.490  16.119  0.00  0.00    +0.000 C 
ENDROOT
BRANCH   7   8
ATOM      8  C   UNL     1      26.387   5.358  17.139  0.00  0.00    +0.000 A 
ATOM      9  C   UNL     1      26.514   4.927  18.406  0.00  0.00    +0.000 A 
ATOM     10  C   UNL     1      27.291   5.679  19.268  0.00  0.00    +0.000 A 
ATOM     11  C   UNL     1      27.906   6.832  18.822  0.00  0.00    +0.000 A 
ATOM     12  C   UNL     1      27.745   7.231  17.517  0.00  0.00    +0.000 A 
ATOM     13  C   UNL     1      26.963   6.471  16.654  0.00  0.00    +0.000 A 
ATOM     14  O   UNL     1      26.830   6.920  15.333  0.00  0.00    +0.000 OA
ENDBRANCH   7   8
BRANCH   1  15
ATOM     15  C   UNL     1      27.428   2.985  15.419  0.00  0.00    +0.000 C 
ATOM     16  O   UNL     1      27.362   2.895  14.194  0.00  0.00    +0.000 OA
BRANCH  15  17
ATOM     17  O   UNL     1      28.642   3.007  16.046  0.00  0.00    +0.000 OA
BRANCH  17  19
ATOM     18  C   UNL     1      30.249   4.466  17.066  0.00  0.00    +0.000 C 
ATOM     19  C   UNL     1      29.574   4.051  15.759  0.00  0.00    +0.000 C 
ENDBRANCH  17  19
ENDBRANCH  15  17
ENDBRANCH   1  15
BRANCH   2  20
ATOM     20  C   UNL     1      26.732   0.909  17.033  0.00  0.00    +0.000 C 
ATOM     21 CL   UNL     1      25.810  -0.528  17.507  0.00  0.00    +0.000 Cl
ENDBRANCH   2  20
TORSDOF 5
ENDMDL
