MODEL 1
REMARK VINA RESULT:      -8.1      0.000      0.000
REMARK  Name = 
REMARK  6 active torsions:
REMARK  status: ('A' for Active; 'I' for Inactive)
REMARK    1  A    between atoms: C_2  and  N_3
REMARK    2  A    between atoms: C_2  and  C_27
REMARK    3  A    between atoms: C_4  and  C_6
REMARK    4  A    between atoms: C_7  and  N_8
REMARK    5  A    between atoms: C_9  and  C_11
REMARK    6  A    between atoms: C_21  and  C_22
REMARK                            x       y       z     vdW  Elec       q    Type
REMARK                         _______ _______ _______ _____ _____    ______ ____
ROOT
ATOM      1  C   UNL     1      36.455   3.897  14.968  0.00  0.00    +0.000 A 
ATOM      2  C   UNL     1      35.364   4.548  14.536  0.00  0.00    +0.000 A 
ATOM      3  S   UNL     1      34.041   3.568  15.202  0.00  0.00    +0.000 S 
ATOM      4  C   UNL     1      34.973   2.397  15.980  0.00  0.00    +0.000 A 
ATOM      5  C   UNL     1      36.245   2.771  15.722  0.00  0.00    +0.000 A 
ATOM      6  C   UNL     1      37.205   1.776  16.388  0.00  0.00    +0.000 C 
ATOM      7  C   UNL     1      36.972   0.509  15.737  0.00  0.00    +0.000 C 
ATOM      8  C   UNL     1      35.466  -0.061  15.958  0.00  0.00    +0.000 C 
ATOM      9  C   UNL     1      34.834   1.166  16.817  0.00  0.00    +0.000 C 
ENDROOT
BRANCH   8  10
ATOM     10  C   UNL     1      35.886  -0.922  17.302  0.00  0.00    +0.000 C 
ATOM     11  C   UNL     1      34.885  -2.031  17.278  0.00  0.00    +0.000 C 
ATOM     12  C   UNL     1      37.290  -1.362  17.028  0.00  0.00    +0.000 C 
ATOM     13  C   UNL     1      35.694  -0.079  18.489  0.00  0.00    +0.000 C 
ENDBRANCH   8  10
BRANCH   1  15
ATOM     14  N   UNL     1      38.549   5.118  15.746  0.00  0.00    +0.000 NA
ATOM     15  C   UNL     1      37.858   4.361  14.814  0.00  0.00    +0.000 C 
ATOM     16  O   UNL     1      38.453   4.040  13.772  0.00  0.00    +0.000 OA
BRANCH  14  18
ATOM     17  C   UNL     1      39.592   7.160  15.157  0.00  0.00    +0.000 C 
ATOM     18  C   UNL     1      40.000   5.586  15.565  0.00  0.00    +0.000 C 
BRANCH  18  19
ATOM     19  C   UNL     1      40.393   5.942  17.057  0.00  0.00    +0.000 A 
ATOM     20  C   UNL     1      39.349   5.789  17.939  0.00  0.00    +0.000 A 
ATOM     21  C   UNL     1      39.541   6.041  19.310  0.00  0.00    +0.000 A 
ATOM     22  C   UNL     1      40.808   6.440  19.680  0.00  0.00    +0.000 A 
ATOM     23  C   UNL     1      41.839   6.588  18.784  0.00  0.00    +0.000 A 
ATOM     24  C   UNL     1      41.588   6.326  17.463  0.00  0.00    +0.000 A 
ENDBRANCH  18  19
ENDBRANCH  14  18
ENDBRANCH   1  15
BRANCH   2  25
ATOM     25  N   UNL     1      35.028   5.577  13.709  0.00  0.00    +0.000 NA
ATOM     26  C   UNL     1      34.338   6.637  13.383  0.00  0.00    +0.000 C 
ATOM     27  O   UNL     1      33.482   7.039  14.235  0.00  0.00    +0.000 OA
BRANCH  26  28
ATOM     28  C   UNL     1      34.396   7.464  12.151  0.00  0.00    +0.000 A 
ATOM     29  C   UNL     1      34.403   7.134  10.849  0.00  0.00    +0.000 A 
ATOM     30  C   UNL     1      34.467   8.333  10.122  0.00  0.00    +0.000 A 
ATOM     31  C   UNL     1      34.492   9.340  11.086  0.00  0.00    +0.000 A 
ATOM     32  O   UNL     1      34.450   8.773  12.246  0.00  0.00    +0.000 OA
ENDBRANCH  26  28
ENDBRANCH   2  25
TORSDOF 6
ENDMDL
MODEL 2
REMARK VINA RESULT:      -8.0      3.799      6.182
REMARK  Name = 
REMARK  6 active torsions:
REMARK  status: ('A' for Active; 'I' for Inactive)
REMARK    1  A    between atoms: C_2  and  N_3
REMARK    2  A    between atoms: C_2  and  C_27
REMARK    3  A    between atoms: C_4  and  C_6
REMARK    4  A    between atoms: C_7  and  N_8
REMARK    5  A    between atoms: C_9  and  C_11
REMARK    6  A    between atoms: C_21  and  C_22
REMARK                            x       y       z     vdW  Elec       q    Type
REMARK                         _______ _______ _______ _____ _____    ______ ____
ROOT
ATOM      1  C   UNL     1      37.131   1.377  14.618  0.00  0.00    +0.000 A 
ATOM      2  C   UNL     1      36.782   2.435  13.868  0.00  0.00    +0.000 A 
ATOM      3  S   UNL     1      37.622   2.115  12.336  0.00  0.00    +0.000 S 
ATOM      4  C   UNL     1      38.360   0.659  12.762  0.00  0.00    +0.000 A 
ATOM      5  C   UNL     1      37.958   0.452  14.036  0.00  0.00    +0.000 A 
ATOM      6  C   UNL     1      38.566  -0.861  14.546  0.00  0.00    +0.000 C 
ATOM      7  C   UNL     1      39.994  -0.655  14.557  0.00  0.00    +0.000 C 
ATOM      8  C   UNL     1      40.617  -0.384  13.081  0.00  0.00    +0.000 C 
ATOM      9  C   UNL     1      39.250  -0.402  12.201  0.00  0.00    +0.000 C 
ENDROOT
BRANCH   8  10
ATOM     10  C   UNL     1      40.933  -1.982  12.815  0.00  0.00    +0.000 C 
ATOM     11  C   UNL     1      42.152  -1.912  11.954  0.00  0.00    +0.000 C 
ATOM     12  C   UNL     1      41.183  -2.536  14.183  0.00  0.00    +0.000 C 
ATOM     13  C   UNL     1      39.811  -2.573  12.074  0.00  0.00    +0.000 C 
ENDBRANCH   8  10
BRANCH   1  15
ATOM     14  N   UNL     1      35.831  -0.055  16.273  0.00  0.00    +0.000 NA
ATOM     15  C   UNL     1      36.596   1.059  15.967  0.00  0.00    +0.000 C 
ATOM     16  O   UNL     1      36.860   1.850  16.886  0.00  0.00    +0.000 OA
BRANCH  14  18
ATOM     17  C   UNL     1      34.230  -1.557  17.159  0.00  0.00    +0.000 C 
ATOM     18  C   UNL     1      35.289  -0.365  17.676  0.00  0.00    +0.000 C 
BRANCH  18  19
ATOM     19  C   UNL     1      36.379  -1.386  18.204  0.00  0.00    +0.000 A 
ATOM     20  C   UNL     1      36.745  -2.316  17.261  0.00  0.00    +0.000 A 
ATOM     21  C   UNL     1      37.724  -3.281  17.564  0.00  0.00    +0.000 A 
ATOM     22  C   UNL     1      38.259  -3.220  18.833  0.00  0.00    +0.000 A 
ATOM     23  C   UNL     1      37.880  -2.283  19.763  0.00  0.00    +0.000 A 
ATOM     24  C   UNL     1      36.923  -1.370  19.406  0.00  0.00    +0.000 A 
ENDBRANCH  18  19
ENDBRANCH  14  18
ENDBRANCH   1  15
BRANCH   2  25
ATOM     25  N   UNL     1      36.128   3.623  13.989  0.00  0.00    +0.000 NA
ATOM     26  C   UNL     1      35.153   4.383  14.408  0.00  0.00    +0.000 C 
ATOM     27  O   UNL     1      34.262   3.819  15.122  0.00  0.00    +0.000 OA
BRANCH  26  28
ATOM     28  C   UNL     1      34.912   5.831  14.180  0.00  0.00    +0.000 A 
ATOM     29  C   UNL     1      33.791   6.522  13.913  0.00  0.00    +0.000 A 
ATOM     30  C   UNL     1      34.159   7.871  13.795  0.00  0.00    +0.000 A 
ATOM     31  C   UNL     1      35.536   7.891  14.012  0.00  0.00    +0.000 A 
ATOM     32  O   UNL     1      35.916   6.675  14.229  0.00  0.00    +0.000 OA
ENDBRANCH  26  28
ENDBRANCH   2  25
TORSDOF 6
ENDMDL
MODEL 3
REMARK VINA RESULT:      -7.9      3.383      7.345
REMARK  Name = 
REMARK  6 active torsions:
REMARK  status: ('A' for Active; 'I' for Inactive)
REMARK    1  A    between atoms: C_2  and  N_3
REMARK    2  A    between atoms: C_2  and  C_27
REMARK    3  A    between atoms: C_4  and  C_6
REMARK    4  A    between atoms: C_7  and  N_8
REMARK    5  A    between atoms: C_9  and  C_11
REMARK    6  A    between atoms: C_21  and  C_22
REMARK                            x       y       z     vdW  Elec       q    Type
REMARK                         _______ _______ _______ _____ _____    ______ ____
ROOT
ATOM      1  C   UNL     1      37.378   3.205  15.297  0.00  0.00    +0.000 A 
ATOM      2  C   UNL     1      38.047   4.299  15.694  0.00  0.00    +0.000 A 
ATOM      3  S   UNL     1      38.614   4.983  14.156  0.00  0.00    +0.000 S 
ATOM      4  C   UNL     1      37.961   3.825  13.119  0.00  0.00    +0.000 A 
ATOM      5  C   UNL     1      37.337   2.960  13.949  0.00  0.00    +0.000 A 
ATOM      6  C   UNL     1      36.689   1.845  13.117  0.00  0.00    +0.000 C 
ATOM      7  C   UNL     1      37.780   1.145  12.482  0.00  0.00    +0.000 C 
ATOM      8  C   UNL     1      38.629   2.073  11.454  0.00  0.00    +0.000 C 
ATOM      9  C   UNL     1      37.858   3.489  11.665  0.00  0.00    +0.000 C 
ENDROOT
BRANCH   8  10
ATOM     10  C   UNL     1      37.706   1.646  10.154  0.00  0.00    +0.000 C 
ATOM     11  C   UNL     1      37.124   2.961   9.747  0.00  0.00    +0.000 C 
ATOM     12  C   UNL     1      38.691   1.087   9.176  0.00  0.00    +0.000 C 
ATOM     13  C   UNL     1      36.648   0.730  10.600  0.00  0.00    +0.000 C 
ENDBRANCH   8  10
BRANCH   1  15
ATOM     14  N   UNL     1      36.940   1.039  16.560  0.00  0.00    +0.000 NA
ATOM     15  C   UNL     1      36.572   2.318  16.175  0.00  0.00    +0.000 C 
ATOM     16  O   UNL     1      35.491   2.761  16.595  0.00  0.00    +0.000 OA
BRANCH  14  18
ATOM     17  C   UNL     1      35.290  -0.621  16.209  0.00  0.00    +0.000 C 
ATOM     18  C   UNL     1      36.091   0.139  17.470  0.00  0.00    +0.000 C 
BRANCH  18  19
ATOM     19  C   UNL     1      37.089  -1.063  17.727  0.00  0.00    +0.000 A 
ATOM     20  C   UNL     1      37.737  -1.476  16.587  0.00  0.00    +0.000 A 
ATOM     21  C   UNL     1      38.679  -2.519  16.649  0.00  0.00    +0.000 A 
ATOM     22  C   UNL     1      38.886  -3.072  17.895  0.00  0.00    +0.000 A 
ATOM     23  C   UNL     1      38.228  -2.647  19.024  0.00  0.00    +0.000 A 
ATOM     24  C   UNL     1      37.324  -1.625  18.896  0.00  0.00    +0.000 A 
ENDBRANCH  18  19
ENDBRANCH  14  18
ENDBRANCH   1  15
BRANCH   2  25
ATOM     25  N   UNL     1      38.470   4.898  16.841  0.00  0.00    +0.000 NA
ATOM     26  C   UNL     1      38.703   4.931  18.126  0.00  0.00    +0.000 C 
ATOM     27  O   UNL     1      38.444   3.867  18.775  0.00  0.00    +0.000 OA
BRANCH  26  28
ATOM     28  C   UNL     1      39.232   6.035  18.967  0.00  0.00    +0.000 A 
ATOM     29  C   UNL     1      38.745   7.253  19.258  0.00  0.00    +0.000 A 
ATOM     30  C   UNL     1      39.674   7.873  20.108  0.00  0.00    +0.000 A 
ATOM     31  C   UNL     1      40.695   6.939  20.273  0.00  0.00    +0.000 A 
ATOM     32  O   UNL     1      40.382   5.890  19.584  0.00  0.00    +0.000 OA
ENDBRANCH  26  28
ENDBRANCH   2  25
TORSDOF 6
ENDMDL
MODEL 4
REMARK VINA RESULT:      -7.8      4.037      7.433
REMARK  Name = 
REMARK  6 active torsions:
REMARK  status: ('A' for Active; 'I' for Inactive)
REMARK    1  A    between atoms: C_2  and  N_3
REMARK    2  A    between atoms: C_2  and  C_27
REMARK    3  A    between atoms: C_4  and  C_6
REMARK    4  A    between atoms: C_7  and  N_8
REMARK    5  A    between atoms: C_9  and  C_11
REMARK    6  A    between atoms: C_21  and  C_22
REMARK                            x       y       z     vdW  Elec       q    Type
REMARK                         _______ _______ _______ _____ _____    ______ ____
ROOT
ATOM      1  C   UNL     1      38.338   1.875  14.488  0.00  0.00    +0.000 A 
ATOM      2  C   UNL     1      38.812   3.070  14.878  0.00  0.00    +0.000 A 
ATOM      3  S   UNL     1      39.948   3.478  13.575  0.00  0.00    +0.000 S 
ATOM      4  C   UNL     1      39.740   2.097  12.630  0.00  0.00    +0.000 A 
ATOM      5  C   UNL     1      38.828   1.370  13.312  0.00  0.00    +0.000 A 
ATOM      6  C   UNL     1      38.545   0.072  12.544  0.00  0.00    +0.000 C 
ATOM      7  C   UNL     1      39.787  -0.662  12.541  0.00  0.00    +0.000 C 
ATOM      8  C   UNL     1      40.985   0.104  11.754  0.00  0.00    +0.000 C 
ATOM      9  C   UNL     1      40.213   1.478  11.354  0.00  0.00    +0.000 C 
ENDROOT
BRANCH   8  10
ATOM     10  C   UNL     1      40.643  -0.630  10.317  0.00  0.00    +0.000 C 
ATOM     11  C   UNL     1      41.981  -0.640   9.653  0.00  0.00    +0.000 C 
ATOM     12  C   UNL     1      40.147  -1.987  10.711  0.00  0.00    +0.000 C 
ATOM     13  C   UNL     1      39.700   0.208   9.565  0.00  0.00    +0.000 C 
ENDBRANCH   8  10
BRANCH   1  15
ATOM     14  N   UNL     1      37.419   0.053  16.009  0.00  0.00    +0.000 NA
ATOM     15  C   UNL     1      37.240   1.123  15.148  0.00  0.00    +0.000 C 
ATOM     16  O   UNL     1      36.077   1.487  14.909  0.00  0.00    +0.000 OA
BRANCH  14  18
ATOM     17  C   UNL     1      36.188  -1.906  15.509  0.00  0.00    +0.000 C 
ATOM     18  C   UNL     1      36.267  -0.710  16.680  0.00  0.00    +0.000 C 
BRANCH  18  19
ATOM     19  C   UNL     1      37.060  -1.605  17.719  0.00  0.00    +0.000 A 
ATOM     20  C   UNL     1      37.955  -2.459  17.119  0.00  0.00    +0.000 A 
ATOM     21  C   UNL     1      38.758  -3.305  17.906  0.00  0.00    +0.000 A 
ATOM     22  C   UNL     1      38.578  -3.213  19.270  0.00  0.00    +0.000 A 
ATOM     23  C   UNL     1      37.678  -2.354  19.852  0.00  0.00    +0.000 A 
ATOM     24  C   UNL     1      36.927  -1.554  19.030  0.00  0.00    +0.000 A 
ENDBRANCH  18  19
ENDBRANCH  14  18
ENDBRANCH   1  15
BRANCH   2  25
ATOM     25  N   UNL     1      38.758   3.909  15.950  0.00  0.00    +0.000 NA
ATOM     26  C   UNL     1      38.340   4.268  17.134  0.00  0.00    +0.000 C 
ATOM     27  O   UNL     1      37.550   3.461  17.723  0.00  0.00    +0.000 OA
BRANCH  26  28
ATOM     28  C   UNL     1      38.645   5.491  17.918  0.00  0.00    +0.000 A 
ATOM     29  C   UNL     1      39.398   5.690  19.012  0.00  0.00    +0.000 A 
ATOM     30  C   UNL     1      39.327   7.058  19.317  0.00  0.00    +0.000 A 
ATOM     31  C   UNL     1      38.500   7.604  18.338  0.00  0.00    +0.000 A 
ATOM     32  O   UNL     1      38.134   6.644  17.553  0.00  0.00    +0.000 OA
ENDBRANCH  26  28
ENDBRANCH   2  25
TORSDOF 6
ENDMDL
MODEL 5
REMARK VINA RESULT:      -7.8      3.114      6.978
REMARK  Name = 
REMARK  6 active torsions:
REMARK  status: ('A' for Active; 'I' for Inactive)
REMARK    1  A    between atoms: C_2  and  N_3
REMARK    2  A    between atoms: C_2  and  C_27
REMARK    3  A    between atoms: C_4  and  C_6
REMARK    4  A    between atoms: C_7  and  N_8
REMARK    5  A    between atoms: C_9  and  C_11
REMARK    6  A    between atoms: C_21  and  C_22
REMARK                            x       y       z     vdW  Elec       q    Type
REMARK                         _______ _______ _______ _____ _____    ______ ____
ROOT
ATOM      1  C   UNL     1      38.060   3.883  15.707  0.00  0.00    +0.000 A 
ATOM      2  C   UNL     1      38.502   3.862  14.439  0.00  0.00    +0.000 A 
ATOM      3  S   UNL     1      39.933   4.912  14.511  0.00  0.00    +0.000 S 
ATOM      4  C   UNL     1      39.864   5.305  16.149  0.00  0.00    +0.000 A 
ATOM      5  C   UNL     1      38.775   4.641  16.597  0.00  0.00    +0.000 A 
ATOM      6  C   UNL     1      38.602   4.917  18.097  0.00  0.00    +0.000 C 
ATOM      7  C   UNL     1      38.338   6.331  18.209  0.00  0.00    +0.000 C 
ATOM      8  C   UNL     1      39.570   7.258  17.694  0.00  0.00    +0.000 C 
ATOM      9  C   UNL     1      40.590   6.099  17.188  0.00  0.00    +0.000 C 
ENDROOT
BRANCH   8  10
ATOM     10  C   UNL     1      40.254   7.351  19.193  0.00  0.00    +0.000 C 
ATOM     11  C   UNL     1      41.172   8.520  19.038  0.00  0.00    +0.000 C 
ATOM     12  C   UNL     1      39.096   7.602  20.107  0.00  0.00    +0.000 C 
ATOM     13  C   UNL     1      41.021   6.124  19.445  0.00  0.00    +0.000 C 
ENDBRANCH   8  10
BRANCH   1  15
ATOM     14  N   UNL     1      37.073   1.740  16.660  0.00  0.00    +0.000 NA
ATOM     15  C   UNL     1      36.952   3.058  16.251  0.00  0.00    +0.000 C 
ATOM     16  O   UNL     1      35.837   3.595  16.349  0.00  0.00    +0.000 OA
BRANCH  14  18
ATOM     17  C   UNL     1      35.554   0.162  15.762  0.00  0.00    +0.000 C 
ATOM     18  C   UNL     1      35.912   0.906  17.221  0.00  0.00    +0.000 C 
BRANCH  18  19
ATOM     19  C   UNL     1      36.690  -0.341  17.809  0.00  0.00    +0.000 A 
ATOM     20  C   UNL     1      37.412  -1.022  16.858  0.00  0.00    +0.000 A 
ATOM     21  C   UNL     1      38.182  -2.142  17.223  0.00  0.00    +0.000 A 
ATOM     22  C   UNL     1      38.150  -2.488  18.557  0.00  0.00    +0.000 A 
ATOM     23  C   UNL     1      37.422  -1.796  19.495  0.00  0.00    +0.000 A 
ATOM     24  C   UNL     1      36.694  -0.714  19.075  0.00  0.00    +0.000 A 
ENDBRANCH  18  19
ENDBRANCH  14  18
ENDBRANCH   1  15
BRANCH   2  25
ATOM     25  N   UNL     1      38.121   3.402  13.215  0.00  0.00    +0.000 NA
ATOM     26  C   UNL     1      38.024   2.487  12.288  0.00  0.00    +0.000 C 
ATOM     27  O   UNL     1      38.499   1.341  12.574  0.00  0.00    +0.000 OA
BRANCH  26  28
ATOM     28  C   UNL     1      37.436   2.573  10.928  0.00  0.00    +0.000 A 
ATOM     29  C   UNL     1      37.169   1.633  10.005  0.00  0.00    +0.000 A 
ATOM     30  C   UNL     1      36.610   2.291   8.899  0.00  0.00    +0.000 A 
ATOM     31  C   UNL     1      36.580   3.638   9.256  0.00  0.00    +0.000 A 
ATOM     32  O   UNL     1      37.074   3.740  10.446  0.00  0.00    +0.000 OA
ENDBRANCH  26  28
ENDBRANCH   2  25
TORSDOF 6
ENDMDL
MODEL 6
REMARK VINA RESULT:      -7.6      4.884      9.468
REMARK  Name = 
REMARK  6 active torsions:
REMARK  status: ('A' for Active; 'I' for Inactive)
REMARK    1  A    between atoms: C_2  and  N_3
REMARK    2  A    between atoms: C_2  and  C_27
REMARK    3  A    between atoms: C_4  and  C_6
REMARK    4  A    between atoms: C_7  and  N_8
REMARK    5  A    between atoms: C_9  and  C_11
REMARK    6  A    between atoms: C_21  and  C_22
REMARK                            x       y       z     vdW  Elec       q    Type
REMARK                         _______ _______ _______ _____ _____    ______ ____
ROOT
ATOM      1  C   UNL     1      39.458  -0.373  14.620  0.00  0.00    +0.000 A 
ATOM      2  C   UNL     1      40.670  -0.367  14.044  0.00  0.00    +0.000 A 
ATOM      3  S   UNL     1      40.853   1.329  13.548  0.00  0.00    +0.000 S 
ATOM      4  C   UNL     1      39.371   1.907  14.107  0.00  0.00    +0.000 A 
ATOM      5  C   UNL     1      38.781   0.819  14.649  0.00  0.00    +0.000 A 
ATOM      6  C   UNL     1      37.408   1.217  15.206  0.00  0.00    +0.000 C 
ATOM      7  C   UNL     1      36.625   1.626  14.064  0.00  0.00    +0.000 C 
ATOM      8  C   UNL     1      37.227   2.930  13.305  0.00  0.00    +0.000 C 
ATOM      9  C   UNL     1      38.569   3.166  14.191  0.00  0.00    +0.000 C 
ENDROOT
BRANCH   8  10
ATOM     10  C   UNL     1      36.326   3.986  14.197  0.00  0.00    +0.000 C 
ATOM     11  C   UNL     1      35.998   5.037  13.187  0.00  0.00    +0.000 C 
ATOM     12  C   UNL     1      35.147   3.176  14.639  0.00  0.00    +0.000 C 
ATOM     13  C   UNL     1      37.164   4.543  15.267  0.00  0.00    +0.000 C 
ENDBRANCH   8  10
BRANCH   1  15
ATOM     14  N   UNL     1      38.705  -1.605  16.716  0.00  0.00    +0.000 NA
ATOM     15  C   UNL     1      38.849  -1.520  15.341  0.00  0.00    +0.000 C 
ATOM     16  O   UNL     1      38.434  -2.469  14.655  0.00  0.00    +0.000 OA
BRANCH  14  18
ATOM     17  C   UNL     1      38.291  -2.171  18.977  0.00  0.00    +0.000 C 
ATOM     18  C   UNL     1      38.071  -2.802  17.440  0.00  0.00    +0.000 C 
BRANCH  18  19
ATOM     19  C   UNL     1      36.535  -2.421  17.367  0.00  0.00    +0.000 A 
ATOM     20  C   UNL     1      36.231  -1.278  18.068  0.00  0.00    +0.000 A 
ATOM     21  C   UNL     1      34.912  -0.789  18.082  0.00  0.00    +0.000 A 
ATOM     22  C   UNL     1      33.988  -1.522  17.369  0.00  0.00    +0.000 A 
ATOM     23  C   UNL     1      34.309  -2.663  16.675  0.00  0.00    +0.000 A 
ATOM     24  C   UNL     1      35.613  -3.087  16.699  0.00  0.00    +0.000 A 
ENDBRANCH  18  19
ENDBRANCH  14  18
ENDBRANCH   1  15
BRANCH   2  25
ATOM     25  N   UNL     1      41.645  -1.240  13.665  0.00  0.00    +0.000 NA
ATOM     26  C   UNL     1      42.077  -2.395  13.237  0.00  0.00    +0.000 C 
ATOM     27  O   UNL     1      41.189  -3.273  12.985  0.00  0.00    +0.000 OA
BRANCH  26  28
ATOM     28  C   UNL     1      43.467  -2.858  12.992  0.00  0.00    +0.000 A 
ATOM     29  C   UNL     1      43.999  -3.627  12.028  0.00  0.00    +0.000 A 
ATOM     30  C   UNL     1      45.372  -3.733  12.298  0.00  0.00    +0.000 A 
ATOM     31  C   UNL     1      45.571  -2.984  13.457  0.00  0.00    +0.000 A 
ATOM     32  O   UNL     1      44.427  -2.501  13.813  0.00  0.00    +0.000 OA
ENDBRANCH  26  28
ENDBRANCH   2  25
TORSDOF 6
ENDMDL
MODEL 7
REMARK VINA RESULT:      -7.5      4.030      6.400
REMARK  Name = 
REMARK  6 active torsions:
REMARK  status: ('A' for Active; 'I' for Inactive)
REMARK    1  A    between atoms: C_2  and  N_3
REMARK    2  A    between atoms: C_2  and  C_27
REMARK    3  A    between atoms: C_4  and  C_6
REMARK    4  A    between atoms: C_7  and  N_8
REMARK    5  A    between atoms: C_9  and  C_11
REMARK    6  A    between atoms: C_21  and  C_22
REMARK                            x       y       z     vdW  Elec       q    Type
REMARK                         _______ _______ _______ _____ _____    ______ ____
ROOT
ATOM      1  C   UNL     1      39.768   0.695  14.194  0.00  0.00    +0.000 A 
ATOM      2  C   UNL     1      40.951   0.585  13.568  0.00  0.00    +0.000 A 
ATOM      3  S   UNL     1      41.246  -1.166  13.606  0.00  0.00    +0.000 S 
ATOM      4  C   UNL     1      39.844  -1.632  14.418  0.00  0.00    +0.000 A 
ATOM      5  C   UNL     1      39.194  -0.468  14.638  0.00  0.00    +0.000 A 
ATOM      6  C   UNL     1      37.881  -0.759  15.377  0.00  0.00    +0.000 C 
ATOM      7  C   UNL     1      38.263  -1.304  16.658  0.00  0.00    +0.000 C 
ATOM      8  C   UNL     1      39.067  -2.712  16.544  0.00  0.00    +0.000 C 
ATOM      9  C   UNL     1      39.143  -2.852  14.926  0.00  0.00    +0.000 C 
ENDROOT
BRANCH   8  10
ATOM     10  C   UNL     1      37.692  -3.618  16.661  0.00  0.00    +0.000 C 
ATOM     11  C   UNL     1      38.207  -4.873  17.288  0.00  0.00    +0.000 C 
ATOM     12  C   UNL     1      36.800  -2.811  17.553  0.00  0.00    +0.000 C 
ATOM     13  C   UNL     1      37.181  -3.887  15.311  0.00  0.00    +0.000 C 
ENDBRANCH   8  10
BRANCH   1  15
ATOM     14  N   UNL     1      38.905   2.721  15.470  0.00  0.00    +0.000 NA
ATOM     15  C   UNL     1      38.972   1.941  14.326  0.00  0.00    +0.000 C 
ATOM     16  O   UNL     1      38.322   2.311  13.335  0.00  0.00    +0.000 OA
BRANCH  14  18
ATOM     17  C   UNL     1      36.971   3.368  16.671  0.00  0.00    +0.000 C 
ATOM     18  C   UNL     1      38.075   4.008  15.584  0.00  0.00    +0.000 C 
BRANCH  18  19
ATOM     19  C   UNL     1      38.891   4.799  16.686  0.00  0.00    +0.000 A 
ATOM     20  C   UNL     1      39.951   5.504  16.167  0.00  0.00    +0.000 A 
ATOM     21  C   UNL     1      40.762   6.283  17.013  0.00  0.00    +0.000 A 
ATOM     22  C   UNL     1      40.423   6.277  18.349  0.00  0.00    +0.000 A 
ATOM     23  C   UNL     1      39.361   5.565  18.850  0.00  0.00    +0.000 A 
ATOM     24  C   UNL     1      38.608   4.828  17.974  0.00  0.00    +0.000 A 
ENDBRANCH  18  19
ENDBRANCH  14  18
ENDBRANCH   1  15
BRANCH   2  25
ATOM     25  N   UNL     1      41.941   1.378  13.074  0.00  0.00    +0.000 NA
ATOM     26  C   UNL     1      43.189   1.733  12.924  0.00  0.00    +0.000 C 
ATOM     27  O   UNL     1      44.058   1.003  13.499  0.00  0.00    +0.000 OA
BRANCH  26  28
ATOM     28  C   UNL     1      43.767   2.877  12.172  0.00  0.00    +0.000 A 
ATOM     29  C   UNL     1      44.342   2.955  10.961  0.00  0.00    +0.000 A 
ATOM     30  C   UNL     1      44.701   4.297  10.763  0.00  0.00    +0.000 A 
ATOM     31  C   UNL     1      44.296   4.955  11.922  0.00  0.00    +0.000 A 
ATOM     32  O   UNL     1      43.760   4.077  12.705  0.00  0.00    +0.000 OA
ENDBRANCH  26  28
ENDBRANCH   2  25
TORSDOF 6
ENDMDL
MODEL 8
REMARK VINA RESULT:      -7.5      2.073      2.608
REMARK  Name = 
REMARK  6 active torsions:
REMARK  status: ('A' for Active; 'I' for Inactive)
REMARK    1  A    between atoms: C_2  and  N_3
REMARK    2  A    between atoms: C_2  and  C_27
REMARK    3  A    between atoms: C_4  and  C_6
REMARK    4  A    between atoms: C_7  and  N_8
REMARK    5  A    between atoms: C_9  and  C_11
REMARK    6  A    between atoms: C_21  and  C_22
REMARK                            x       y       z     vdW  Elec       q    Type
REMARK                         _______ _______ _______ _____ _____    ______ ____
ROOT
ATOM      1  C   UNL     1      37.979   3.581  14.571  0.00  0.00    +0.000 A 
ATOM      2  C   UNL     1      36.726   4.062  14.544  0.00  0.00    +0.000 A 
ATOM      3  S   UNL     1      35.744   2.587  14.653  0.00  0.00    +0.000 S 
ATOM      4  C   UNL     1      36.999   1.463  14.723  0.00  0.00    +0.000 A 
ATOM      5  C   UNL     1      38.116   2.220  14.663  0.00  0.00    +0.000 A 
ATOM      6  C   UNL     1      39.346   1.304  14.722  0.00  0.00    +0.000 C 
ATOM      7  C   UNL     1      39.292   0.495  13.528  0.00  0.00    +0.000 C 
ATOM      8  C   UNL     1      37.985  -0.468  13.462  0.00  0.00    +0.000 C 
ATOM      9  C   UNL     1      37.239  -0.009  14.832  0.00  0.00    +0.000 C 
ENDROOT
BRANCH   8  10
ATOM     10  C   UNL     1      38.760  -1.733  14.185  0.00  0.00    +0.000 C 
ATOM     11  C   UNL     1      38.014  -2.903  13.631  0.00  0.00    +0.000 C 
ATOM     12  C   UNL     1      40.170  -1.622  13.697  0.00  0.00    +0.000 C 
ATOM     13  C   UNL     1      38.571  -1.641  15.638  0.00  0.00    +0.000 C 
ENDBRANCH   8  10
BRANCH   1  15
ATOM     14  N   UNL     1      39.603   5.156  15.737  0.00  0.00    +0.000 NA
ATOM     15  C   UNL     1      39.218   4.396  14.644  0.00  0.00    +0.000 C 
ATOM     16  O   UNL     1      39.964   4.390  13.652  0.00  0.00    +0.000 OA
BRANCH  14  18
ATOM     17  C   UNL     1      40.118   7.458  15.541  0.00  0.00    +0.000 C 
ATOM     18  C   UNL     1      40.891   5.992  15.790  0.00  0.00    +0.000 C 
BRANCH  18  19
ATOM     19  C   UNL     1      41.053   6.200  17.352  0.00  0.00    +0.000 A 
ATOM     20  C   UNL     1      39.882   6.005  18.045  0.00  0.00    +0.000 A 
ATOM     21  C   UNL     1      39.864   6.126  19.447  0.00  0.00    +0.000 A 
ATOM     22  C   UNL     1      41.065   6.449  20.041  0.00  0.00    +0.000 A 
ATOM     23  C   UNL     1      42.225   6.641  19.332  0.00  0.00    +0.000 A 
ATOM     24  C   UNL     1      42.178   6.507  17.969  0.00  0.00    +0.000 A 
ENDBRANCH  18  19
ENDBRANCH  14  18
ENDBRANCH   1  15
BRANCH   2  25
ATOM     25  N   UNL     1      36.071   5.240  14.351  0.00  0.00    +0.000 NA
ATOM     26  C   UNL     1      35.452   6.128  13.619  0.00  0.00    +0.000 C 
ATOM     27  O   UNL     1      35.307   5.842  12.387  0.00  0.00    +0.000 OA
BRANCH  26  28
ATOM     28  C   UNL     1      34.881   7.443  14.003  0.00  0.00    +0.000 A 
ATOM     29  C   UNL     1      33.749   7.776  14.645  0.00  0.00    +0.000 A 
ATOM     30  C   UNL     1      33.724   9.176  14.735  0.00  0.00    +0.000 A 
ATOM     31  C   UNL     1      34.897   9.600  14.114  0.00  0.00    +0.000 A 
ATOM     32  O   UNL     1      35.528   8.547  13.708  0.00  0.00    +0.000 OA
ENDBRANCH  26  28
ENDBRANCH   2  25
TORSDOF 6
ENDMDL
MODEL 9
REMARK VINA RESULT:      -7.5      3.122      7.273
REMARK  Name = 
REMARK  6 active torsions:
REMARK  status: ('A' for Active; 'I' for Inactive)
REMARK    1  A    between atoms: C_2  and  N_3
REMARK    2  A    between atoms: C_2  and  C_27
REMARK    3  A    between atoms: C_4  and  C_6
REMARK    4  A    between atoms: C_7  and  N_8
REMARK    5  A    between atoms: C_9  and  C_11
REMARK    6  A    between atoms: C_21  and  C_22
REMARK                            x       y       z     vdW  Elec       q    Type
REMARK                         _______ _______ _______ _____ _____    ______ ____
ROOT
ATOM      1  C   UNL     1      38.519   4.422  16.186  0.00  0.00    +0.000 A 
ATOM      2  C   UNL     1      39.047   4.414  14.952  0.00  0.00    +0.000 A 
ATOM      3  S   UNL     1      40.455   5.483  15.127  0.00  0.00    +0.000 S 
ATOM      4  C   UNL     1      40.268   5.866  16.759  0.00  0.00    +0.000 A 
ATOM      5  C   UNL     1      39.161   5.184  17.127  0.00  0.00    +0.000 A 
ATOM      6  C   UNL     1      38.881   5.448  18.613  0.00  0.00    +0.000 C 
ATOM      7  C   UNL     1      38.590   6.858  18.714  0.00  0.00    +0.000 C 
ATOM      8  C   UNL     1      39.841   7.805  18.290  0.00  0.00    +0.000 C 
ATOM      9  C   UNL     1      40.910   6.663  17.849  0.00  0.00    +0.000 C 
ENDROOT
BRANCH   8  10
ATOM     10  C   UNL     1      40.419   7.898  19.833  0.00  0.00    +0.000 C 
ATOM     11  C   UNL     1      41.228   9.153  19.780  0.00  0.00    +0.000 C 
ATOM     12  C   UNL     1      39.187   8.001  20.677  0.00  0.00    +0.000 C 
ATOM     13  C   UNL     1      41.282   6.738  20.090  0.00  0.00    +0.000 C 
ENDBRANCH   8  10
BRANCH   1  15
ATOM     14  N   UNL     1      36.272   3.264  15.890  0.00  0.00    +0.000 NA
ATOM     15  C   UNL     1      37.388   3.578  16.648  0.00  0.00    +0.000 C 
ATOM     16  O   UNL     1      37.453   3.118  17.800  0.00  0.00    +0.000 OA
BRANCH  14  18
ATOM     17  C   UNL     1      34.105   2.735  15.096  0.00  0.00    +0.000 C 
ATOM     18  C   UNL     1      35.114   2.388  16.390  0.00  0.00    +0.000 C 
BRANCH  18  19
ATOM     19  C   UNL     1      35.545   0.969  15.834  0.00  0.00    +0.000 A 
ATOM     20  C   UNL     1      36.247   1.044  14.655  0.00  0.00    +0.000 A 
ATOM     21  C   UNL     1      36.726  -0.129  14.043  0.00  0.00    +0.000 A 
ATOM     22  C   UNL     1      36.441  -1.310  14.695  0.00  0.00    +0.000 A 
ATOM     23  C   UNL     1      35.736  -1.366  15.872  0.00  0.00    +0.000 A 
ATOM     24  C   UNL     1      35.298  -0.188  16.418  0.00  0.00    +0.000 A 
ENDBRANCH  18  19
ENDBRANCH  14  18
ENDBRANCH   1  15
BRANCH   2  25
ATOM     25  N   UNL     1      38.759   3.957  13.702  0.00  0.00    +0.000 NA
ATOM     26  C   UNL     1      37.986   3.815  12.658  0.00  0.00    +0.000 C 
ATOM     27  O   UNL     1      36.850   4.388  12.713  0.00  0.00    +0.000 OA
BRANCH  26  28
ATOM     28  C   UNL     1      38.227   3.076  11.393  0.00  0.00    +0.000 A 
ATOM     29  C   UNL     1      38.474   1.779  11.145  0.00  0.00    +0.000 A 
ATOM     30  C   UNL     1      38.618   1.647   9.755  0.00  0.00    +0.000 A 
ATOM     31  C   UNL     1      38.437   2.933   9.249  0.00  0.00    +0.000 A 
ATOM     32  O   UNL     1      38.214   3.721  10.249  0.00  0.00    +0.000 OA
ENDBRANCH  26  28
ENDBRANCH   2  25
TORSDOF 6
ENDMDL
MODEL 10
REMARK VINA RESULT:      -7.3      4.925      8.188
REMARK  Name = 
REMARK  6 active torsions:
REMARK  status: ('A' for Active; 'I' for Inactive)
REMARK    1  A    between atoms: C_2  and  N_3
REMARK    2  A    between atoms: C_2  and  C_27
REMARK    3  A    between atoms: C_4  and  C_6
REMARK    4  A    between atoms: C_7  and  N_8
REMARK    5  A    between atoms: C_9  and  C_11
REMARK    6  A    between atoms: C_21  and  C_22
REMARK                            x       y       z     vdW  Elec       q    Type
REMARK                         _______ _______ _______ _____ _____    ______ ____
ROOT
ATOM      1  C   UNL     1      38.910  -0.694  14.621  0.00  0.00    +0.000 A 
ATOM      2  C   UNL     1      38.451  -1.907  14.969  0.00  0.00    +0.000 A 
ATOM      3  S   UNL     1      39.942  -2.865  15.084  0.00  0.00    +0.000 S 
ATOM      4  C   UNL     1      41.042  -1.653  14.678  0.00  0.00    +0.000 A 
ATOM      5  C   UNL     1      40.266  -0.567  14.469  0.00  0.00    +0.000 A 
ATOM      6  C   UNL     1      41.159   0.622  14.091  0.00  0.00    +0.000 C 
ATOM      7  C   UNL     1      41.776   0.268  12.835  0.00  0.00    +0.000 C 
ATOM      8  C   UNL     1      42.740  -1.037  12.938  0.00  0.00    +0.000 C 
ATOM      9  C   UNL     1      42.509  -1.424  14.500  0.00  0.00    +0.000 C 
ENDROOT
BRANCH   8  10
ATOM     10  C   UNL     1      44.087  -0.138  13.252  0.00  0.00    +0.000 C 
ATOM     11  C   UNL     1      43.665   1.217  12.783  0.00  0.00    +0.000 C 
ATOM     12  C   UNL     1      44.259  -0.244  14.735  0.00  0.00    +0.000 C 
ATOM     13  C   UNL     1      45.199  -0.643  12.435  0.00  0.00    +0.000 C 
ENDBRANCH   8  10
BRANCH   1  15
ATOM     14  N   UNL     1      37.835   1.410  15.569  0.00  0.00    +0.000 NA
ATOM     15  C   UNL     1      38.094   0.543  14.519  0.00  0.00    +0.000 C 
ATOM     16  O   UNL     1      37.614   0.819  13.408  0.00  0.00    +0.000 OA
BRANCH  14  18
ATOM     17  C   UNL     1      36.218   2.494  16.916  0.00  0.00    +0.000 C 
ATOM     18  C   UNL     1      36.989   2.685  15.439  0.00  0.00    +0.000 C 
BRANCH  18  19
ATOM     19  C   UNL     1      38.004   3.779  15.968  0.00  0.00    +0.000 A 
ATOM     20  C   UNL     1      37.836   4.067  17.302  0.00  0.00    +0.000 A 
ATOM     21  C   UNL     1      38.678   5.001  17.933  0.00  0.00    +0.000 A 
ATOM     22  C   UNL     1      39.642   5.582  17.136  0.00  0.00    +0.000 A 
ATOM     23  C   UNL     1      39.794   5.282  15.804  0.00  0.00    +0.000 A 
ATOM     24  C   UNL     1      38.943   4.362  15.249  0.00  0.00    +0.000 A 
ENDBRANCH  18  19
ENDBRANCH  14  18
ENDBRANCH   1  15
BRANCH   2  25
ATOM     25  N   UNL     1      37.269  -2.566  15.121  0.00  0.00    +0.000 NA
ATOM     26  C   UNL     1      36.107  -2.767  15.682  0.00  0.00    +0.000 C 
ATOM     27  O   UNL     1      35.774  -1.952  16.602  0.00  0.00    +0.000 OA
BRANCH  26  28
ATOM     28  C   UNL     1      35.091  -3.817  15.412  0.00  0.00    +0.000 A 
ATOM     29  C   UNL     1      33.748  -3.790  15.426  0.00  0.00    +0.000 A 
ATOM     30  C   UNL     1      33.308  -5.078  15.087  0.00  0.00    +0.000 A 
ATOM     31  C   UNL     1      34.473  -5.817  14.884  0.00  0.00    +0.000 A 
ATOM     32  O   UNL     1      35.477  -5.029  15.088  0.00  0.00    +0.000 OA
ENDBRANCH  26  28
ENDBRANCH   2  25
TORSDOF 6
ENDMDL
