MODEL 1
REMARK VINA RESULT:      -7.6      0.000      0.000
REMARK  Name = 
REMARK  9 active torsions:
REMARK  status: ('A' for Active; 'I' for Inactive)
REMARK    1  A    between atoms: C_2  and  O_3
REMARK    2  A    between atoms: O_3  and  C_4
REMARK    3  A    between atoms: C_4  and  C_6
REMARK    4  A    between atoms: C_6  and  C_7
REMARK    5  A    between atoms: C_7  and  C_9
REMARK    6  A    between atoms: C_9  and  C_10
REMARK    7  A    between atoms: C_10  and  C_12
REMARK    8  A    between atoms: C_13  and  C_14
REMARK    9  A    between atoms: C_15  and  C_16
REMARK                            x       y       z     vdW  Elec       q    Type
REMARK                         _______ _______ _______ _____ _____    ______ ____
ROOT
ATOM      1  C   UNL     1      36.550   0.830  14.704  0.00  0.00    +0.000 A 
ATOM      2  C   UNL     1      37.298  -0.223  15.222  0.00  0.00    +0.000 A 
ATOM      3  C   UNL     1      36.969  -0.402  16.550  0.00  0.00    +0.000 A 
ATOM      4  C   UNL     1      37.450  -1.315  17.457  0.00  0.00    +0.000 A 
ATOM      5  C   UNL     1      38.408  -2.212  17.034  0.00  0.00    +0.000 A 
ATOM      6  C   UNL     1      38.883  -3.123  17.956  0.00  0.00    +0.000 A 
ATOM      7  C   UNL     1      38.405  -3.122  19.250  0.00  0.00    +0.000 A 
ATOM      8  C   UNL     1      37.448  -2.206  19.633  0.00  0.00    +0.000 A 
ATOM      9  C   UNL     1      36.965  -1.293  18.729  0.00  0.00    +0.000 A 
ATOM     10  C   UNL     1      36.009  -0.349  19.038  0.00  0.00    +0.000 A 
ATOM     11  C   UNL     1      35.538   0.558  18.116  0.00  0.00    +0.000 A 
ATOM     12  N   UNL     1      36.036   0.523  16.847  0.00  0.00    +0.000 N 
ATOM     13  C   UNL     1      35.773   1.265  15.761  0.00  0.00    +0.000 A 
ATOM     14  C   UNL     1      34.816   2.390  15.636  0.00  0.00    +0.000 C 
ENDROOT
BRANCH   2  15
ATOM     15  C   UNL     1      38.288  -1.026  14.477  0.00  0.00    +0.000 A 
ATOM     16  C   UNL     1      39.629  -0.728  14.481  0.00  0.00    +0.000 A 
ATOM     17  C   UNL     1      40.597  -1.424  13.818  0.00  0.00    +0.000 A 
ATOM     18  C   UNL     1      40.250  -2.525  13.068  0.00  0.00    +0.000 A 
ATOM     19  C   UNL     1      38.919  -2.866  13.030  0.00  0.00    +0.000 A 
ATOM     20  C   UNL     1      37.963  -2.131  13.721  0.00  0.00    +0.000 A 
ENDBRANCH   2  15
BRANCH   1  22
ATOM     21  C   UNL     1      36.909   1.841  12.396  0.00  0.00    +0.000 C 
ATOM     22  C   UNL     1      36.693   1.219  13.369  0.00  0.00    +0.000 C 
BRANCH  21  23
ATOM     23  C   UNL     1      37.402   3.333  12.108  0.00  0.00    +0.000 C 
ATOM     24  O   UNL     1      38.067   2.982  10.805  0.00  0.00    +0.000 OA
BRANCH  23  25
ATOM     25  C   UNL     1      38.762   3.143  12.998  0.00  0.00    +0.000 C 
BRANCH  25  26
ATOM     26  C   UNL     1      38.560   4.403  13.996  0.00  0.00    +0.000 C 
ATOM     27  O   UNL     1      39.949   4.941  13.794  0.00  0.00    +0.000 OA
BRANCH  26  28
ATOM     28  C   UNL     1      38.907   3.566  15.340  0.00  0.00    +0.000 C 
BRANCH  28  29
ATOM     29  C   UNL     1      38.535   4.242  16.528  0.00  0.00    +0.000 C 
ATOM     30  O   UNL     1      37.658   3.715  17.295  0.00  0.00    +0.000 OA
BRANCH  29  31
ATOM     31  O   UNL     1      39.035   5.441  16.954  0.00  0.00    +0.000 OA
BRANCH  31  33
ATOM     32  C   UNL     1      39.480   6.061  19.177  0.00  0.00    +0.000 C 
ATOM     33  C   UNL     1      38.508   6.233  18.002  0.00  0.00    +0.000 C 
ENDBRANCH  31  33
ENDBRANCH  29  31
ENDBRANCH  28  29
ENDBRANCH  26  28
ENDBRANCH  25  26
ENDBRANCH  23  25
ENDBRANCH  21  23
ENDBRANCH   1  22
TORSDOF 9
ENDMDL
MODEL 2
REMARK VINA RESULT:      -7.3      2.674      5.045
REMARK  Name = 
REMARK  9 active torsions:
REMARK  status: ('A' for Active; 'I' for Inactive)
REMARK    1  A    between atoms: C_2  and  O_3
REMARK    2  A    between atoms: O_3  and  C_4
REMARK    3  A    between atoms: C_4  and  C_6
REMARK    4  A    between atoms: C_6  and  C_7
REMARK    5  A    between atoms: C_7  and  C_9
REMARK    6  A    between atoms: C_9  and  C_10
REMARK    7  A    between atoms: C_10  and  C_12
REMARK    8  A    between atoms: C_13  and  C_14
REMARK    9  A    between atoms: C_15  and  C_16
REMARK                            x       y       z     vdW  Elec       q    Type
REMARK                         _______ _______ _______ _____ _____    ______ ____
ROOT
ATOM      1  C   UNL     1      38.276  -1.215  12.826  0.00  0.00    +0.000 A 
ATOM      2  C   UNL     1      37.727  -1.316  14.101  0.00  0.00    +0.000 A 
ATOM      3  C   UNL     1      36.966  -0.194  14.356  0.00  0.00    +0.000 A 
ATOM      4  C   UNL     1      36.244   0.140  15.477  0.00  0.00    +0.000 A 
ATOM      5  C   UNL     1      36.244  -0.741  16.538  0.00  0.00    +0.000 A 
ATOM      6  C   UNL     1      35.515  -0.393  17.657  0.00  0.00    +0.000 A 
ATOM      7  C   UNL     1      34.817   0.797  17.696  0.00  0.00    +0.000 A 
ATOM      8  C   UNL     1      34.846   1.650  16.613  0.00  0.00    +0.000 A 
ATOM      9  C   UNL     1      35.565   1.320  15.492  0.00  0.00    +0.000 A 
ATOM     10  C   UNL     1      35.639   2.120  14.372  0.00  0.00    +0.000 A 
ATOM     11  C   UNL     1      36.368   1.771  13.257  0.00  0.00    +0.000 A 
ATOM     12  N   UNL     1      37.043   0.585  13.260  0.00  0.00    +0.000 N 
ATOM     13  C   UNL     1      37.817  -0.006  12.338  0.00  0.00    +0.000 A 
ATOM     14  C   UNL     1      38.172   0.495  10.989  0.00  0.00    +0.000 C 
ENDROOT
BRANCH   2  15
ATOM     15  C   UNL     1      37.924  -2.440  15.038  0.00  0.00    +0.000 A 
ATOM     16  C   UNL     1      37.058  -3.504  15.100  0.00  0.00    +0.000 A 
ATOM     17  C   UNL     1      37.178  -4.574  15.939  0.00  0.00    +0.000 A 
ATOM     18  C   UNL     1      38.238  -4.637  16.814  0.00  0.00    +0.000 A 
ATOM     19  C   UNL     1      39.135  -3.595  16.792  0.00  0.00    +0.000 A 
ATOM     20  C   UNL     1      38.977  -2.523  15.921  0.00  0.00    +0.000 A 
ENDBRANCH   2  15
BRANCH   1  22
ATOM     21  C   UNL     1      40.021  -2.834  11.925  0.00  0.00    +0.000 C 
ATOM     22  C   UNL     1      39.095  -2.228  12.318  0.00  0.00    +0.000 C 
BRANCH  21  23
ATOM     23  C   UNL     1      41.569  -2.500  11.713  0.00  0.00    +0.000 C 
ATOM     24  O   UNL     1      41.950  -3.922  11.409  0.00  0.00    +0.000 OA
BRANCH  23  25
ATOM     25  C   UNL     1      41.897  -2.619  13.311  0.00  0.00    +0.000 C 
BRANCH  25  26
ATOM     26  C   UNL     1      42.833  -1.304  13.451  0.00  0.00    +0.000 C 
ATOM     27  O   UNL     1      43.672  -1.871  14.562  0.00  0.00    +0.000 OA
BRANCH  26  28
ATOM     28  C   UNL     1      41.802  -0.510  14.419  0.00  0.00    +0.000 C 
BRANCH  28  29
ATOM     29  C   UNL     1      41.172   0.587  13.780  0.00  0.00    +0.000 C 
ATOM     30  O   UNL     1      41.490   0.870  12.575  0.00  0.00    +0.000 OA
BRANCH  29  31
ATOM     31  O   UNL     1      40.227   1.400  14.340  0.00  0.00    +0.000 OA
BRANCH  31  33
ATOM     32  C   UNL     1      39.074   3.319  15.056  0.00  0.00    +0.000 C 
ATOM     33  C   UNL     1      39.917   2.717  13.924  0.00  0.00    +0.000 C 
ENDBRANCH  31  33
ENDBRANCH  29  31
ENDBRANCH  28  29
ENDBRANCH  26  28
ENDBRANCH  25  26
ENDBRANCH  23  25
ENDBRANCH  21  23
ENDBRANCH   1  22
TORSDOF 9
ENDMDL
MODEL 3
REMARK VINA RESULT:      -6.9      2.457      3.410
REMARK  Name = 
REMARK  9 active torsions:
REMARK  status: ('A' for Active; 'I' for Inactive)
REMARK    1  A    between atoms: C_2  and  O_3
REMARK    2  A    between atoms: O_3  and  C_4
REMARK    3  A    between atoms: C_4  and  C_6
REMARK    4  A    between atoms: C_6  and  C_7
REMARK    5  A    between atoms: C_7  and  C_9
REMARK    6  A    between atoms: C_9  and  C_10
REMARK    7  A    between atoms: C_10  and  C_12
REMARK    8  A    between atoms: C_13  and  C_14
REMARK    9  A    between atoms: C_15  and  C_16
REMARK                            x       y       z     vdW  Elec       q    Type
REMARK                         _______ _______ _______ _____ _____    ______ ____
ROOT
ATOM      1  C   UNL     1      36.536   0.970  14.982  0.00  0.00    +0.000 A 
ATOM      2  C   UNL     1      37.298  -0.114  15.409  0.00  0.00    +0.000 A 
ATOM      3  C   UNL     1      36.994  -0.391  16.726  0.00  0.00    +0.000 A 
ATOM      4  C   UNL     1      37.496  -1.364  17.556  0.00  0.00    +0.000 A 
ATOM      5  C   UNL     1      38.450  -2.222  17.051  0.00  0.00    +0.000 A 
ATOM      6  C   UNL     1      38.946  -3.195  17.896  0.00  0.00    +0.000 A 
ATOM      7  C   UNL     1      38.492  -3.292  19.195  0.00  0.00    +0.000 A 
ATOM      8  C   UNL     1      37.537  -2.412  19.660  0.00  0.00    +0.000 A 
ATOM      9  C   UNL     1      37.033  -1.439  18.834  0.00  0.00    +0.000 A 
ATOM     10  C   UNL     1      36.077  -0.526  19.227  0.00  0.00    +0.000 A 
ATOM     11  C   UNL     1      35.586   0.444  18.383  0.00  0.00    +0.000 A 
ATOM     12  N   UNL     1      36.062   0.504  17.105  0.00  0.00    +0.000 N 
ATOM     13  C   UNL     1      35.776   1.321  16.082  0.00  0.00    +0.000 A 
ATOM     14  C   UNL     1      34.810   2.447  16.055  0.00  0.00    +0.000 C 
ENDROOT
BRANCH   2  15
ATOM     15  C   UNL     1      38.279  -0.854  14.590  0.00  0.00    +0.000 A 
ATOM     16  C   UNL     1      37.924  -1.926  13.808  0.00  0.00    +0.000 A 
ATOM     17  C   UNL     1      38.775  -2.653  13.029  0.00  0.00    +0.000 A 
ATOM     18  C   UNL     1      40.111  -2.325  12.989  0.00  0.00    +0.000 A 
ATOM     19  C   UNL     1      40.519  -1.258  13.755  0.00  0.00    +0.000 A 
ATOM     20  C   UNL     1      39.620  -0.541  14.535  0.00  0.00    +0.000 A 
ENDBRANCH   2  15
BRANCH   1  22
ATOM     21  C   UNL     1      36.942   2.103  12.740  0.00  0.00    +0.000 C 
ATOM     22  C   UNL     1      36.654   1.456  13.677  0.00  0.00    +0.000 C 
BRANCH  21  23
ATOM     23  C   UNL     1      37.806   3.428  12.518  0.00  0.00    +0.000 C 
ATOM     24  O   UNL     1      38.875   3.032  13.499  0.00  0.00    +0.000 OA
BRANCH  23  25
ATOM     25  C   UNL     1      36.937   4.277  13.615  0.00  0.00    +0.000 C 
BRANCH  25  26
ATOM     26  C   UNL     1      36.036   5.135  12.578  0.00  0.00    +0.000 C 
ATOM     27  O   UNL     1      37.190   5.947  12.058  0.00  0.00    +0.000 OA
BRANCH  26  28
ATOM     28  C   UNL     1      35.561   6.223  13.683  0.00  0.00    +0.000 C 
BRANCH  28  29
ATOM     29  C   UNL     1      34.262   6.732  13.439  0.00  0.00    +0.000 C 
ATOM     30  O   UNL     1      33.505   7.007  14.432  0.00  0.00    +0.000 OA
BRANCH  29  31
ATOM     31  O   UNL     1      33.716   6.968  12.208  0.00  0.00    +0.000 OA
BRANCH  31  33
ATOM     32  C   UNL     1      34.192   7.352   9.939  0.00  0.00    +0.000 C 
ATOM     33  C   UNL     1      34.088   8.007  11.323  0.00  0.00    +0.000 C 
ENDBRANCH  31  33
ENDBRANCH  29  31
ENDBRANCH  28  29
ENDBRANCH  26  28
ENDBRANCH  25  26
ENDBRANCH  23  25
ENDBRANCH  21  23
ENDBRANCH   1  22
TORSDOF 9
ENDMDL
MODEL 4
REMARK VINA RESULT:      -6.8      2.573      4.586
REMARK  Name = 
REMARK  9 active torsions:
REMARK  status: ('A' for Active; 'I' for Inactive)
REMARK    1  A    between atoms: C_2  and  O_3
REMARK    2  A    between atoms: O_3  and  C_4
REMARK    3  A    between atoms: C_4  and  C_6
REMARK    4  A    between atoms: C_6  and  C_7
REMARK    5  A    between atoms: C_7  and  C_9
REMARK    6  A    between atoms: C_9  and  C_10
REMARK    7  A    between atoms: C_10  and  C_12
REMARK    8  A    between atoms: C_13  and  C_14
REMARK    9  A    between atoms: C_15  and  C_16
REMARK                            x       y       z     vdW  Elec       q    Type
REMARK                         _______ _______ _______ _____ _____    ______ ____
ROOT
ATOM      1  C   UNL     1      36.500   0.716  14.941  0.00  0.00    +0.000 A 
ATOM      2  C   UNL     1      37.255  -0.349  15.425  0.00  0.00    +0.000 A 
ATOM      3  C   UNL     1      36.969  -0.536  16.762  0.00  0.00    +0.000 A 
ATOM      4  C   UNL     1      37.471  -1.461  17.645  0.00  0.00    +0.000 A 
ATOM      5  C   UNL     1      38.405  -2.364  17.182  0.00  0.00    +0.000 A 
ATOM      6  C   UNL     1      38.902  -3.287  18.079  0.00  0.00    +0.000 A 
ATOM      7  C   UNL     1      38.469  -3.293  19.389  0.00  0.00    +0.000 A 
ATOM      8  C   UNL     1      37.533  -2.371  19.811  0.00  0.00    +0.000 A 
ATOM      9  C   UNL     1      37.029  -1.447  18.932  0.00  0.00    +0.000 A 
ATOM     10  C   UNL     1      36.093  -0.497  19.281  0.00  0.00    +0.000 A 
ATOM     11  C   UNL     1      35.600   0.424  18.384  0.00  0.00    +0.000 A 
ATOM     12  N   UNL     1      36.055   0.395  17.098  0.00  0.00    +0.000 N 
ATOM     13  C   UNL     1      35.763   1.149  16.028  0.00  0.00    +0.000 A 
ATOM     14  C   UNL     1      34.813   2.284  15.944  0.00  0.00    +0.000 C 
ENDROOT
BRANCH   2  15
ATOM     15  C   UNL     1      38.212  -1.154  14.640  0.00  0.00    +0.000 A 
ATOM     16  C   UNL     1      39.566  -0.925  14.674  0.00  0.00    +0.000 A 
ATOM     17  C   UNL     1      40.505  -1.628  13.977  0.00  0.00    +0.000 A 
ATOM     18  C   UNL     1      40.112  -2.662  13.158  0.00  0.00    +0.000 A 
ATOM     19  C   UNL     1      38.766  -2.933  13.089  0.00  0.00    +0.000 A 
ATOM     20  C   UNL     1      37.841  -2.193  13.816  0.00  0.00    +0.000 A 
ENDBRANCH   2  15
BRANCH   1  22
ATOM     21  C   UNL     1      37.015   1.503  12.577  0.00  0.00    +0.000 C 
ATOM     22  C   UNL     1      36.603   1.115  13.606  0.00  0.00    +0.000 C 
BRANCH  21  23
ATOM     23  C   UNL     1      38.445   1.994  12.057  0.00  0.00    +0.000 C 
ATOM     24  O   UNL     1      37.884   3.115  11.226  0.00  0.00    +0.000 OA
BRANCH  23  25
ATOM     25  C   UNL     1      38.457   0.917  10.825  0.00  0.00    +0.000 C 
BRANCH  25  26
ATOM     26  C   UNL     1      39.972   0.374  11.012  0.00  0.00    +0.000 C 
ATOM     27  O   UNL     1      40.611   1.582  10.385  0.00  0.00    +0.000 OA
BRANCH  26  28
ATOM     28  C   UNL     1      39.960  -0.520   9.659  0.00  0.00    +0.000 C 
BRANCH  28  29
ATOM     29  C   UNL     1      40.843  -1.627   9.716  0.00  0.00    +0.000 C 
ATOM     30  O   UNL     1      40.362  -2.810   9.663  0.00  0.00    +0.000 OA
BRANCH  29  31
ATOM     31  O   UNL     1      42.204  -1.556   9.825  0.00  0.00    +0.000 OA
BRANCH  31  33
ATOM     32  C   UNL     1      43.475  -1.451  11.799  0.00  0.00    +0.000 C 
ATOM     33  C   UNL     1      43.011  -2.367  10.659  0.00  0.00    +0.000 C 
ENDBRANCH  31  33
ENDBRANCH  29  31
ENDBRANCH  28  29
ENDBRANCH  26  28
ENDBRANCH  25  26
ENDBRANCH  23  25
ENDBRANCH  21  23
ENDBRANCH   1  22
TORSDOF 9
ENDMDL
MODEL 5
REMARK VINA RESULT:      -6.7      2.230      4.526
REMARK  Name = 
REMARK  9 active torsions:
REMARK  status: ('A' for Active; 'I' for Inactive)
REMARK    1  A    between atoms: C_2  and  O_3
REMARK    2  A    between atoms: O_3  and  C_4
REMARK    3  A    between atoms: C_4  and  C_6
REMARK    4  A    between atoms: C_6  and  C_7
REMARK    5  A    between atoms: C_7  and  C_9
REMARK    6  A    between atoms: C_9  and  C_10
REMARK    7  A    between atoms: C_10  and  C_12
REMARK    8  A    between atoms: C_13  and  C_14
REMARK    9  A    between atoms: C_15  and  C_16
REMARK                            x       y       z     vdW  Elec       q    Type
REMARK                         _______ _______ _______ _____ _____    ______ ____
ROOT
ATOM      1  C   UNL     1      39.730   1.917  13.881  0.00  0.00    +0.000 A 
ATOM      2  C   UNL     1      38.769   1.204  14.592  0.00  0.00    +0.000 A 
ATOM      3  C   UNL     1      39.241  -0.068  14.843  0.00  0.00    +0.000 A 
ATOM      4  C   UNL     1      38.641  -1.111  15.506  0.00  0.00    +0.000 A 
ATOM      5  C   UNL     1      37.377  -0.915  16.021  0.00  0.00    +0.000 A 
ATOM      6  C   UNL     1      36.786  -1.971  16.684  0.00  0.00    +0.000 A 
ATOM      7  C   UNL     1      37.451  -3.173  16.819  0.00  0.00    +0.000 A 
ATOM      8  C   UNL     1      38.714  -3.326  16.288  0.00  0.00    +0.000 A 
ATOM      9  C   UNL     1      39.316  -2.287  15.626  0.00  0.00    +0.000 A 
ATOM     10  C   UNL     1      40.576  -2.366  15.070  0.00  0.00    +0.000 A 
ATOM     11  C   UNL     1      41.162  -1.311  14.408  0.00  0.00    +0.000 A 
ATOM     12  N   UNL     1      40.470  -0.140  14.297  0.00  0.00    +0.000 N 
ATOM     13  C   UNL     1      40.779   1.031  13.721  0.00  0.00    +0.000 A 
ATOM     14  C   UNL     1      42.027   1.394  13.007  0.00  0.00    +0.000 C 
ENDROOT
BRANCH   2  15
ATOM     15  C   UNL     1      37.451   1.720  15.014  0.00  0.00    +0.000 A 
ATOM     16  C   UNL     1      36.343   1.655  14.205  0.00  0.00    +0.000 A 
ATOM     17  C   UNL     1      35.098   2.109  14.529  0.00  0.00    +0.000 A 
ATOM     18  C   UNL     1      34.885   2.690  15.758  0.00  0.00    +0.000 A 
ATOM     19  C   UNL     1      35.962   2.779  16.607  0.00  0.00    +0.000 A 
ATOM     20  C   UNL     1      37.215   2.303  16.239  0.00  0.00    +0.000 A 
ENDBRANCH   2  15
BRANCH   1  22
ATOM     21  C   UNL     1      39.199   4.377  13.504  0.00  0.00    +0.000 C 
ATOM     22  C   UNL     1      39.500   3.242  13.499  0.00  0.00    +0.000 C 
BRANCH  21  23
ATOM     23  C   UNL     1      38.592   5.370  14.599  0.00  0.00    +0.000 C 
ATOM     24  O   UNL     1      39.306   6.579  14.062  0.00  0.00    +0.000 OA
BRANCH  23  25
ATOM     25  C   UNL     1      39.757   5.009  15.690  0.00  0.00    +0.000 C 
BRANCH  25  26
ATOM     26  C   UNL     1      39.577   6.301  16.650  0.00  0.00    +0.000 C 
ATOM     27  O   UNL     1      41.053   6.553  16.791  0.00  0.00    +0.000 OA
BRANCH  26  28
ATOM     28  C   UNL     1      39.433   5.434  18.013  0.00  0.00    +0.000 C 
BRANCH  28  29
ATOM     29  C   UNL     1      39.593   6.212  19.187  0.00  0.00    +0.000 C 
ATOM     30  O   UNL     1      38.734   7.121  19.452  0.00  0.00    +0.000 OA
BRANCH  29  31
ATOM     31  O   UNL     1      40.606   6.085  20.096  0.00  0.00    +0.000 OA
BRANCH  31  33
ATOM     32  C   UNL     1      42.750   6.087  21.059  0.00  0.00    +0.000 C 
ATOM     33  C   UNL     1      41.804   6.837  20.111  0.00  0.00    +0.000 C 
ENDBRANCH  31  33
ENDBRANCH  29  31
ENDBRANCH  28  29
ENDBRANCH  26  28
ENDBRANCH  25  26
ENDBRANCH  23  25
ENDBRANCH  21  23
ENDBRANCH   1  22
TORSDOF 9
ENDMDL
MODEL 6
REMARK VINA RESULT:      -6.6     27.083     31.221
REMARK  Name = 
REMARK  9 active torsions:
REMARK  status: ('A' for Active; 'I' for Inactive)
REMARK    1  A    between atoms: C_2  and  O_3
REMARK    2  A    between atoms: O_3  and  C_4
REMARK    3  A    between atoms: C_4  and  C_6
REMARK    4  A    between atoms: C_6  and  C_7
REMARK    5  A    between atoms: C_7  and  C_9
REMARK    6  A    between atoms: C_9  and  C_10
REMARK    7  A    between atoms: C_10  and  C_12
REMARK    8  A    between atoms: C_13  and  C_14
REMARK    9  A    between atoms: C_15  and  C_16
REMARK                            x       y       z     vdW  Elec       q    Type
REMARK                         _______ _______ _______ _____ _____    ______ ____
ROOT
ATOM      1  C   UNL     1      24.727  19.015  37.100  0.00  0.00    +0.000 A 
ATOM      2  C   UNL     1      25.067  17.735  36.670  0.00  0.00    +0.000 A 
ATOM      3  C   UNL     1      24.919  17.664  35.300  0.00  0.00    +0.000 A 
ATOM      4  C   UNL     1      25.137  16.607  34.449  0.00  0.00    +0.000 A 
ATOM      5  C   UNL     1      25.569  15.414  34.988  0.00  0.00    +0.000 A 
ATOM      6  C   UNL     1      25.783  14.360  34.122  0.00  0.00    +0.000 A 
ATOM      7  C   UNL     1      25.569  14.514  32.767  0.00  0.00    +0.000 A 
ATOM      8  C   UNL     1      25.136  15.725  32.270  0.00  0.00    +0.000 A 
ATOM      9  C   UNL     1      24.918  16.782  33.116  0.00  0.00    +0.000 A 
ATOM     10  C   UNL     1      24.487  18.022  32.692  0.00  0.00    +0.000 A 
ATOM     11  C   UNL     1      24.273  19.069  33.559  0.00  0.00    +0.000 A 
ATOM     12  N   UNL     1      24.497  18.875  34.891  0.00  0.00    +0.000 N 
ATOM     13  C   UNL     1      24.378  19.693  35.947  0.00  0.00    +0.000 A 
ATOM     14  C   UNL     1      23.945  21.111  35.957  0.00  0.00    +0.000 C 
ENDROOT
BRANCH   2  15
ATOM     15  C   UNL     1      25.513  16.625  37.536  0.00  0.00    +0.000 A 
ATOM     16  C   UNL     1      24.632  15.743  38.111  0.00  0.00    +0.000 A 
ATOM     17  C   UNL     1      24.974  14.697  38.919  0.00  0.00    +0.000 A 
ATOM     18  C   UNL     1      26.299  14.467  39.211  0.00  0.00    +0.000 A 
ATOM     19  C   UNL     1      27.222  15.323  38.659  0.00  0.00    +0.000 A 
ATOM     20  C   UNL     1      26.833  16.377  37.840  0.00  0.00    +0.000 A 
ENDBRANCH   2  15
BRANCH   1  22
ATOM     21  C   UNL     1      24.521  19.523  39.584  0.00  0.00    +0.000 C 
ATOM     22  C   UNL     1      24.791  19.354  38.454  0.00  0.00    +0.000 C 
BRANCH  21  23
ATOM     23  C   UNL     1      23.217  19.273  40.473  0.00  0.00    +0.000 C 
ATOM     24  O   UNL     1      23.663  20.180  41.587  0.00  0.00    +0.000 OA
BRANCH  23  25
ATOM     25  C   UNL     1      23.841  17.922  41.154  0.00  0.00    +0.000 C 
BRANCH  25  26
ATOM     26  C   UNL     1      22.579  16.936  40.903  0.00  0.00    +0.000 C 
ATOM     27  O   UNL     1      21.559  17.915  41.414  0.00  0.00    +0.000 OA
BRANCH  26  28
ATOM     28  C   UNL     1      22.752  16.139  42.305  0.00  0.00    +0.000 C 
BRANCH  28  29
ATOM     29  C   UNL     1      22.466  14.756  42.197  0.00  0.00    +0.000 C 
ATOM     30  O   UNL     1      23.285  13.910  42.694  0.00  0.00    +0.000 OA
BRANCH  29  31
ATOM     31  O   UNL     1      21.364  14.214  41.596  0.00  0.00    +0.000 OA
BRANCH  31  33
ATOM     32  C   UNL     1      19.893  12.465  42.146  0.00  0.00    +0.000 C 
ATOM     33  C   UNL     1      20.113  13.983  42.214  0.00  0.00    +0.000 C 
ENDBRANCH  31  33
ENDBRANCH  29  31
ENDBRANCH  28  29
ENDBRANCH  26  28
ENDBRANCH  25  26
ENDBRANCH  23  25
ENDBRANCH  21  23
ENDBRANCH   1  22
TORSDOF 9
ENDMDL
MODEL 7
REMARK VINA RESULT:      -6.6      3.760      6.131
REMARK  Name = 
REMARK  9 active torsions:
REMARK  status: ('A' for Active; 'I' for Inactive)
REMARK    1  A    between atoms: C_2  and  O_3
REMARK    2  A    between atoms: O_3  and  C_4
REMARK    3  A    between atoms: C_4  and  C_6
REMARK    4  A    between atoms: C_6  and  C_7
REMARK    5  A    between atoms: C_7  and  C_9
REMARK    6  A    between atoms: C_9  and  C_10
REMARK    7  A    between atoms: C_10  and  C_12
REMARK    8  A    between atoms: C_13  and  C_14
REMARK    9  A    between atoms: C_15  and  C_16
REMARK                            x       y       z     vdW  Elec       q    Type
REMARK                         _______ _______ _______ _____ _____    ______ ____
ROOT
ATOM      1  C   UNL     1      39.181  -2.088  15.697  0.00  0.00    +0.000 A 
ATOM      2  C   UNL     1      38.515  -0.958  15.230  0.00  0.00    +0.000 A 
ATOM      3  C   UNL     1      37.463  -0.671  16.076  0.00  0.00    +0.000 A 
ATOM      4  C   UNL     1      36.539   0.344  16.011  0.00  0.00    +0.000 A 
ATOM      5  C   UNL     1      36.625   1.239  14.966  0.00  0.00    +0.000 A 
ATOM      6  C   UNL     1      35.690   2.253  14.913  0.00  0.00    +0.000 A 
ATOM      7  C   UNL     1      34.711   2.352  15.880  0.00  0.00    +0.000 A 
ATOM      8  C   UNL     1      34.659   1.434  16.908  0.00  0.00    +0.000 A 
ATOM      9  C   UNL     1      35.581   0.421  16.976  0.00  0.00    +0.000 A 
ATOM     10  C   UNL     1      35.593  -0.532  17.973  0.00  0.00    +0.000 A 
ATOM     11  C   UNL     1      36.527  -1.542  18.022  0.00  0.00    +0.000 A 
ATOM     12  N   UNL     1      37.479  -1.604  17.046  0.00  0.00    +0.000 N 
ATOM     13  C   UNL     1      38.494  -2.456  16.839  0.00  0.00    +0.000 A 
ATOM     14  C   UNL     1      38.881  -3.629  17.658  0.00  0.00    +0.000 C 
ENDROOT
BRANCH   2  15
ATOM     15  C   UNL     1      38.870  -0.186  14.022  0.00  0.00    +0.000 A 
ATOM     16  C   UNL     1      38.396  -0.512  12.776  0.00  0.00    +0.000 A 
ATOM     17  C   UNL     1      38.681   0.155  11.621  0.00  0.00    +0.000 A 
ATOM     18  C   UNL     1      39.510   1.253  11.656  0.00  0.00    +0.000 A 
ATOM     19  C   UNL     1      40.012   1.622  12.881  0.00  0.00    +0.000 A 
ATOM     20  C   UNL     1      39.696   0.916  14.036  0.00  0.00    +0.000 A 
ENDBRANCH   2  15
BRANCH   1  22
ATOM     21  C   UNL     1      41.248  -2.692  14.342  0.00  0.00    +0.000 C 
ATOM     22  C   UNL     1      40.292  -2.594  15.017  0.00  0.00    +0.000 C 
BRANCH  21  23
ATOM     23  C   UNL     1      42.094  -1.676  13.444  0.00  0.00    +0.000 C 
ATOM     24  O   UNL     1      41.518  -2.169  12.144  0.00  0.00    +0.000 OA
BRANCH  23  25
ATOM     25  C   UNL     1      43.390  -2.673  13.393  0.00  0.00    +0.000 C 
BRANCH  25  26
ATOM     26  C   UNL     1      44.550  -1.543  13.453  0.00  0.00    +0.000 C 
ATOM     27  O   UNL     1      45.659  -2.522  13.716  0.00  0.00    +0.000 OA
BRANCH  26  28
ATOM     28  C   UNL     1      44.292  -1.171  15.010  0.00  0.00    +0.000 C 
BRANCH  28  29
ATOM     29  C   UNL     1      45.228  -0.237  15.520  0.00  0.00    +0.000 C 
ATOM     30  O   UNL     1      45.670   0.683  14.752  0.00  0.00    +0.000 OA
BRANCH  29  31
ATOM     31  O   UNL     1      45.723  -0.219  16.795  0.00  0.00    +0.000 OA
BRANCH  31  33
ATOM     32  C   UNL     1      47.413  -1.840  16.998  0.00  0.00    +0.000 C 
ATOM     33  C   UNL     1      46.072  -1.354  17.564  0.00  0.00    +0.000 C 
ENDBRANCH  31  33
ENDBRANCH  29  31
ENDBRANCH  28  29
ENDBRANCH  26  28
ENDBRANCH  25  26
ENDBRANCH  23  25
ENDBRANCH  21  23
ENDBRANCH   1  22
TORSDOF 9
ENDMDL
MODEL 8
REMARK VINA RESULT:      -6.5      3.603      5.943
REMARK  Name = 
REMARK  9 active torsions:
REMARK  status: ('A' for Active; 'I' for Inactive)
REMARK    1  A    between atoms: C_2  and  O_3
REMARK    2  A    between atoms: O_3  and  C_4
REMARK    3  A    between atoms: C_4  and  C_6
REMARK    4  A    between atoms: C_6  and  C_7
REMARK    5  A    between atoms: C_7  and  C_9
REMARK    6  A    between atoms: C_9  and  C_10
REMARK    7  A    between atoms: C_10  and  C_12
REMARK    8  A    between atoms: C_13  and  C_14
REMARK    9  A    between atoms: C_15  and  C_16
REMARK                            x       y       z     vdW  Elec       q    Type
REMARK                         _______ _______ _______ _____ _____    ______ ____
ROOT
ATOM      1  C   UNL     1      39.170  -2.052  15.739  0.00  0.00    +0.000 A 
ATOM      2  C   UNL     1      38.529  -0.928  15.226  0.00  0.00    +0.000 A 
ATOM      3  C   UNL     1      37.479  -0.588  16.054  0.00  0.00    +0.000 A 
ATOM      4  C   UNL     1      36.575   0.441  15.946  0.00  0.00    +0.000 A 
ATOM      5  C   UNL     1      36.685   1.294  14.868  0.00  0.00    +0.000 A 
ATOM      6  C   UNL     1      35.770   2.324  14.771  0.00  0.00    +0.000 A 
ATOM      7  C   UNL     1      34.788   2.479  15.727  0.00  0.00    +0.000 A 
ATOM      8  C   UNL     1      34.713   1.602  16.789  0.00  0.00    +0.000 A 
ATOM      9  C   UNL     1      35.614   0.573  16.901  0.00  0.00    +0.000 A 
ATOM     10  C   UNL     1      35.602  -0.341  17.933  0.00  0.00    +0.000 A 
ATOM     11  C   UNL     1      36.515  -1.367  18.026  0.00  0.00    +0.000 A 
ATOM     12  N   UNL     1      37.471  -1.484  17.059  0.00  0.00    +0.000 N 
ATOM     13  C   UNL     1      38.470  -2.363  16.890  0.00  0.00    +0.000 A 
ATOM     14  C   UNL     1      38.830  -3.512  17.756  0.00  0.00    +0.000 C 
ENDROOT
BRANCH   2  15
ATOM     15  C   UNL     1      38.906  -0.209  13.992  0.00  0.00    +0.000 A 
ATOM     16  C   UNL     1      38.461  -0.596  12.752  0.00  0.00    +0.000 A 
ATOM     17  C   UNL     1      38.767   0.020  11.574  0.00  0.00    +0.000 A 
ATOM     18  C   UNL     1      39.589   1.124  11.577  0.00  0.00    +0.000 A 
ATOM     19  C   UNL     1      40.062   1.553  12.794  0.00  0.00    +0.000 A 
ATOM     20  C   UNL     1      39.725   0.898  13.973  0.00  0.00    +0.000 A 
ENDBRANCH   2  15
BRANCH   1  22
ATOM     21  C   UNL     1      41.217  -2.755  14.401  0.00  0.00    +0.000 C 
ATOM     22  C   UNL     1      40.275  -2.605  15.086  0.00  0.00    +0.000 C 
BRANCH  21  23
ATOM     23  C   UNL     1      42.025  -1.819  13.389  0.00  0.00    +0.000 C 
ATOM     24  O   UNL     1      43.103  -2.835  13.132  0.00  0.00    +0.000 OA
BRANCH  23  25
ATOM     25  C   UNL     1      42.839  -1.075  14.598  0.00  0.00    +0.000 C 
BRANCH  25  26
ATOM     26  C   UNL     1      44.343  -1.431  14.114  0.00  0.00    +0.000 C 
ATOM     27  O   UNL     1      44.801  -1.888  15.472  0.00  0.00    +0.000 OA
BRANCH  26  28
ATOM     28  C   UNL     1      44.893   0.087  14.262  0.00  0.00    +0.000 C 
BRANCH  28  29
ATOM     29  C   UNL     1      45.253   0.671  13.023  0.00  0.00    +0.000 C 
ATOM     30  O   UNL     1      45.411  -0.082  12.003  0.00  0.00    +0.000 OA
BRANCH  29  31
ATOM     31  O   UNL     1      45.456   2.004  12.798  0.00  0.00    +0.000 OA
BRANCH  31  33
ATOM     32  C   UNL     1      43.372   2.943  12.253  0.00  0.00    +0.000 C 
ATOM     33  C   UNL     1      44.827   2.780  11.796  0.00  0.00    +0.000 C 
ENDBRANCH  31  33
ENDBRANCH  29  31
ENDBRANCH  28  29
ENDBRANCH  26  28
ENDBRANCH  25  26
ENDBRANCH  23  25
ENDBRANCH  21  23
ENDBRANCH   1  22
TORSDOF 9
ENDMDL
MODEL 9
REMARK VINA RESULT:      -6.5      3.528      6.628
REMARK  Name = 
REMARK  9 active torsions:
REMARK  status: ('A' for Active; 'I' for Inactive)
REMARK    1  A    between atoms: C_2  and  O_3
REMARK    2  A    between atoms: O_3  and  C_4
REMARK    3  A    between atoms: C_4  and  C_6
REMARK    4  A    between atoms: C_6  and  C_7
REMARK    5  A    between atoms: C_7  and  C_9
REMARK    6  A    between atoms: C_9  and  C_10
REMARK    7  A    between atoms: C_10  and  C_12
REMARK    8  A    between atoms: C_13  and  C_14
REMARK    9  A    between atoms: C_15  and  C_16
REMARK                            x       y       z     vdW  Elec       q    Type
REMARK                         _______ _______ _______ _____ _____    ______ ____
ROOT
ATOM      1  C   UNL     1      39.280  -1.766  15.683  0.00  0.00    +0.000 A 
ATOM      2  C   UNL     1      38.631  -0.613  15.254  0.00  0.00    +0.000 A 
ATOM      3  C   UNL     1      37.508  -0.410  16.030  0.00  0.00    +0.000 A 
ATOM      4  C   UNL     1      36.570   0.593  15.970  0.00  0.00    +0.000 A 
ATOM      5  C   UNL     1      36.723   1.572  15.010  0.00  0.00    +0.000 A 
ATOM      6  C   UNL     1      35.774   2.573  14.961  0.00  0.00    +0.000 A 
ATOM      7  C   UNL     1      34.717   2.579  15.848  0.00  0.00    +0.000 A 
ATOM      8  C   UNL     1      34.601   1.580  16.792  0.00  0.00    +0.000 A 
ATOM      9  C   UNL     1      35.536   0.578  16.855  0.00  0.00    +0.000 A 
ATOM     10  C   UNL     1      35.487  -0.452  17.770  0.00  0.00    +0.000 A 
ATOM     11  C   UNL     1      36.435  -1.449  17.816  0.00  0.00    +0.000 A 
ATOM     12  N   UNL     1      37.464  -1.418  16.921  0.00  0.00    +0.000 N 
ATOM     13  C   UNL     1      38.510  -2.235  16.732  0.00  0.00    +0.000 A 
ATOM     14  C   UNL     1      38.854  -3.466  17.484  0.00  0.00    +0.000 C 
ENDROOT
BRANCH   2  15
ATOM     15  C   UNL     1      39.066   0.260  14.146  0.00  0.00    +0.000 A 
ATOM     16  C   UNL     1      39.997   1.255  14.316  0.00  0.00    +0.000 A 
ATOM     17  C   UNL     1      40.445   2.096  13.340  0.00  0.00    +0.000 A 
ATOM     18  C   UNL     1      39.952   1.977  12.061  0.00  0.00    +0.000 A 
ATOM     19  C   UNL     1      39.017   0.995  11.836  0.00  0.00    +0.000 A 
ATOM     20  C   UNL     1      38.587   0.158  12.858  0.00  0.00    +0.000 A 
ENDBRANCH   2  15
BRANCH   1  22
ATOM     21  C   UNL     1      41.237  -2.550  14.259  0.00  0.00    +0.000 C 
ATOM     22  C   UNL     1      40.454  -2.199  15.060  0.00  0.00    +0.000 C 
BRANCH  21  23
ATOM     23  C   UNL     1      41.193  -2.790  12.680  0.00  0.00    +0.000 C 
ATOM     24  O   UNL     1      42.477  -3.573  12.649  0.00  0.00    +0.000 OA
BRANCH  23  25
ATOM     25  C   UNL     1      41.912  -1.356  12.359  0.00  0.00    +0.000 C 
BRANCH  25  26
ATOM     26  C   UNL     1      42.333  -1.649  10.823  0.00  0.00    +0.000 C 
ATOM     27  O   UNL     1      42.632  -0.211  10.503  0.00  0.00    +0.000 OA
BRANCH  26  28
ATOM     28  C   UNL     1      40.811  -1.624  10.262  0.00  0.00    +0.000 C 
BRANCH  28  29
ATOM     29  C   UNL     1      40.662  -2.307   9.029  0.00  0.00    +0.000 C 
ATOM     30  O   UNL     1      41.005  -3.535   8.953  0.00  0.00    +0.000 OA
BRANCH  29  31
ATOM     31  O   UNL     1      40.170  -1.767   7.873  0.00  0.00    +0.000 OA
BRANCH  31  33
ATOM     32  C   UNL     1      40.679   0.474   7.378  0.00  0.00    +0.000 C 
ATOM     33  C   UNL     1      40.900  -0.983   6.949  0.00  0.00    +0.000 C 
ENDBRANCH  31  33
ENDBRANCH  29  31
ENDBRANCH  28  29
ENDBRANCH  26  28
ENDBRANCH  25  26
ENDBRANCH  23  25
ENDBRANCH  21  23
ENDBRANCH   1  22
TORSDOF 9
ENDMDL
MODEL 10
REMARK VINA RESULT:      -6.5      2.908      4.621
REMARK  Name = 
REMARK  9 active torsions:
REMARK  status: ('A' for Active; 'I' for Inactive)
REMARK    1  A    between atoms: C_2  and  O_3
REMARK    2  A    between atoms: O_3  and  C_4
REMARK    3  A    between atoms: C_4  and  C_6
REMARK    4  A    between atoms: C_6  and  C_7
REMARK    5  A    between atoms: C_7  and  C_9
REMARK    6  A    between atoms: C_9  and  C_10
REMARK    7  A    between atoms: C_10  and  C_12
REMARK    8  A    between atoms: C_13  and  C_14
REMARK    9  A    between atoms: C_15  and  C_16
REMARK                            x       y       z     vdW  Elec       q    Type
REMARK                         _______ _______ _______ _____ _____    ______ ____
ROOT
ATOM      1  C   UNL     1      38.646   2.047  14.627  0.00  0.00    +0.000 A 
ATOM      2  C   UNL     1      38.196   0.742  14.805  0.00  0.00    +0.000 A 
ATOM      3  C   UNL     1      37.032   0.761  15.547  0.00  0.00    +0.000 A 
ATOM      4  C   UNL     1      36.242  -0.282  15.965  0.00  0.00    +0.000 A 
ATOM      5  C   UNL     1      36.618  -1.564  15.621  0.00  0.00    +0.000 A 
ATOM      6  C   UNL     1      35.815  -2.602  16.048  0.00  0.00    +0.000 A 
ATOM      7  C   UNL     1      34.680  -2.350  16.790  0.00  0.00    +0.000 A 
ATOM      8  C   UNL     1      34.340  -1.052  17.113  0.00  0.00    +0.000 A 
ATOM      9  C   UNL     1      35.127  -0.008  16.697  0.00  0.00    +0.000 A 
ATOM     10  C   UNL     1      34.851   1.313  16.980  0.00  0.00    +0.000 A 
ATOM     11  C   UNL     1      35.655   2.346  16.554  0.00  0.00    +0.000 A 
ATOM     12  N   UNL     1      36.768   2.053  15.822  0.00  0.00    +0.000 N 
ATOM     13  C   UNL     1      37.716   2.833  15.283  0.00  0.00    +0.000 A 
ATOM     14  C   UNL     1      37.820   4.311  15.337  0.00  0.00    +0.000 C 
ENDROOT
BRANCH   2  15
ATOM     15  C   UNL     1      38.854  -0.475  14.288  0.00  0.00    +0.000 A 
ATOM     16  C   UNL     1      39.857  -1.115  14.973  0.00  0.00    +0.000 A 
ATOM     17  C   UNL     1      40.507  -2.240  14.556  0.00  0.00    +0.000 A 
ATOM     18  C   UNL     1      40.164  -2.818  13.355  0.00  0.00    +0.000 A 
ATOM     19  C   UNL     1      39.164  -2.215  12.630  0.00  0.00    +0.000 A 
ATOM     20  C   UNL     1      38.526  -1.070  13.090  0.00  0.00    +0.000 A 
ENDBRANCH   2  15
BRANCH   1  22
ATOM     21  C   UNL     1      40.587   2.460  13.035  0.00  0.00    +0.000 C 
ATOM     22  C   UNL     1      39.814   2.308  13.906  0.00  0.00    +0.000 C 
BRANCH  21  23
ATOM     23  C   UNL     1      40.513   2.358  11.442  0.00  0.00    +0.000 C 
ATOM     24  O   UNL     1      39.071   1.930  11.423  0.00  0.00    +0.000 OA
BRANCH  23  25
ATOM     25  C   UNL     1      41.098   0.829  11.432  0.00  0.00    +0.000 C 
BRANCH  25  26
ATOM     26  C   UNL     1      42.628   1.168  11.841  0.00  0.00    +0.000 C 
ATOM     27  O   UNL     1      43.206   0.718  10.528  0.00  0.00    +0.000 OA
BRANCH  26  28
ATOM     28  C   UNL     1      42.873  -0.237  12.612  0.00  0.00    +0.000 C 
BRANCH  28  29
ATOM     29  C   UNL     1      43.743  -0.117  13.724  0.00  0.00    +0.000 C 
ATOM     30  O   UNL     1      44.463   0.933  13.839  0.00  0.00    +0.000 OA
BRANCH  29  31
ATOM     31  O   UNL     1      43.896  -1.040  14.721  0.00  0.00    +0.000 OA
BRANCH  31  33
ATOM     32  C   UNL     1      45.588  -1.911  16.102  0.00  0.00    +0.000 C 
ATOM     33  C   UNL     1      44.868  -2.068  14.755  0.00  0.00    +0.000 C 
ENDBRANCH  31  33
ENDBRANCH  29  31
ENDBRANCH  28  29
ENDBRANCH  26  28
ENDBRANCH  25  26
ENDBRANCH  23  25
ENDBRANCH  21  23
ENDBRANCH   1  22
TORSDOF 9
ENDMDL
