MODEL 1
REMARK VINA RESULT:      -8.5      0.000      0.000
REMARK  Name = 
REMARK  8 active torsions:
REMARK  status: ('A' for Active; 'I' for Inactive)
REMARK    1  A    between atoms: C_2  and  C_3
REMARK    2  A    between atoms: C_7  and  C_8
REMARK    3  A    between atoms: C_10  and  N_11
REMARK    4  A    between atoms: C_12  and  C_14
REMARK    5  A    between atoms: C_14  and  O_16
REMARK    6  A    between atoms: O_16  and  C_17
REMARK    7  A    between atoms: C_17  and  C_19
REMARK    8  A    between atoms: C_22  and  C_23
REMARK                            x       y       z     vdW  Elec       q    Type
REMARK                         _______ _______ _______ _____ _____    ______ ____
ROOT
ATOM      1  C   UNL     1      38.016   2.726  14.525  0.00  0.00    +0.000 C 
ATOM      2  C   UNL     1      39.401   1.802  14.649  0.00  0.00    +0.000 C 
ENDROOT
BRANCH   1   4
ATOM      3  N   UNL     1      37.301   0.456  15.580  0.00  0.00    +0.000 NA
ATOM      4  C   UNL     1      37.022   1.523  14.742  0.00  0.00    +0.000 C 
ATOM      5  O   UNL     1      35.961   1.588  14.110  0.00  0.00    +0.000 OA
BRANCH   3  11
ATOM      6  C   UNL     1      35.570  -0.600  16.859  0.00  0.00    +0.000 A 
ATOM      7  C   UNL     1      34.706  -1.680  17.105  0.00  0.00    +0.000 A 
ATOM      8  C   UNL     1      34.737  -2.784  16.282  0.00  0.00    +0.000 A 
ATOM      9  C   UNL     1      35.603  -2.821  15.237  0.00  0.00    +0.000 A 
ATOM     10  C   UNL     1      36.454  -1.743  15.005  0.00  0.00    +0.000 A 
ATOM     11  C   UNL     1      36.450  -0.632  15.803  0.00  0.00    +0.000 A 
BRANCH   6  13
ATOM     12  C   UNL     1      35.931   0.293  19.160  0.00  0.00    +0.000 C 
ATOM     13  C   UNL     1      35.466   0.521  17.781  0.00  0.00    +0.000 C 
ENDBRANCH   6  13
BRANCH  10  14
ATOM     14  C   UNL     1      37.366  -1.848  13.859  0.00  0.00    +0.000 C 
ATOM     15  C   UNL     1      37.787  -3.246  13.542  0.00  0.00    +0.000 C 
ENDBRANCH  10  14
ENDBRANCH   3  11
ENDBRANCH   1   4
BRANCH   1  16
ATOM     16  O   UNL     1      38.107   3.183  15.989  0.00  0.00    +0.000 OA
BRANCH  16  17
ATOM     17  C   UNL     1      38.171   4.559  16.178  0.00  0.00    +0.000 C 
ATOM     18  O   UNL     1      37.371   5.266  15.539  0.00  0.00    +0.000 OA
BRANCH  17  19
ATOM     19  C   UNL     1      39.125   5.182  17.078  0.00  0.00    +0.000 A 
ATOM     20  C   UNL     1      40.311   5.733  16.651  0.00  0.00    +0.000 A 
ATOM     21  C   UNL     1      41.178   6.314  17.567  0.00  0.00    +0.000 A 
ATOM     22  C   UNL     1      40.900   6.365  18.921  0.00  0.00    +0.000 A 
ATOM     23  C   UNL     1      39.720   5.814  19.337  0.00  0.00    +0.000 A 
ATOM     24  C   UNL     1      38.859   5.238  18.427  0.00  0.00    +0.000 A 
BRANCH  22  25
ATOM     25  C   UNL     1      41.852   6.991  19.846  0.00  0.00    +0.000 A 
ATOM     26  C   UNL     1      42.593   6.260  20.735  0.00  0.00    +0.000 A 
ATOM     27  C   UNL     1      43.496   6.812  21.619  0.00  0.00    +0.000 A 
ATOM     28  C   UNL     1      43.684   8.178  21.630  0.00  0.00    +0.000 A 
ATOM     29  C   UNL     1      42.942   8.933  20.737  0.00  0.00    +0.000 A 
ATOM     30  C   UNL     1      42.039   8.364  19.856  0.00  0.00    +0.000 A 
ENDBRANCH  22  25
ENDBRANCH  17  19
ENDBRANCH  16  17
ENDBRANCH   1  16
TORSDOF 8
ENDMDL
MODEL 2
REMARK VINA RESULT:      -8.4      1.894      2.848
REMARK  Name = 
REMARK  8 active torsions:
REMARK  status: ('A' for Active; 'I' for Inactive)
REMARK    1  A    between atoms: C_2  and  C_3
REMARK    2  A    between atoms: C_7  and  C_8
REMARK    3  A    between atoms: C_10  and  N_11
REMARK    4  A    between atoms: C_12  and  C_14
REMARK    5  A    between atoms: C_14  and  O_16
REMARK    6  A    between atoms: O_16  and  C_17
REMARK    7  A    between atoms: C_17  and  C_19
REMARK    8  A    between atoms: C_22  and  C_23
REMARK                            x       y       z     vdW  Elec       q    Type
REMARK                         _______ _______ _______ _____ _____    ______ ____
ROOT
ATOM      1  C   UNL     1      36.389   0.761  14.165  0.00  0.00    +0.000 C 
ATOM      2  C   UNL     1      37.138  -0.120  12.961  0.00  0.00    +0.000 C 
ENDROOT
BRANCH   1   4
ATOM      3  N   UNL     1      36.607  -1.024  16.047  0.00  0.00    +0.000 NA
ATOM      4  C   UNL     1      37.141   0.048  15.352  0.00  0.00    +0.000 C 
ATOM      5  O   UNL     1      38.254   0.510  15.631  0.00  0.00    +0.000 OA
BRANCH   3  11
ATOM      6  C   UNL     1      36.876  -1.394  18.401  0.00  0.00    +0.000 A 
ATOM      7  C   UNL     1      37.495  -2.044  19.482  0.00  0.00    +0.000 A 
ATOM      8  C   UNL     1      38.473  -2.984  19.248  0.00  0.00    +0.000 A 
ATOM      9  C   UNL     1      38.834  -3.278  17.972  0.00  0.00    +0.000 A 
ATOM     10  C   UNL     1      38.212  -2.626  16.910  0.00  0.00    +0.000 A 
ATOM     11  C   UNL     1      37.238  -1.687  17.106  0.00  0.00    +0.000 A 
BRANCH   6  13
ATOM     12  C   UNL     1      36.320   0.936  19.095  0.00  0.00    +0.000 C 
ATOM     13  C   UNL     1      35.855  -0.418  18.746  0.00  0.00    +0.000 C 
ENDBRANCH   6  13
BRANCH  10  14
ATOM     14  C   UNL     1      38.649  -2.990  15.556  0.00  0.00    +0.000 C 
ATOM     15  C   UNL     1      40.085  -2.684  15.277  0.00  0.00    +0.000 C 
ENDBRANCH  10  14
ENDBRANCH   3  11
ENDBRANCH   1   4
BRANCH   1  16
ATOM     16  O   UNL     1      37.353   1.945  13.994  0.00  0.00    +0.000 OA
BRANCH  16  17
ATOM     17  C   UNL     1      36.941   3.134  14.585  0.00  0.00    +0.000 C 
ATOM     18  O   UNL     1      35.829   3.586  14.257  0.00  0.00    +0.000 OA
BRANCH  17  19
ATOM     19  C   UNL     1      37.753   3.850  15.553  0.00  0.00    +0.000 A 
ATOM     20  C   UNL     1      37.489   3.846  16.903  0.00  0.00    +0.000 A 
ATOM     21  C   UNL     1      38.308   4.553  17.773  0.00  0.00    +0.000 A 
ATOM     22  C   UNL     1      39.402   5.279  17.338  0.00  0.00    +0.000 A 
ATOM     23  C   UNL     1      39.656   5.277  15.994  0.00  0.00    +0.000 A 
ATOM     24  C   UNL     1      38.843   4.575  15.130  0.00  0.00    +0.000 A 
BRANCH  22  25
ATOM     25  C   UNL     1      40.235   6.008  18.301  0.00  0.00    +0.000 A 
ATOM     26  C   UNL     1      39.764   6.390  19.528  0.00  0.00    +0.000 A 
ATOM     27  C   UNL     1      40.515   7.077  20.460  0.00  0.00    +0.000 A 
ATOM     28  C   UNL     1      41.820   7.409  20.165  0.00  0.00    +0.000 A 
ATOM     29  C   UNL     1      42.313   7.030  18.927  0.00  0.00    +0.000 A 
ATOM     30  C   UNL     1      41.546   6.342  18.003  0.00  0.00    +0.000 A 
ENDBRANCH  22  25
ENDBRANCH  17  19
ENDBRANCH  16  17
ENDBRANCH   1  16
TORSDOF 8
ENDMDL
MODEL 3
REMARK VINA RESULT:      -8.4      2.159      3.586
REMARK  Name = 
REMARK  8 active torsions:
REMARK  status: ('A' for Active; 'I' for Inactive)
REMARK    1  A    between atoms: C_2  and  C_3
REMARK    2  A    between atoms: C_7  and  C_8
REMARK    3  A    between atoms: C_10  and  N_11
REMARK    4  A    between atoms: C_12  and  C_14
REMARK    5  A    between atoms: C_14  and  O_16
REMARK    6  A    between atoms: O_16  and  C_17
REMARK    7  A    between atoms: C_17  and  C_19
REMARK    8  A    between atoms: C_22  and  C_23
REMARK                            x       y       z     vdW  Elec       q    Type
REMARK                         _______ _______ _______ _____ _____    ______ ____
ROOT
ATOM      1  C   UNL     1      39.215   0.879  13.750  0.00  0.00    +0.000 C 
ATOM      2  C   UNL     1      40.213  -0.310  14.363  0.00  0.00    +0.000 C 
ENDROOT
BRANCH   1   4
ATOM      3  N   UNL     1      37.743  -0.205  15.603  0.00  0.00    +0.000 NA
ATOM      4  C   UNL     1      37.882   0.244  14.300  0.00  0.00    +0.000 C 
ATOM      5  O   UNL     1      36.953   0.168  13.487  0.00  0.00    +0.000 OA
BRANCH   3  11
ATOM      6  C   UNL     1      36.384  -2.132  16.034  0.00  0.00    +0.000 A 
ATOM      7  C   UNL     1      35.225  -2.729  16.557  0.00  0.00    +0.000 A 
ATOM      8  C   UNL     1      34.273  -1.951  17.178  0.00  0.00    +0.000 A 
ATOM      9  C   UNL     1      34.462  -0.610  17.281  0.00  0.00    +0.000 A 
ATOM     10  C   UNL     1      35.616  -0.032  16.758  0.00  0.00    +0.000 A 
ATOM     11  C   UNL     1      36.580  -0.775  16.134  0.00  0.00    +0.000 A 
BRANCH   6  13
ATOM     12  C   UNL     1      37.038  -3.435  14.010  0.00  0.00    +0.000 C 
ATOM     13  C   UNL     1      37.331  -3.033  15.396  0.00  0.00    +0.000 C 
ENDBRANCH   6  13
BRANCH  10  14
ATOM     14  C   UNL     1      35.758   1.422  16.902  0.00  0.00    +0.000 C 
ATOM     15  C   UNL     1      34.956   2.213  15.919  0.00  0.00    +0.000 C 
ENDBRANCH  10  14
ENDBRANCH   3  11
ENDBRANCH   1   4
BRANCH   1  16
ATOM     16  O   UNL     1      39.496   1.820  14.931  0.00  0.00    +0.000 OA
BRANCH  16  17
ATOM     17  C   UNL     1      39.328   3.175  14.661  0.00  0.00    +0.000 C 
ATOM     18  O   UNL     1      39.374   3.535  13.471  0.00  0.00    +0.000 OA
BRANCH  17  19
ATOM     19  C   UNL     1      39.107   4.159  15.705  0.00  0.00    +0.000 A 
ATOM     20  C   UNL     1      38.240   3.959  16.754  0.00  0.00    +0.000 A 
ATOM     21  C   UNL     1      38.077   4.944  17.719  0.00  0.00    +0.000 A 
ATOM     22  C   UNL     1      38.759   6.147  17.674  0.00  0.00    +0.000 A 
ATOM     23  C   UNL     1      39.618   6.337  16.628  0.00  0.00    +0.000 A 
ATOM     24  C   UNL     1      39.781   5.358  15.670  0.00  0.00    +0.000 A 
BRANCH  22  25
ATOM     25  C   UNL     1      38.549   7.153  18.721  0.00  0.00    +0.000 A 
ATOM     26  C   UNL     1      37.586   8.121  18.619  0.00  0.00    +0.000 A 
ATOM     27  C   UNL     1      37.359   9.084  19.580  0.00  0.00    +0.000 A 
ATOM     28  C   UNL     1      38.133   9.095  20.722  0.00  0.00    +0.000 A 
ATOM     29  C   UNL     1      39.112   8.123  20.841  0.00  0.00    +0.000 A 
ATOM     30  C   UNL     1      39.328   7.164  19.868  0.00  0.00    +0.000 A 
ENDBRANCH  22  25
ENDBRANCH  17  19
ENDBRANCH  16  17
ENDBRANCH   1  16
TORSDOF 8
ENDMDL
MODEL 4
REMARK VINA RESULT:      -8.2      1.187      2.642
REMARK  Name = 
REMARK  8 active torsions:
REMARK  status: ('A' for Active; 'I' for Inactive)
REMARK    1  A    between atoms: C_2  and  C_3
REMARK    2  A    between atoms: C_7  and  C_8
REMARK    3  A    between atoms: C_10  and  N_11
REMARK    4  A    between atoms: C_12  and  C_14
REMARK    5  A    between atoms: C_14  and  O_16
REMARK    6  A    between atoms: O_16  and  C_17
REMARK    7  A    between atoms: C_17  and  C_19
REMARK    8  A    between atoms: C_22  and  C_23
REMARK                            x       y       z     vdW  Elec       q    Type
REMARK                         _______ _______ _______ _____ _____    ______ ____
ROOT
ATOM      1  C   UNL     1      37.764   2.540  14.473  0.00  0.00    +0.000 C 
ATOM      2  C   UNL     1      39.396   2.227  14.312  0.00  0.00    +0.000 C 
ENDROOT
BRANCH   1   4
ATOM      3  N   UNL     1      37.868   0.376  15.917  0.00  0.00    +0.000 NA
ATOM      4  C   UNL     1      37.367   1.055  14.818  0.00  0.00    +0.000 C 
ATOM      5  O   UNL     1      36.569   0.523  14.037  0.00  0.00    +0.000 OA
BRANCH   3  11
ATOM      6  C   UNL     1      38.326  -1.974  15.798  0.00  0.00    +0.000 A 
ATOM      7  C   UNL     1      38.022  -3.306  16.127  0.00  0.00    +0.000 A 
ATOM      8  C   UNL     1      36.931  -3.584  16.921  0.00  0.00    +0.000 A 
ATOM      9  C   UNL     1      36.156  -2.568  17.380  0.00  0.00    +0.000 A 
ATOM     10  C   UNL     1      36.470  -1.253  17.046  0.00  0.00    +0.000 A 
ATOM     11  C   UNL     1      37.544  -0.941  16.260  0.00  0.00    +0.000 A 
BRANCH   6  13
ATOM     12  C   UNL     1      40.603  -2.735  15.123  0.00  0.00    +0.000 C 
ATOM     13  C   UNL     1      39.496  -1.778  14.956  0.00  0.00    +0.000 C 
ENDBRANCH   6  13
BRANCH  10  14
ATOM     14  C   UNL     1      35.591  -0.203  17.576  0.00  0.00    +0.000 C 
ATOM     15  C   UNL     1      35.596  -0.098  19.067  0.00  0.00    +0.000 C 
ENDBRANCH  10  14
ENDBRANCH   3  11
ENDBRANCH   1   4
BRANCH   1  16
ATOM     16  O   UNL     1      37.933   3.046  15.914  0.00  0.00    +0.000 OA
BRANCH  16  17
ATOM     17  C   UNL     1      38.012   4.428  16.052  0.00  0.00    +0.000 C 
ATOM     18  O   UNL     1      37.223   5.119  15.381  0.00  0.00    +0.000 OA
BRANCH  17  19
ATOM     19  C   UNL     1      38.966   5.074  16.934  0.00  0.00    +0.000 A 
ATOM     20  C   UNL     1      40.120   5.672  16.483  0.00  0.00    +0.000 A 
ATOM     21  C   UNL     1      40.989   6.272  17.384  0.00  0.00    +0.000 A 
ATOM     22  C   UNL     1      40.747   6.297  18.746  0.00  0.00    +0.000 A 
ATOM     23  C   UNL     1      39.598   5.699  19.185  0.00  0.00    +0.000 A 
ATOM     24  C   UNL     1      38.735   5.104  18.290  0.00  0.00    +0.000 A 
BRANCH  22  25
ATOM     25  C   UNL     1      41.700   6.947  19.653  0.00  0.00    +0.000 A 
ATOM     26  C   UNL     1      41.968   8.288  19.590  0.00  0.00    +0.000 A 
ATOM     27  C   UNL     1      42.857   8.933  20.424  0.00  0.00    +0.000 A 
ATOM     28  C   UNL     1      43.529   8.210  21.387  0.00  0.00    +0.000 A 
ATOM     29  C   UNL     1      43.270   6.851  21.463  0.00  0.00    +0.000 A 
ATOM     30  C   UNL     1      42.376   6.218  20.619  0.00  0.00    +0.000 A 
ENDBRANCH  22  25
ENDBRANCH  17  19
ENDBRANCH  16  17
ENDBRANCH   1  16
TORSDOF 8
ENDMDL
MODEL 5
REMARK VINA RESULT:      -7.7      2.181      3.600
REMARK  Name = 
REMARK  8 active torsions:
REMARK  status: ('A' for Active; 'I' for Inactive)
REMARK    1  A    between atoms: C_2  and  C_3
REMARK    2  A    between atoms: C_7  and  C_8
REMARK    3  A    between atoms: C_10  and  N_11
REMARK    4  A    between atoms: C_12  and  C_14
REMARK    5  A    between atoms: C_14  and  O_16
REMARK    6  A    between atoms: O_16  and  C_17
REMARK    7  A    between atoms: C_17  and  C_19
REMARK    8  A    between atoms: C_22  and  C_23
REMARK                            x       y       z     vdW  Elec       q    Type
REMARK                         _______ _______ _______ _____ _____    ______ ____
ROOT
ATOM      1  C   UNL     1      39.292   0.844  12.668  0.00  0.00    +0.000 C 
ATOM      2  C   UNL     1      40.781   0.090  12.632  0.00  0.00    +0.000 C 
ENDROOT
BRANCH   1   4
ATOM      3  N   UNL     1      37.721  -0.422  14.313  0.00  0.00    +0.000 NA
ATOM      4  C   UNL     1      38.887   0.292  14.086  0.00  0.00    +0.000 C 
ATOM      5  O   UNL     1      39.683   0.537  15.001  0.00  0.00    +0.000 OA
BRANCH   3  11
ATOM      6  C   UNL     1      37.810  -2.144  15.979  0.00  0.00    +0.000 A 
ATOM      7  C   UNL     1      37.423  -2.677  17.220  0.00  0.00    +0.000 A 
ATOM      8  C   UNL     1      36.547  -1.981  18.022  0.00  0.00    +0.000 A 
ATOM      9  C   UNL     1      36.061  -0.782  17.608  0.00  0.00    +0.000 A 
ATOM     10  C   UNL     1      36.454  -0.266  16.376  0.00  0.00    +0.000 A 
ATOM     11  C   UNL     1      37.321  -0.931  15.554  0.00  0.00    +0.000 A 
BRANCH   6  13
ATOM     12  C   UNL     1      40.144  -2.957  15.643  0.00  0.00    +0.000 C 
ATOM     13  C   UNL     1      38.738  -2.950  15.202  0.00  0.00    +0.000 C 
ENDBRANCH   6  13
BRANCH  10  14
ATOM     14  C   UNL     1      35.892   1.034  15.988  0.00  0.00    +0.000 C 
ATOM     15  C   UNL     1      34.776   1.502  16.866  0.00  0.00    +0.000 C 
ENDBRANCH  10  14
ENDBRANCH   3  11
ENDBRANCH   1   4
BRANCH   1  16
ATOM     16  O   UNL     1      39.900   2.175  13.132  0.00  0.00    +0.000 OA
BRANCH  16  17
ATOM     17  C   UNL     1      38.983   3.190  13.383  0.00  0.00    +0.000 C 
ATOM     18  O   UNL     1      38.096   3.389  12.532  0.00  0.00    +0.000 OA
BRANCH  17  19
ATOM     19  C   UNL     1      39.028   4.008  14.582  0.00  0.00    +0.000 A 
ATOM     20  C   UNL     1      39.915   5.045  14.750  0.00  0.00    +0.000 A 
ATOM     21  C   UNL     1      39.903   5.787  15.924  0.00  0.00    +0.000 A 
ATOM     22  C   UNL     1      39.022   5.526  16.958  0.00  0.00    +0.000 A 
ATOM     23  C   UNL     1      38.145   4.492  16.782  0.00  0.00    +0.000 A 
ATOM     24  C   UNL     1      38.157   3.756  15.617  0.00  0.00    +0.000 A 
BRANCH  22  25
ATOM     25  C   UNL     1      39.053   6.342  18.177  0.00  0.00    +0.000 A 
ATOM     26  C   UNL     1      40.012   6.178  19.140  0.00  0.00    +0.000 A 
ATOM     27  C   UNL     1      40.074   6.925  20.298  0.00  0.00    +0.000 A 
ATOM     28  C   UNL     1      39.126   7.900  20.525  0.00  0.00    +0.000 A 
ATOM     29  C   UNL     1      38.148   8.080  19.561  0.00  0.00    +0.000 A 
ATOM     30  C   UNL     1      38.100   7.322  18.404  0.00  0.00    +0.000 A 
ENDBRANCH  22  25
ENDBRANCH  17  19
ENDBRANCH  16  17
ENDBRANCH   1  16
TORSDOF 8
ENDMDL
MODEL 6
REMARK VINA RESULT:      -7.6      2.455      8.973
REMARK  Name = 
REMARK  8 active torsions:
REMARK  status: ('A' for Active; 'I' for Inactive)
REMARK    1  A    between atoms: C_2  and  C_3
REMARK    2  A    between atoms: C_7  and  C_8
REMARK    3  A    between atoms: C_10  and  N_11
REMARK    4  A    between atoms: C_12  and  C_14
REMARK    5  A    between atoms: C_14  and  O_16
REMARK    6  A    between atoms: O_16  and  C_17
REMARK    7  A    between atoms: C_17  and  C_19
REMARK    8  A    between atoms: C_22  and  C_23
REMARK                            x       y       z     vdW  Elec       q    Type
REMARK                         _______ _______ _______ _____ _____    ______ ____
ROOT
ATOM      1  C   UNL     1      37.932   6.553  14.238  0.00  0.00    +0.000 C 
ATOM      2  C   UNL     1      37.868   8.213  14.403  0.00  0.00    +0.000 C 
ENDROOT
BRANCH   1   4
ATOM      3  N   UNL     1      39.200   7.258  16.400  0.00  0.00    +0.000 NA
ATOM      4  C   UNL     1      38.525   6.290  15.674  0.00  0.00    +0.000 C 
ATOM      5  O   UNL     1      38.350   5.150  16.122  0.00  0.00    +0.000 OA
BRANCH   3  11
ATOM      6  C   UNL     1      38.985   7.365  18.786  0.00  0.00    +0.000 A 
ATOM      7  C   UNL     1      39.506   7.186  20.078  0.00  0.00    +0.000 A 
ATOM      8  C   UNL     1      40.788   6.710  20.240  0.00  0.00    +0.000 A 
ATOM      9  C   UNL     1      41.541   6.416  19.148  0.00  0.00    +0.000 A 
ATOM     10  C   UNL     1      41.010   6.598  17.873  0.00  0.00    +0.000 A 
ATOM     11  C   UNL     1      39.742   7.069  17.676  0.00  0.00    +0.000 A 
BRANCH   6  13
ATOM     12  C   UNL     1      37.180   8.746  19.813  0.00  0.00    +0.000 C 
ATOM     13  C   UNL     1      37.623   7.871  18.713  0.00  0.00    +0.000 C 
ENDBRANCH   6  13
BRANCH  10  14
ATOM     14  C   UNL     1      41.877   6.262  16.736  0.00  0.00    +0.000 C 
ATOM     15  C   UNL     1      43.069   7.152  16.594  0.00  0.00    +0.000 C 
ENDBRANCH  10  14
ENDBRANCH   3  11
ENDBRANCH   1   4
BRANCH   1  16
ATOM     16  O   UNL     1      36.447   6.390  14.597  0.00  0.00    +0.000 OA
BRANCH  16  17
ATOM     17  C   UNL     1      35.782   5.374  13.919  0.00  0.00    +0.000 C 
ATOM     18  O   UNL     1      35.258   5.658  12.826  0.00  0.00    +0.000 OA
BRANCH  17  19
ATOM     19  C   UNL     1      35.682   4.021  14.437  0.00  0.00    +0.000 A 
ATOM     20  C   UNL     1      34.768   3.650  15.394  0.00  0.00    +0.000 A 
ATOM     21  C   UNL     1      34.727   2.337  15.845  0.00  0.00    +0.000 A 
ATOM     22  C   UNL     1      35.584   1.362  15.368  0.00  0.00    +0.000 A 
ATOM     23  C   UNL     1      36.491   1.741  14.417  0.00  0.00    +0.000 A 
ATOM     24  C   UNL     1      36.530   3.044  13.969  0.00  0.00    +0.000 A 
BRANCH  22  25
ATOM     25  C   UNL     1      35.497  -0.011  15.879  0.00  0.00    +0.000 A 
ATOM     26  C   UNL     1      34.754  -0.331  16.983  0.00  0.00    +0.000 A 
ATOM     27  C   UNL     1      34.648  -1.608  17.494  0.00  0.00    +0.000 A 
ATOM     28  C   UNL     1      35.320  -2.642  16.876  0.00  0.00    +0.000 A 
ATOM     29  C   UNL     1      36.077  -2.334  15.757  0.00  0.00    +0.000 A 
ATOM     30  C   UNL     1      36.173  -1.048  15.257  0.00  0.00    +0.000 A 
ENDBRANCH  22  25
ENDBRANCH  17  19
ENDBRANCH  16  17
ENDBRANCH   1  16
TORSDOF 8
ENDMDL
MODEL 7
REMARK VINA RESULT:      -7.6      2.916      8.768
REMARK  Name = 
REMARK  8 active torsions:
REMARK  status: ('A' for Active; 'I' for Inactive)
REMARK    1  A    between atoms: C_2  and  C_3
REMARK    2  A    between atoms: C_7  and  C_8
REMARK    3  A    between atoms: C_10  and  N_11
REMARK    4  A    between atoms: C_12  and  C_14
REMARK    5  A    between atoms: C_14  and  O_16
REMARK    6  A    between atoms: O_16  and  C_17
REMARK    7  A    between atoms: C_17  and  C_19
REMARK    8  A    between atoms: C_22  and  C_23
REMARK                            x       y       z     vdW  Elec       q    Type
REMARK                         _______ _______ _______ _____ _____    ______ ____
ROOT
ATOM      1  C   UNL     1      37.448   7.401  13.729  0.00  0.00    +0.000 C 
ATOM      2  C   UNL     1      36.885   8.967  13.859  0.00  0.00    +0.000 C 
ENDROOT
BRANCH   1   4
ATOM      3  N   UNL     1      37.585   7.143  16.316  0.00  0.00    +0.000 NA
ATOM      4  C   UNL     1      38.210   7.409  15.108  0.00  0.00    +0.000 C 
ATOM      5  O   UNL     1      39.417   7.670  15.048  0.00  0.00    +0.000 OA
BRANCH   3  11
ATOM      6  C   UNL     1      38.188   8.271  18.344  0.00  0.00    +0.000 A 
ATOM      7  C   UNL     1      38.819   8.294  19.599  0.00  0.00    +0.000 A 
ATOM      8  C   UNL     1      39.477   7.175  20.056  0.00  0.00    +0.000 A 
ATOM      9  C   UNL     1      39.512   6.054  19.289  0.00  0.00    +0.000 A 
ATOM     10  C   UNL     1      38.882   6.046  18.047  0.00  0.00    +0.000 A 
ATOM     11  C   UNL     1      38.220   7.139  17.563  0.00  0.00    +0.000 A 
BRANCH   6  13
ATOM     12  C   UNL     1      36.063   9.564  18.167  0.00  0.00    +0.000 C 
ATOM     13  C   UNL     1      37.517   9.499  17.946  0.00  0.00    +0.000 C 
ENDBRANCH   6  13
BRANCH  10  14
ATOM     14  C   UNL     1      38.958   4.803  17.269  0.00  0.00    +0.000 C 
ATOM     15  C   UNL     1      37.739   3.944  17.371  0.00  0.00    +0.000 C 
ENDBRANCH  10  14
ENDBRANCH   3  11
ENDBRANCH   1   4
BRANCH   1  16
ATOM     16  O   UNL     1      36.123   6.809  14.231  0.00  0.00    +0.000 OA
BRANCH  16  17
ATOM     17  C   UNL     1      35.670   5.695  13.533  0.00  0.00    +0.000 C 
ATOM     18  O   UNL     1      35.316   5.860  12.351  0.00  0.00    +0.000 OA
BRANCH  17  19
ATOM     19  C   UNL     1      35.598   4.373  14.129  0.00  0.00    +0.000 A 
ATOM     20  C   UNL     1      34.651   4.020  15.062  0.00  0.00    +0.000 A 
ATOM     21  C   UNL     1      34.640   2.737  15.591  0.00  0.00    +0.000 A 
ATOM     22  C   UNL     1      35.560   1.773  15.219  0.00  0.00    +0.000 A 
ATOM     23  C   UNL     1      36.498   2.133  14.292  0.00  0.00    +0.000 A 
ATOM     24  C   UNL     1      36.508   3.407  13.765  0.00  0.00    +0.000 A 
BRANCH  22  25
ATOM     25  C   UNL     1      35.502   0.431  15.810  0.00  0.00    +0.000 A 
ATOM     26  C   UNL     1      36.167  -0.634  15.265  0.00  0.00    +0.000 A 
ATOM     27  C   UNL     1      36.137  -1.909  15.791  0.00  0.00    +0.000 A 
ATOM     28  C   UNL     1      35.402  -2.153  16.932  0.00  0.00    +0.000 A 
ATOM     29  C   UNL     1      34.723  -1.086  17.496  0.00  0.00    +0.000 A 
ATOM     30  C   UNL     1      34.763   0.187  16.956  0.00  0.00    +0.000 A 
ENDBRANCH  22  25
ENDBRANCH  17  19
ENDBRANCH  16  17
ENDBRANCH   1  16
TORSDOF 8
ENDMDL
MODEL 8
REMARK VINA RESULT:      -7.6      4.686      6.189
REMARK  Name = 
REMARK  8 active torsions:
REMARK  status: ('A' for Active; 'I' for Inactive)
REMARK    1  A    between atoms: C_2  and  C_3
REMARK    2  A    between atoms: C_7  and  C_8
REMARK    3  A    between atoms: C_10  and  N_11
REMARK    4  A    between atoms: C_12  and  C_14
REMARK    5  A    between atoms: C_14  and  O_16
REMARK    6  A    between atoms: O_16  and  C_17
REMARK    7  A    between atoms: C_17  and  C_19
REMARK    8  A    between atoms: C_22  and  C_23
REMARK                            x       y       z     vdW  Elec       q    Type
REMARK                         _______ _______ _______ _____ _____    ______ ____
ROOT
ATOM      1  C   UNL     1      39.821  -0.642  13.889  0.00  0.00    +0.000 C 
ATOM      2  C   UNL     1      40.902  -1.630  14.690  0.00  0.00    +0.000 C 
ENDROOT
BRANCH   1   4
ATOM      3  N   UNL     1      37.330  -0.790  14.631  0.00  0.00    +0.000 NA
ATOM      4  C   UNL     1      38.675  -0.784  14.961  0.00  0.00    +0.000 C 
ATOM      5  O   UNL     1      39.054  -0.893  16.134  0.00  0.00    +0.000 OA
BRANCH   3  11
ATOM      6  C   UNL     1      35.660   0.217  16.026  0.00  0.00    +0.000 A 
ATOM      7  C   UNL     1      34.605   0.121  16.948  0.00  0.00    +0.000 A 
ATOM      8  C   UNL     1      34.184  -1.117  17.381  0.00  0.00    +0.000 A 
ATOM      9  C   UNL     1      34.791  -2.237  16.912  0.00  0.00    +0.000 A 
ATOM     10  C   UNL     1      35.836  -2.126  15.998  0.00  0.00    +0.000 A 
ATOM     11  C   UNL     1      36.280  -0.914  15.548  0.00  0.00    +0.000 A 
BRANCH   6  13
ATOM     12  C   UNL     1      35.261   2.672  16.214  0.00  0.00    +0.000 C 
ATOM     13  C   UNL     1      36.036   1.565  15.627  0.00  0.00    +0.000 C 
ENDBRANCH   6  13
BRANCH  10  14
ATOM     14  C   UNL     1      36.449  -3.376  15.531  0.00  0.00    +0.000 C 
ATOM     15  C   UNL     1      35.680  -4.067  14.452  0.00  0.00    +0.000 C 
ENDBRANCH  10  14
ENDBRANCH   3  11
ENDBRANCH   1   4
BRANCH   1  16
ATOM     16  O   UNL     1      40.467   0.635  14.449  0.00  0.00    +0.000 OA
BRANCH  16  17
ATOM     17  C   UNL     1      40.470   1.725  13.585  0.00  0.00    +0.000 C 
ATOM     18  O   UNL     1      41.504   1.936  12.926  0.00  0.00    +0.000 OA
BRANCH  17  19
ATOM     19  C   UNL     1      39.326   2.606  13.433  0.00  0.00    +0.000 A 
ATOM     20  C   UNL     1      38.315   2.375  12.530  0.00  0.00    +0.000 A 
ATOM     21  C   UNL     1      37.249   3.261  12.438  0.00  0.00    +0.000 A 
ATOM     22  C   UNL     1      37.153   4.392  13.228  0.00  0.00    +0.000 A 
ATOM     23  C   UNL     1      38.164   4.614  14.123  0.00  0.00    +0.000 A 
ATOM     24  C   UNL     1      39.221   3.734  14.215  0.00  0.00    +0.000 A 
BRANCH  22  25
ATOM     25  C   UNL     1      36.004   5.294  13.090  0.00  0.00    +0.000 A 
ATOM     26  C   UNL     1      35.132   5.526  14.119  0.00  0.00    +0.000 A 
ATOM     27  C   UNL     1      34.041   6.365  14.027  0.00  0.00    +0.000 A 
ATOM     28  C   UNL     1      33.791   7.022  12.840  0.00  0.00    +0.000 A 
ATOM     29  C   UNL     1      34.664   6.798  11.789  0.00  0.00    +0.000 A 
ATOM     30  C   UNL     1      35.754   5.953  11.897  0.00  0.00    +0.000 A 
ENDBRANCH  22  25
ENDBRANCH  17  19
ENDBRANCH  16  17
ENDBRANCH   1  16
TORSDOF 8
ENDMDL
MODEL 9
REMARK VINA RESULT:      -7.5      7.145     10.768
REMARK  Name = 
REMARK  8 active torsions:
REMARK  status: ('A' for Active; 'I' for Inactive)
REMARK    1  A    between atoms: C_2  and  C_3
REMARK    2  A    between atoms: C_7  and  C_8
REMARK    3  A    between atoms: C_10  and  N_11
REMARK    4  A    between atoms: C_12  and  C_14
REMARK    5  A    between atoms: C_14  and  O_16
REMARK    6  A    between atoms: O_16  and  C_17
REMARK    7  A    between atoms: C_17  and  C_19
REMARK    8  A    between atoms: C_22  and  C_23
REMARK                            x       y       z     vdW  Elec       q    Type
REMARK                         _______ _______ _______ _____ _____    ______ ____
ROOT
ATOM      1  C   UNL     1      44.049   6.734  23.327  0.00  0.00    +0.000 C 
ATOM      2  C   UNL     1      45.249   7.840  22.973  0.00  0.00    +0.000 C 
ENDROOT
BRANCH   1   4
ATOM      3  N   UNL     1      43.246   7.308  20.918  0.00  0.00    +0.000 NA
ATOM      4  C   UNL     1      43.734   6.381  21.824  0.00  0.00    +0.000 C 
ATOM      5  O   UNL     1      43.950   5.208  21.496  0.00  0.00    +0.000 OA
BRANCH   3  11
ATOM      6  C   UNL     1      41.696   6.596  19.233  0.00  0.00    +0.000 A 
ATOM      7  C   UNL     1      41.375   6.318  17.894  0.00  0.00    +0.000 A 
ATOM      8  C   UNL     1      42.325   6.489  16.912  0.00  0.00    +0.000 A 
ATOM      9  C   UNL     1      43.567   6.927  17.244  0.00  0.00    +0.000 A 
ATOM     10  C   UNL     1      43.870   7.199  18.576  0.00  0.00    +0.000 A 
ATOM     11  C   UNL     1      42.952   7.039  19.576  0.00  0.00    +0.000 A 
BRANCH   6  13
ATOM     12  C   UNL     1      39.517   7.351  20.182  0.00  0.00    +0.000 C 
ATOM     13  C   UNL     1      40.629   6.386  20.200  0.00  0.00    +0.000 C 
ENDBRANCH   6  13
BRANCH  10  14
ATOM     14  C   UNL     1      45.231   7.669  18.867  0.00  0.00    +0.000 C 
ATOM     15  C   UNL     1      46.230   6.571  19.039  0.00  0.00    +0.000 C 
ENDBRANCH  10  14
ENDBRANCH   3  11
ENDBRANCH   1   4
BRANCH   1  16
ATOM     16  O   UNL     1      45.065   5.613  23.592  0.00  0.00    +0.000 OA
BRANCH  16  17
ATOM     17  C   UNL     1      45.265   5.299  24.932  0.00  0.00    +0.000 C 
ATOM     18  O   UNL     1      46.389   4.883  25.265  0.00  0.00    +0.000 OA
BRANCH  17  19
ATOM     19  C   UNL     1      44.222   5.440  25.933  0.00  0.00    +0.000 A 
ATOM     20  C   UNL     1      43.775   6.659  26.385  0.00  0.00    +0.000 A 
ATOM     21  C   UNL     1      42.774   6.720  27.345  0.00  0.00    +0.000 A 
ATOM     22  C   UNL     1      42.191   5.587  27.882  0.00  0.00    +0.000 A 
ATOM     23  C   UNL     1      42.642   4.379  27.427  0.00  0.00    +0.000 A 
ATOM     24  C   UNL     1      43.636   4.319  26.474  0.00  0.00    +0.000 A 
BRANCH  22  25
ATOM     25  C   UNL     1      41.135   5.709  28.894  0.00  0.00    +0.000 A 
ATOM     26  C   UNL     1      40.298   6.791  28.946  0.00  0.00    +0.000 A 
ATOM     27  C   UNL     1      39.295   6.942  29.882  0.00  0.00    +0.000 A 
ATOM     28  C   UNL     1      39.103   5.962  30.831  0.00  0.00    +0.000 A 
ATOM     29  C   UNL     1      39.942   4.860  30.793  0.00  0.00    +0.000 A 
ATOM     30  C   UNL     1      40.943   4.723  29.848  0.00  0.00    +0.000 A 
ENDBRANCH  22  25
ENDBRANCH  17  19
ENDBRANCH  16  17
ENDBRANCH   1  16
TORSDOF 8
ENDMDL
MODEL 10
REMARK VINA RESULT:      -7.5      2.548      9.228
REMARK  Name = 
REMARK  8 active torsions:
REMARK  status: ('A' for Active; 'I' for Inactive)
REMARK    1  A    between atoms: C_2  and  C_3
REMARK    2  A    between atoms: C_7  and  C_8
REMARK    3  A    between atoms: C_10  and  N_11
REMARK    4  A    between atoms: C_12  and  C_14
REMARK    5  A    between atoms: C_14  and  O_16
REMARK    6  A    between atoms: O_16  and  C_17
REMARK    7  A    between atoms: C_17  and  C_19
REMARK    8  A    between atoms: C_22  and  C_23
REMARK                            x       y       z     vdW  Elec       q    Type
REMARK                         _______ _______ _______ _____ _____    ______ ____
ROOT
ATOM      1  C   UNL     1      37.591   7.024  14.308  0.00  0.00    +0.000 C 
ATOM      2  C   UNL     1      37.144   8.574  14.740  0.00  0.00    +0.000 C 
ENDROOT
BRANCH   1   4
ATOM      3  N   UNL     1      38.982   7.524  16.452  0.00  0.00    +0.000 NA
ATOM      4  C   UNL     1      38.194   6.653  15.716  0.00  0.00    +0.000 C 
ATOM      5  O   UNL     1      37.919   5.521  16.131  0.00  0.00    +0.000 OA
BRANCH   3  11
ATOM      6  C   UNL     1      40.815   6.730  17.778  0.00  0.00    +0.000 A 
ATOM      7  C   UNL     1      41.396   6.432  19.022  0.00  0.00    +0.000 A 
ATOM      8  C   UNL     1      40.684   6.649  20.181  0.00  0.00    +0.000 A 
ATOM      9  C   UNL     1      39.423   7.150  20.113  0.00  0.00    +0.000 A 
ATOM     10  C   UNL     1      38.860   7.441  18.873  0.00  0.00    +0.000 A 
ATOM     11  C   UNL     1      39.538   7.237  17.704  0.00  0.00    +0.000 A 
BRANCH   6  13
ATOM     12  C   UNL     1      43.090   6.695  16.758  0.00  0.00    +0.000 C 
ATOM     13  C   UNL     1      41.642   6.468  16.611  0.00  0.00    +0.000 C 
ENDBRANCH   6  13
BRANCH  10  14
ATOM     14  C   UNL     1      37.494   7.979  18.871  0.00  0.00    +0.000 C 
ATOM     15  C   UNL     1      37.420   9.452  19.114  0.00  0.00    +0.000 C 
ENDBRANCH  10  14
ENDBRANCH   3  11
ENDBRANCH   1   4
BRANCH   1  16
ATOM     16  O   UNL     1      36.175   6.476  14.542  0.00  0.00    +0.000 OA
BRANCH  16  17
ATOM     17  C   UNL     1      35.829   5.378  13.761  0.00  0.00    +0.000 C 
ATOM     18  O   UNL     1      35.604   5.577  12.553  0.00  0.00    +0.000 OA
BRANCH  17  19
ATOM     19  C   UNL     1      35.724   4.035  14.303  0.00  0.00    +0.000 A 
ATOM     20  C   UNL     1      34.724   3.650  15.164  0.00  0.00    +0.000 A 
ATOM     21  C   UNL     1      34.683   2.347  15.644  0.00  0.00    +0.000 A 
ATOM     22  C   UNL     1      35.624   1.396  15.290  0.00  0.00    +0.000 A 
ATOM     23  C   UNL     1      36.615   1.789  14.434  0.00  0.00    +0.000 A 
ATOM     24  C   UNL     1      36.654   3.082  13.957  0.00  0.00    +0.000 A 
BRANCH  22  25
ATOM     25  C   UNL     1      35.533   0.034  15.827  0.00  0.00    +0.000 A 
ATOM     26  C   UNL     1      36.203  -1.018  15.262  0.00  0.00    +0.000 A 
ATOM     27  C   UNL     1      36.142  -2.312  15.736  0.00  0.00    +0.000 A 
ATOM     28  C   UNL     1      35.369  -2.591  16.843  0.00  0.00    +0.000 A 
ATOM     29  C   UNL     1      34.683  -1.538  17.427  0.00  0.00    +0.000 A 
ATOM     30  C   UNL     1      34.754  -0.245  16.939  0.00  0.00    +0.000 A 
ENDBRANCH  22  25
ENDBRANCH  17  19
ENDBRANCH  16  17
ENDBRANCH   1  16
TORSDOF 8
ENDMDL
