MODEL 1
REMARK VINA RESULT:      -7.5      0.000      0.000
REMARK  Name = 
REMARK  6 active torsions:
REMARK  status: ('A' for Active; 'I' for Inactive)
REMARK    1  A    between atoms: C_4  and  C_5
REMARK    2  A    between atoms: C_5  and  O_7
REMARK    3  A    between atoms: O_7  and  C_8
REMARK    4  A    between atoms: C_8  and  C_9
REMARK    5  A    between atoms: C_17  and  C_18
REMARK    6  A    between atoms: C_18  and  C_19
REMARK                            x       y       z     vdW  Elec       q    Type
REMARK                         _______ _______ _______ _____ _____    ______ ____
ROOT
ATOM      1  C   UNL     1      13.421  14.457  33.117  0.00  0.00    +0.000 C 
ATOM      2  C   UNL     1      14.351  13.325  33.304  0.00  0.00    +0.000 A 
ATOM      3  N   UNL     1      14.817  12.933  34.513  0.00  0.00    +0.000 NA
ATOM      4  C   UNL     1      15.638  11.886  34.380  0.00  0.00    +0.000 A 
ATOM      5  C   UNL     1      15.681  11.620  33.022  0.00  0.00    +0.000 A 
ATOM      6  C   UNL     1      16.465  10.538  32.369  0.00  0.00    +0.000 C 
ATOM      7  C   UNL     1      14.886  12.506  32.342  0.00  0.00    +0.000 A 
ENDROOT
BRANCH   4   8
ATOM      8  C   UNL     1      16.365  11.135  35.387  0.00  0.00    +0.000 C 
ATOM      9  O   UNL     1      17.521  10.676  35.147  0.00  0.00    +0.000 OA
BRANCH   8  10
ATOM     10  O   UNL     1      15.868  10.866  36.651  0.00  0.00    +0.000 OA
BRANCH  10  11
ATOM     11  C   UNL     1      15.205  11.749  37.490  0.00  0.00    +0.000 C 
BRANCH  11  12
ATOM     12  C   UNL     1      13.753  11.515  37.594  0.00  0.00    +0.000 A 
ATOM     13  C   UNL     1      12.792  12.178  36.863  0.00  0.00    +0.000 A 
ATOM     14  C   UNL     1      11.435  11.891  37.027  0.00  0.00    +0.000 A 
ATOM     15  C   UNL     1      11.032  10.934  37.926  0.00  0.00    +0.000 A 
ATOM     16  C   UNL     1      11.981  10.261  38.665  0.00  0.00    +0.000 A 
ATOM     17  C   UNL     1      13.315  10.561  38.487  0.00  0.00    +0.000 A 
ENDBRANCH  11  12
ENDBRANCH  10  11
ENDBRANCH   8  10
ENDBRANCH   4   8
BRANCH   7  18
ATOM     18  C   UNL     1      14.613  12.619  30.887  0.00  0.00    +0.000 C 
BRANCH  18  19
ATOM     19  C   UNL     1      15.456  13.732  30.303  0.00  0.00    +0.000 C 
ATOM     20  O   UNL     1      16.774  13.301  30.271  0.00  0.00    +0.000 OA
ENDBRANCH  18  19
ENDBRANCH   7  18
TORSDOF 6
ENDMDL
MODEL 2
REMARK VINA RESULT:      -7.2      2.342      4.125
REMARK  Name = 
REMARK  6 active torsions:
REMARK  status: ('A' for Active; 'I' for Inactive)
REMARK    1  A    between atoms: C_4  and  C_5
REMARK    2  A    between atoms: C_5  and  O_7
REMARK    3  A    between atoms: O_7  and  C_8
REMARK    4  A    between atoms: C_8  and  C_9
REMARK    5  A    between atoms: C_17  and  C_18
REMARK    6  A    between atoms: C_18  and  C_19
REMARK                            x       y       z     vdW  Elec       q    Type
REMARK                         _______ _______ _______ _____ _____    ______ ____
ROOT
ATOM      1  C   UNL     1      15.956  10.589  31.472  0.00  0.00    +0.000 C 
ATOM      2  C   UNL     1      15.396  11.443  32.539  0.00  0.00    +0.000 A 
ATOM      3  N   UNL     1      15.565  11.197  33.859  0.00  0.00    +0.000 NA
ATOM      4  C   UNL     1      14.951  12.132  34.592  0.00  0.00    +0.000 A 
ATOM      5  C   UNL     1      14.376  12.999  33.678  0.00  0.00    +0.000 A 
ATOM      6  C   UNL     1      13.578  14.210  34.006  0.00  0.00    +0.000 C 
ATOM      7  C   UNL     1      14.645  12.583  32.399  0.00  0.00    +0.000 A 
ENDROOT
BRANCH   4   8
ATOM      8  C   UNL     1      14.860  12.280  36.032  0.00  0.00    +0.000 C 
ATOM      9  O   UNL     1      13.804  11.954  36.654  0.00  0.00    +0.000 OA
BRANCH   8  10
ATOM     10  O   UNL     1      15.886  12.774  36.820  0.00  0.00    +0.000 OA
BRANCH  10  11
ATOM     11  C   UNL     1      17.247  12.590  36.626  0.00  0.00    +0.000 C 
BRANCH  11  12
ATOM     12  C   UNL     1      17.880  11.672  37.590  0.00  0.00    +0.000 A 
ATOM     13  C   UNL     1      19.152  11.816  38.100  0.00  0.00    +0.000 A 
ATOM     14  C   UNL     1      19.673  10.896  39.013  0.00  0.00    +0.000 A 
ATOM     15  C   UNL     1      18.920   9.823  39.421  0.00  0.00    +0.000 A 
ATOM     16  C   UNL     1      17.645   9.663  38.921  0.00  0.00    +0.000 A 
ATOM     17  C   UNL     1      17.152  10.585  38.021  0.00  0.00    +0.000 A 
ENDBRANCH  11  12
ENDBRANCH  10  11
ENDBRANCH   8  10
ENDBRANCH   4   8
BRANCH   7  18
ATOM     18  C   UNL     1      14.246  13.180  31.100  0.00  0.00    +0.000 C 
BRANCH  18  19
ATOM     19  C   UNL     1      15.205  14.296  30.745  0.00  0.00    +0.000 C 
ATOM     20  O   UNL     1      16.231  13.754  29.985  0.00  0.00    +0.000 OA
ENDBRANCH  18  19
ENDBRANCH   7  18
TORSDOF 6
ENDMDL
MODEL 3
REMARK VINA RESULT:      -6.9      2.808      4.625
REMARK  Name = 
REMARK  6 active torsions:
REMARK  status: ('A' for Active; 'I' for Inactive)
REMARK    1  A    between atoms: C_4  and  C_5
REMARK    2  A    between atoms: C_5  and  O_7
REMARK    3  A    between atoms: O_7  and  C_8
REMARK    4  A    between atoms: C_8  and  C_9
REMARK    5  A    between atoms: C_17  and  C_18
REMARK    6  A    between atoms: C_18  and  C_19
REMARK                            x       y       z     vdW  Elec       q    Type
REMARK                         _______ _______ _______ _____ _____    ______ ____
ROOT
ATOM      1  C   UNL     1      13.607  14.073  34.362  0.00  0.00    +0.000 C 
ATOM      2  C   UNL     1      14.532  12.984  33.986  0.00  0.00    +0.000 A 
ATOM      3  N   UNL     1      15.335  12.347  34.871  0.00  0.00    +0.000 NA
ATOM      4  C   UNL     1      16.062  11.410  34.252  0.00  0.00    +0.000 A 
ATOM      5  C   UNL     1      15.688  11.472  32.921  0.00  0.00    +0.000 A 
ATOM      6  C   UNL     1      16.221  10.621  31.824  0.00  0.00    +0.000 C 
ATOM      7  C   UNL     1      14.738  12.445  32.741  0.00  0.00    +0.000 A 
ENDROOT
BRANCH   4   8
ATOM      8  C   UNL     1      17.047  10.489  34.787  0.00  0.00    +0.000 C 
ATOM      9  O   UNL     1      18.017  10.090  34.075  0.00  0.00    +0.000 OA
BRANCH   8  10
ATOM     10  O   UNL     1      17.007   9.984  36.075  0.00  0.00    +0.000 OA
BRANCH  10  11
ATOM     11  C   UNL     1      18.005   9.270  36.721  0.00  0.00    +0.000 C 
BRANCH  11  12
ATOM     12  C   UNL     1      19.152  10.087  37.156  0.00  0.00    +0.000 A 
ATOM     13  C   UNL     1      20.470   9.824  36.854  0.00  0.00    +0.000 A 
ATOM     14  C   UNL     1      21.496  10.655  37.311  0.00  0.00    +0.000 A 
ATOM     15  C   UNL     1      21.206  11.758  38.075  0.00  0.00    +0.000 A 
ATOM     16  C   UNL     1      19.892  12.037  38.387  0.00  0.00    +0.000 A 
ATOM     17  C   UNL     1      18.896  11.203  37.925  0.00  0.00    +0.000 A 
ENDBRANCH  11  12
ENDBRANCH  10  11
ENDBRANCH   8  10
ENDBRANCH   4   8
BRANCH   7  18
ATOM     18  C   UNL     1      14.041  12.879  31.505  0.00  0.00    +0.000 C 
BRANCH  18  19
ATOM     19  C   UNL     1      14.717  14.117  30.955  0.00  0.00    +0.000 C 
ATOM     20  O   UNL     1      15.777  13.709  30.159  0.00  0.00    +0.000 OA
ENDBRANCH  18  19
ENDBRANCH   7  18
TORSDOF 6
ENDMDL
MODEL 4
REMARK VINA RESULT:      -6.4     16.775     20.573
REMARK  Name = 
REMARK  6 active torsions:
REMARK  status: ('A' for Active; 'I' for Inactive)
REMARK    1  A    between atoms: C_4  and  C_5
REMARK    2  A    between atoms: C_5  and  O_7
REMARK    3  A    between atoms: O_7  and  C_8
REMARK    4  A    between atoms: C_8  and  C_9
REMARK    5  A    between atoms: C_17  and  C_18
REMARK    6  A    between atoms: C_18  and  C_19
REMARK                            x       y       z     vdW  Elec       q    Type
REMARK                         _______ _______ _______ _____ _____    ______ ____
ROOT
ATOM      1  C   UNL     1      25.267  25.217  29.618  0.00  0.00    +0.000 C 
ATOM      2  C   UNL     1      25.887  24.483  28.496  0.00  0.00    +0.000 A 
ATOM      3  N   UNL     1      25.543  24.667  27.200  0.00  0.00    +0.000 NA
ATOM      4  C   UNL     1      26.266  23.871  26.406  0.00  0.00    +0.000 A 
ATOM      5  C   UNL     1      27.098  23.160  27.254  0.00  0.00    +0.000 A 
ATOM      6  C   UNL     1      28.098  22.140  26.843  0.00  0.00    +0.000 C 
ATOM      7  C   UNL     1      26.874  23.531  28.556  0.00  0.00    +0.000 A 
ENDROOT
BRANCH   4   8
ATOM      8  C   UNL     1      26.246  23.724  24.963  0.00  0.00    +0.000 C 
ATOM      9  O   UNL     1      25.488  22.873  24.407  0.00  0.00    +0.000 OA
BRANCH   8  10
ATOM     10  O   UNL     1      27.029  24.474  24.103  0.00  0.00    +0.000 OA
BRANCH  10  11
ATOM     11  C   UNL     1      28.037  24.006  23.273  0.00  0.00    +0.000 C 
BRANCH  11  12
ATOM     12  C   UNL     1      29.392  24.114  23.840  0.00  0.00    +0.000 A 
ATOM     13  C   UNL     1      30.027  25.295  24.154  0.00  0.00    +0.000 A 
ATOM     14  C   UNL     1      31.316  25.304  24.691  0.00  0.00    +0.000 A 
ATOM     15  C   UNL     1      31.980  24.123  24.918  0.00  0.00    +0.000 A 
ATOM     16  C   UNL     1      31.360  22.930  24.610  0.00  0.00    +0.000 A 
ATOM     17  C   UNL     1      30.087  22.947  24.081  0.00  0.00    +0.000 A 
ENDBRANCH  11  12
ENDBRANCH  10  11
ENDBRANCH   8  10
ENDBRANCH   4   8
BRANCH   7  18
ATOM     18  C   UNL     1      27.515  23.053  29.806  0.00  0.00    +0.000 C 
BRANCH  18  19
ATOM     19  C   UNL     1      26.969  21.686  30.159  0.00  0.00    +0.000 C 
ATOM     20  O   UNL     1      25.799  21.866  30.884  0.00  0.00    +0.000 OA
ENDBRANCH  18  19
ENDBRANCH   7  18
TORSDOF 6
ENDMDL
MODEL 5
REMARK VINA RESULT:      -6.3      1.535      2.545
REMARK  Name = 
REMARK  6 active torsions:
REMARK  status: ('A' for Active; 'I' for Inactive)
REMARK    1  A    between atoms: C_4  and  C_5
REMARK    2  A    between atoms: C_5  and  O_7
REMARK    3  A    between atoms: O_7  and  C_8
REMARK    4  A    between atoms: C_8  and  C_9
REMARK    5  A    between atoms: C_17  and  C_18
REMARK    6  A    between atoms: C_18  and  C_19
REMARK                            x       y       z     vdW  Elec       q    Type
REMARK                         _______ _______ _______ _____ _____    ______ ____
ROOT
ATOM      1  C   UNL     1      16.313  10.201  31.218  0.00  0.00    +0.000 C 
ATOM      2  C   UNL     1      16.286  10.759  32.586  0.00  0.00    +0.000 A 
ATOM      3  N   UNL     1      16.722  10.086  33.676  0.00  0.00    +0.000 NA
ATOM      4  C   UNL     1      16.577  10.833  34.776  0.00  0.00    +0.000 A 
ATOM      5  C   UNL     1      16.025  12.026  34.342  0.00  0.00    +0.000 A 
ATOM      6  C   UNL     1      15.675  13.189  35.200  0.00  0.00    +0.000 C 
ATOM      7  C   UNL     1      15.839  11.994  32.984  0.00  0.00    +0.000 A 
ENDROOT
BRANCH   4   8
ATOM      8  C   UNL     1      16.903  10.534  36.158  0.00  0.00    +0.000 C 
ATOM      9  O   UNL     1      18.110  10.466  36.540  0.00  0.00    +0.000 OA
BRANCH   8  10
ATOM     10  O   UNL     1      15.954  10.305  37.139  0.00  0.00    +0.000 OA
BRANCH  10  11
ATOM     11  C   UNL     1      15.322  11.257  37.924  0.00  0.00    +0.000 C 
BRANCH  11  12
ATOM     12  C   UNL     1      13.851  11.238  37.838  0.00  0.00    +0.000 A 
ATOM     13  C   UNL     1      13.025  10.427  38.585  0.00  0.00    +0.000 A 
ATOM     14  C   UNL     1      11.637  10.477  38.437  0.00  0.00    +0.000 A 
ATOM     15  C   UNL     1      11.067  11.342  37.537  0.00  0.00    +0.000 A 
ATOM     16  C   UNL     1      11.878  12.161  36.780  0.00  0.00    +0.000 A 
ATOM     17  C   UNL     1      13.245  12.095  36.944  0.00  0.00    +0.000 A 
ENDBRANCH  11  12
ENDBRANCH  10  11
ENDBRANCH   8  10
ENDBRANCH   4   8
BRANCH   7  18
ATOM     18  C   UNL     1      15.283  13.026  32.074  0.00  0.00    +0.000 C 
BRANCH  18  19
ATOM     19  C   UNL     1      13.782  13.100  32.256  0.00  0.00    +0.000 C 
ATOM     20  O   UNL     1      13.484  14.298  32.888  0.00  0.00    +0.000 OA
ENDBRANCH  18  19
ENDBRANCH   7  18
TORSDOF 6
ENDMDL
MODEL 6
REMARK VINA RESULT:      -6.2     19.262     21.466
REMARK  Name = 
REMARK  6 active torsions:
REMARK  status: ('A' for Active; 'I' for Inactive)
REMARK    1  A    between atoms: C_4  and  C_5
REMARK    2  A    between atoms: C_5  and  O_7
REMARK    3  A    between atoms: O_7  and  C_8
REMARK    4  A    between atoms: C_8  and  C_9
REMARK    5  A    between atoms: C_17  and  C_18
REMARK    6  A    between atoms: C_18  and  C_19
REMARK                            x       y       z     vdW  Elec       q    Type
REMARK                         _______ _______ _______ _____ _____    ______ ____
ROOT
ATOM      1  C   UNL     1      29.420  27.088  23.839  0.00  0.00    +0.000 C 
ATOM      2  C   UNL     1      28.539  26.003  24.316  0.00  0.00    +0.000 A 
ATOM      3  N   UNL     1      28.324  25.735  25.626  0.00  0.00    +0.000 NA
ATOM      4  C   UNL     1      27.486  24.703  25.762  0.00  0.00    +0.000 A 
ATOM      5  C   UNL     1      27.166  24.314  24.472  0.00  0.00    +0.000 A 
ATOM      6  C   UNL     1      26.258  23.198  24.096  0.00  0.00    +0.000 C 
ATOM      7  C   UNL     1      27.813  25.113  23.564  0.00  0.00    +0.000 A 
ENDROOT
BRANCH   4   8
ATOM      8  C   UNL     1      26.972  24.069  26.961  0.00  0.00    +0.000 C 
ATOM      9  O   UNL     1      25.796  24.307  27.369  0.00  0.00    +0.000 OA
BRANCH   8  10
ATOM     10  O   UNL     1      27.701  23.182  27.734  0.00  0.00    +0.000 OA
BRANCH  10  11
ATOM     11  C   UNL     1      28.563  22.195  27.278  0.00  0.00    +0.000 C 
BRANCH  11  12
ATOM     12  C   UNL     1      29.765  22.705  26.594  0.00  0.00    +0.000 A 
ATOM     13  C   UNL     1      30.713  23.523  27.166  0.00  0.00    +0.000 A 
ATOM     14  C   UNL     1      31.824  23.960  26.441  0.00  0.00    +0.000 A 
ATOM     15  C   UNL     1      31.992  23.577  25.133  0.00  0.00    +0.000 A 
ATOM     16  C   UNL     1      31.052  22.758  24.544  0.00  0.00    +0.000 A 
ATOM     17  C   UNL     1      29.964  22.339  25.280  0.00  0.00    +0.000 A 
ENDBRANCH  11  12
ENDBRANCH  10  11
ENDBRANCH   8  10
ENDBRANCH   4   8
BRANCH   7  18
ATOM     18  C   UNL     1      27.786  25.084  22.081  0.00  0.00    +0.000 C 
BRANCH  18  19
ATOM     19  C   UNL     1      28.765  24.043  21.581  0.00  0.00    +0.000 C 
ATOM     20  O   UNL     1      29.682  24.677  20.755  0.00  0.00    +0.000 OA
ENDBRANCH  18  19
ENDBRANCH   7  18
TORSDOF 6
ENDMDL
MODEL 7
REMARK VINA RESULT:      -6.1     21.128     23.622
REMARK  Name = 
REMARK  6 active torsions:
REMARK  status: ('A' for Active; 'I' for Inactive)
REMARK    1  A    between atoms: C_4  and  C_5
REMARK    2  A    between atoms: C_5  and  O_7
REMARK    3  A    between atoms: O_7  and  C_8
REMARK    4  A    between atoms: C_8  and  C_9
REMARK    5  A    between atoms: C_17  and  C_18
REMARK    6  A    between atoms: C_18  and  C_19
REMARK                            x       y       z     vdW  Elec       q    Type
REMARK                         _______ _______ _______ _____ _____    ______ ____
ROOT
ATOM      1  C   UNL     1      30.296  27.263  18.650  0.00  0.00    +0.000 C 
ATOM      2  C   UNL     1      29.621  26.701  19.838  0.00  0.00    +0.000 A 
ATOM      3  N   UNL     1      29.777  25.422  20.251  0.00  0.00    +0.000 NA
ATOM      4  C   UNL     1      29.049  25.192  21.348  0.00  0.00    +0.000 A 
ATOM      5  C   UNL     1      28.412  26.389  21.627  0.00  0.00    +0.000 A 
ATOM      6  C   UNL     1      27.484  26.642  22.760  0.00  0.00    +0.000 C 
ATOM      7  C   UNL     1      28.759  27.336  20.696  0.00  0.00    +0.000 A 
ENDROOT
BRANCH   4   8
ATOM      8  C   UNL     1      28.903  23.983  22.136  0.00  0.00    +0.000 C 
ATOM      9  O   UNL     1      27.931  23.193  21.941  0.00  0.00    +0.000 OA
BRANCH   8  10
ATOM     10  O   UNL     1      29.785  23.606  23.135  0.00  0.00    +0.000 OA
BRANCH  10  11
ATOM     11  C   UNL     1      29.589  22.619  24.089  0.00  0.00    +0.000 C 
BRANCH  11  12
ATOM     12  C   UNL     1      30.372  22.802  25.324  0.00  0.00    +0.000 A 
ATOM     13  C   UNL     1      30.203  22.077  26.483  0.00  0.00    +0.000 A 
ATOM     14  C   UNL     1      30.993  22.319  27.609  0.00  0.00    +0.000 A 
ATOM     15  C   UNL     1      31.961  23.292  27.580  0.00  0.00    +0.000 A 
ATOM     16  C   UNL     1      32.144  24.028  26.428  0.00  0.00    +0.000 A 
ATOM     17  C   UNL     1      31.353  23.771  25.329  0.00  0.00    +0.000 A 
ENDBRANCH  11  12
ENDBRANCH  10  11
ENDBRANCH   8  10
ENDBRANCH   4   8
BRANCH   7  18
ATOM     18  C   UNL     1      28.336  28.754  20.577  0.00  0.00    +0.000 C 
BRANCH  18  19
ATOM     19  C   UNL     1      27.028  28.826  19.819  0.00  0.00    +0.000 C 
ATOM     20  O   UNL     1      27.315  29.133  18.497  0.00  0.00    +0.000 OA
ENDBRANCH  18  19
ENDBRANCH   7  18
TORSDOF 6
ENDMDL
MODEL 8
REMARK VINA RESULT:      -6.0     17.428     19.280
REMARK  Name = 
REMARK  6 active torsions:
REMARK  status: ('A' for Active; 'I' for Inactive)
REMARK    1  A    between atoms: C_4  and  C_5
REMARK    2  A    between atoms: C_5  and  O_7
REMARK    3  A    between atoms: O_7  and  C_8
REMARK    4  A    between atoms: C_8  and  C_9
REMARK    5  A    between atoms: C_17  and  C_18
REMARK    6  A    between atoms: C_18  and  C_19
REMARK                            x       y       z     vdW  Elec       q    Type
REMARK                         _______ _______ _______ _____ _____    ______ ____
ROOT
ATOM      1  C   UNL     1      24.793  26.456  32.415  0.00  0.00    +0.000 C 
ATOM      2  C   UNL     1      25.138  25.711  31.188  0.00  0.00    +0.000 A 
ATOM      3  N   UNL     1      25.905  24.595  31.181  0.00  0.00    +0.000 NA
ATOM      4  C   UNL     1      26.051  24.135  29.934  0.00  0.00    +0.000 A 
ATOM      5  C   UNL     1      25.339  25.010  29.132  0.00  0.00    +0.000 A 
ATOM      6  C   UNL     1      25.198  24.921  27.654  0.00  0.00    +0.000 C 
ATOM      7  C   UNL     1      24.766  25.993  29.897  0.00  0.00    +0.000 A 
ENDROOT
BRANCH   4   8
ATOM      8  C   UNL     1      26.779  22.980  29.444  0.00  0.00    +0.000 C 
ATOM      9  O   UNL     1      26.582  21.830  29.940  0.00  0.00    +0.000 OA
BRANCH   8  10
ATOM     10  O   UNL     1      27.720  23.037  28.431  0.00  0.00    +0.000 OA
BRANCH  10  11
ATOM     11  C   UNL     1      28.159  21.985  27.642  0.00  0.00    +0.000 C 
BRANCH  11  12
ATOM     12  C   UNL     1      28.717  22.392  26.339  0.00  0.00    +0.000 A 
ATOM     13  C   UNL     1      30.042  22.286  25.979  0.00  0.00    +0.000 A 
ATOM     14  C   UNL     1      30.484  22.698  24.720  0.00  0.00    +0.000 A 
ATOM     15  C   UNL     1      29.597  23.218  23.810  0.00  0.00    +0.000 A 
ATOM     16  C   UNL     1      28.266  23.331  24.154  0.00  0.00    +0.000 A 
ATOM     17  C   UNL     1      27.853  22.918  25.403  0.00  0.00    +0.000 A 
ENDBRANCH  11  12
ENDBRANCH  10  11
ENDBRANCH   8  10
ENDBRANCH   4   8
BRANCH   7  18
ATOM     18  C   UNL     1      23.919  27.142  29.493  0.00  0.00    +0.000 C 
BRANCH  18  19
ATOM     19  C   UNL     1      22.506  26.661  29.242  0.00  0.00    +0.000 C 
ATOM     20  O   UNL     1      21.835  26.647  30.457  0.00  0.00    +0.000 OA
ENDBRANCH  18  19
ENDBRANCH   7  18
TORSDOF 6
ENDMDL
MODEL 9
REMARK VINA RESULT:      -6.0     28.098     31.514
REMARK  Name = 
REMARK  6 active torsions:
REMARK  status: ('A' for Active; 'I' for Inactive)
REMARK    1  A    between atoms: C_4  and  C_5
REMARK    2  A    between atoms: C_5  and  O_7
REMARK    3  A    between atoms: O_7  and  C_8
REMARK    4  A    between atoms: C_8  and  C_9
REMARK    5  A    between atoms: C_17  and  C_18
REMARK    6  A    between atoms: C_18  and  C_19
REMARK                            x       y       z     vdW  Elec       q    Type
REMARK                         _______ _______ _______ _____ _____    ______ ____
ROOT
ATOM      1  C   UNL     1      35.294  24.184   8.896  0.00  0.00    +0.000 C 
ATOM      2  C   UNL     1      34.213  23.258   9.288  0.00  0.00    +0.000 A 
ATOM      3  N   UNL     1      34.014  22.836  10.560  0.00  0.00    +0.000 NA
ATOM      4  C   UNL     1      32.967  22.006  10.619  0.00  0.00    +0.000 A 
ATOM      5  C   UNL     1      32.497  21.911   9.321  0.00  0.00    +0.000 A 
ATOM      6  C   UNL     1      31.335  21.099   8.870  0.00  0.00    +0.000 C 
ATOM      7  C   UNL     1      33.261  22.684   8.483  0.00  0.00    +0.000 A 
ENDROOT
BRANCH   4   8
ATOM      8  C   UNL     1      32.387  21.316  11.755  0.00  0.00    +0.000 C 
ATOM      9  O   UNL     1      33.045  20.435  12.386  0.00  0.00    +0.000 OA
BRANCH   8  10
ATOM     10  O   UNL     1      31.107  21.553  12.226  0.00  0.00    +0.000 OA
BRANCH  10  11
ATOM     11  C   UNL     1      30.550  22.785  12.538  0.00  0.00    +0.000 C 
BRANCH  11  12
ATOM     12  C   UNL     1      29.081  22.832  12.431  0.00  0.00    +0.000 A 
ATOM     13  C   UNL     1      28.347  22.310  11.389  0.00  0.00    +0.000 A 
ATOM     14  C   UNL     1      26.953  22.401  11.370  0.00  0.00    +0.000 A 
ATOM     15  C   UNL     1      26.285  23.017  12.399  0.00  0.00    +0.000 A 
ATOM     16  C   UNL     1      27.003  23.546  13.450  0.00  0.00    +0.000 A 
ATOM     17  C   UNL     1      28.378  23.444  13.447  0.00  0.00    +0.000 A 
ENDBRANCH  11  12
ENDBRANCH  10  11
ENDBRANCH   8  10
ENDBRANCH   4   8
BRANCH   7  18
ATOM     18  C   UNL     1      33.147  22.901   7.020  0.00  0.00    +0.000 C 
BRANCH  18  19
ATOM     19  C   UNL     1      33.943  21.841   6.291  0.00  0.00    +0.000 C 
ATOM     20  O   UNL     1      33.529  21.827   4.967  0.00  0.00    +0.000 OA
ENDBRANCH  18  19
ENDBRANCH   7  18
TORSDOF 6
ENDMDL
MODEL 10
REMARK VINA RESULT:      -5.9     16.770     19.286
REMARK  Name = 
REMARK  6 active torsions:
REMARK  status: ('A' for Active; 'I' for Inactive)
REMARK    1  A    between atoms: C_4  and  C_5
REMARK    2  A    between atoms: C_5  and  O_7
REMARK    3  A    between atoms: O_7  and  C_8
REMARK    4  A    between atoms: C_8  and  C_9
REMARK    5  A    between atoms: C_17  and  C_18
REMARK    6  A    between atoms: C_18  and  C_19
REMARK                            x       y       z     vdW  Elec       q    Type
REMARK                         _______ _______ _______ _____ _____    ______ ____
ROOT
ATOM      1  C   UNL     1      24.824  27.014  31.182  0.00  0.00    +0.000 C 
ATOM      2  C   UNL     1      25.254  25.806  30.449  0.00  0.00    +0.000 A 
ATOM      3  N   UNL     1      25.725  24.691  31.055  0.00  0.00    +0.000 NA
ATOM      4  C   UNL     1      26.037  23.761  30.147  0.00  0.00    +0.000 A 
ATOM      5  C   UNL     1      25.742  24.329  28.920  0.00  0.00    +0.000 A 
ATOM      6  C   UNL     1      25.918  23.681  27.593  0.00  0.00    +0.000 C 
ATOM      7  C   UNL     1      25.255  25.599  29.092  0.00  0.00    +0.000 A 
ENDROOT
BRANCH   4   8
ATOM      8  C   UNL     1      26.570  22.423  30.326  0.00  0.00    +0.000 C 
ATOM      9  O   UNL     1      25.839  21.486  30.768  0.00  0.00    +0.000 OA
BRANCH   8  10
ATOM     10  O   UNL     1      27.878  22.073  30.040  0.00  0.00    +0.000 OA
BRANCH  10  11
ATOM     11  C   UNL     1      28.980  22.916  30.020  0.00  0.00    +0.000 C 
BRANCH  11  12
ATOM     12  C   UNL     1      29.742  22.890  28.758  0.00  0.00    +0.000 A 
ATOM     13  C   UNL     1      31.017  23.386  28.595  0.00  0.00    +0.000 A 
ATOM     14  C   UNL     1      31.665  23.319  27.360  0.00  0.00    +0.000 A 
ATOM     15  C   UNL     1      31.039  22.751  26.278  0.00  0.00    +0.000 A 
ATOM     16  C   UNL     1      29.763  22.250  26.423  0.00  0.00    +0.000 A 
ATOM     17  C   UNL     1      29.142  22.327  27.652  0.00  0.00    +0.000 A 
ENDBRANCH  11  12
ENDBRANCH  10  11
ENDBRANCH   8  10
ENDBRANCH   4   8
BRANCH   7  18
ATOM     18  C   UNL     1      24.807  26.592  28.084  0.00  0.00    +0.000 C 
BRANCH  18  19
ATOM     19  C   UNL     1      25.953  27.524  27.754  0.00  0.00    +0.000 C 
ATOM     20  O   UNL     1      26.440  27.179  26.502  0.00  0.00    +0.000 OA
ENDBRANCH  18  19
ENDBRANCH   7  18
TORSDOF 6
ENDMDL
