MODEL 1
REMARK VINA RESULT:      -6.7      0.000      0.000
REMARK  Name = 
REMARK  2 active torsions:
REMARK  status: ('A' for Active; 'I' for Inactive)
REMARK    1  A    between atoms: C_2  and  C_3
REMARK    2  A    between atoms: C_3  and  N_4
REMARK                            x       y       z     vdW  Elec       q    Type
REMARK                         _______ _______ _______ _____ _____    ______ ____
ROOT
ATOM      1  N   UNL     1      18.266  10.307  38.178  0.00  0.00    +0.000 N 
ATOM      2  C   UNL     1      16.885  10.295  38.195  0.00  0.00    +0.000 C 
ATOM      3  O   UNL     1      16.095  10.519  39.161  0.00  0.00    +0.000 OA
ATOM      4  C   UNL     1      16.325   9.948  36.788  0.00  0.00    +0.000 C 
ATOM      5  C   UNL     1      16.082  11.528  36.353  0.00  0.00    +0.000 C 
ATOM      6  C   UNL     1      15.933  11.469  34.882  0.00  0.00    +0.000 A 
ATOM      7  C   UNL     1      16.543  10.569  34.070  0.00  0.00    +0.000 A 
ATOM      8  N   UNL     1      16.177  10.817  32.802  0.00  0.00    +0.000 NA
ATOM      9  C   UNL     1      15.326  11.877  32.753  0.00  0.00    +0.000 A 
ATOM     10  C   UNL     1      14.674  12.521  31.708  0.00  0.00    +0.000 A 
ATOM     11  C   UNL     1      13.855  13.593  31.985  0.00  0.00    +0.000 A 
ATOM     12  C   UNL     1      13.680  14.027  33.280  0.00  0.00    +0.000 A 
ATOM     13  C   UNL     1      14.341  13.367  34.291  0.00  0.00    +0.000 A 
ATOM     14  C   UNL     1      15.177  12.281  34.061  0.00  0.00    +0.000 A 
ATOM     15  C   UNL     1      17.446   9.530  34.630  0.00  0.00    +0.000 C 
ATOM     16  N   UNL     1      17.634   9.823  36.022  0.00  0.00    +0.000 N 
ATOM     17  C   UNL     1      18.705  10.022  36.863  0.00  0.00    +0.000 C 
ATOM     18  S   UNL     1      20.283   9.933  36.378  0.00  0.00    +0.000 S 
ENDROOT
BRANCH   1  19
ATOM     19  C   UNL     1      19.161  10.568  39.311  0.00  0.00    +0.000 C 
BRANCH  19  21
ATOM     20  C   UNL     1      18.635   8.887  41.049  0.00  0.00    +0.000 C 
ATOM     21  C   UNL     1      19.390   9.296  40.038  0.00  0.00    +0.000 C 
ENDBRANCH  19  21
ENDBRANCH   1  19
TORSDOF 2
ENDMDL
MODEL 2
REMARK VINA RESULT:      -6.3     21.357     23.585
REMARK  Name = 
REMARK  2 active torsions:
REMARK  status: ('A' for Active; 'I' for Inactive)
REMARK    1  A    between atoms: C_2  and  C_3
REMARK    2  A    between atoms: C_3  and  N_4
REMARK                            x       y       z     vdW  Elec       q    Type
REMARK                         _______ _______ _______ _____ _____    ______ ____
ROOT
ATOM      1  N   UNL     1      33.532  -7.291  31.072  0.00  0.00    +0.000 N 
ATOM      2  C   UNL     1      34.611  -6.739  31.734  0.00  0.00    +0.000 C 
ATOM      3  O   UNL     1      35.830  -6.701  31.383  0.00  0.00    +0.000 OA
ATOM      4  C   UNL     1      34.162  -6.107  33.080  0.00  0.00    +0.000 C 
ATOM      5  C   UNL     1      34.040  -4.573  32.468  0.00  0.00    +0.000 C 
ATOM      6  C   UNL     1      33.225  -3.856  33.474  0.00  0.00    +0.000 A 
ATOM      7  C   UNL     1      32.260  -4.421  34.243  0.00  0.00    +0.000 A 
ATOM      8  N   UNL     1      31.735  -3.473  35.036  0.00  0.00    +0.000 NA
ATOM      9  C   UNL     1      32.339  -2.275  34.809  0.00  0.00    +0.000 A 
ATOM     10  C   UNL     1      32.168  -1.008  35.354  0.00  0.00    +0.000 A 
ATOM     11  C   UNL     1      32.953   0.030  34.904  0.00  0.00    +0.000 A 
ATOM     12  C   UNL     1      33.899  -0.178  33.924  0.00  0.00    +0.000 A 
ATOM     13  C   UNL     1      34.042  -1.445  33.405  0.00  0.00    +0.000 A 
ATOM     14  C   UNL     1      33.273  -2.524  33.827  0.00  0.00    +0.000 A 
ATOM     15  C   UNL     1      31.938  -5.865  34.121  0.00  0.00    +0.000 C 
ATOM     16  N   UNL     1      32.667  -6.379  32.996  0.00  0.00    +0.000 N 
ATOM     17  C   UNL     1      32.366  -7.067  31.843  0.00  0.00    +0.000 C 
ATOM     18  S   UNL     1      30.839  -7.555  31.436  0.00  0.00    +0.000 S 
ENDROOT
BRANCH   1  19
ATOM     19  C   UNL     1      33.550  -7.998  29.786  0.00  0.00    +0.000 C 
BRANCH  19  21
ATOM     20  C   UNL     1      33.386  -5.857  28.557  0.00  0.00    +0.000 C 
ATOM     21  C   UNL     1      33.954  -7.043  28.726  0.00  0.00    +0.000 C 
ENDBRANCH  19  21
ENDBRANCH   1  19
TORSDOF 2
ENDMDL
MODEL 3
REMARK VINA RESULT:      -6.2      2.720      4.297
REMARK  Name = 
REMARK  2 active torsions:
REMARK  status: ('A' for Active; 'I' for Inactive)
REMARK    1  A    between atoms: C_2  and  C_3
REMARK    2  A    between atoms: C_3  and  N_4
REMARK                            x       y       z     vdW  Elec       q    Type
REMARK                         _______ _______ _______ _____ _____    ______ ____
ROOT
ATOM      1  N   UNL     1      18.865   7.758  40.605  0.00  0.00    +0.000 N 
ATOM      2  C   UNL     1      19.649   8.641  39.887  0.00  0.00    +0.000 C 
ATOM      3  O   UNL     1      20.891   8.585  39.636  0.00  0.00    +0.000 OA
ATOM      4  C   UNL     1      18.794   9.826  39.361  0.00  0.00    +0.000 C 
ATOM      5  C   UNL     1      18.562   9.163  37.861  0.00  0.00    +0.000 C 
ATOM      6  C   UNL     1      17.424   9.930  37.309  0.00  0.00    +0.000 A 
ATOM      7  C   UNL     1      16.414  10.464  38.041  0.00  0.00    +0.000 A 
ATOM      8  N   UNL     1      15.564  11.088  37.208  0.00  0.00    +0.000 NA
ATOM      9  C   UNL     1      15.993  10.977  35.921  0.00  0.00    +0.000 A 
ATOM     10  C   UNL     1      15.487  11.434  34.711  0.00  0.00    +0.000 A 
ATOM     11  C   UNL     1      16.169  11.154  33.547  0.00  0.00    +0.000 A 
ATOM     12  C   UNL     1      17.340  10.430  33.577  0.00  0.00    +0.000 A 
ATOM     13  C   UNL     1      17.814   9.992  34.793  0.00  0.00    +0.000 A 
ATOM     14  C   UNL     1      17.161  10.249  35.993  0.00  0.00    +0.000 A 
ATOM     15  C   UNL     1      16.380  10.308  39.517  0.00  0.00    +0.000 C 
ATOM     16  N   UNL     1      17.429   9.400  39.883  0.00  0.00    +0.000 N 
ATOM     17  C   UNL     1      17.529   8.227  40.594  0.00  0.00    +0.000 C 
ATOM     18  S   UNL     1      16.248   7.485  41.329  0.00  0.00    +0.000 S 
ENDROOT
BRANCH   1  19
ATOM     19  C   UNL     1      19.306   6.531  41.279  0.00  0.00    +0.000 C 
BRANCH  19  21
ATOM     20  C   UNL     1      20.169   4.461  40.235  0.00  0.00    +0.000 C 
ATOM     21  C   UNL     1      19.246   5.410  40.311  0.00  0.00    +0.000 C 
ENDBRANCH  19  21
ENDBRANCH   1  19
TORSDOF 2
ENDMDL
MODEL 4
REMARK VINA RESULT:      -6.2     19.663     20.817
REMARK  Name = 
REMARK  2 active torsions:
REMARK  status: ('A' for Active; 'I' for Inactive)
REMARK    1  A    between atoms: C_2  and  C_3
REMARK    2  A    between atoms: C_3  and  N_4
REMARK                            x       y       z     vdW  Elec       q    Type
REMARK                         _______ _______ _______ _____ _____    ______ ____
ROOT
ATOM      1  N   UNL     1      27.619  23.224  27.398  0.00  0.00    +0.000 N 
ATOM      2  C   UNL     1      26.574  23.464  26.527  0.00  0.00    +0.000 C 
ATOM      3  O   UNL     1      25.381  23.808  26.785  0.00  0.00    +0.000 OA
ATOM      4  C   UNL     1      27.030  23.254  25.056  0.00  0.00    +0.000 C 
ATOM      5  C   UNL     1      27.329  24.860  24.784  0.00  0.00    +0.000 C 
ATOM      6  C   UNL     1      28.170  24.860  23.567  0.00  0.00    +0.000 A 
ATOM      7  C   UNL     1      29.043  23.880  23.220  0.00  0.00    +0.000 A 
ATOM      8  N   UNL     1      29.627  24.217  22.059  0.00  0.00    +0.000 NA
ATOM      9  C   UNL     1      29.156  25.415  21.620  0.00  0.00    +0.000 A 
ATOM     10  C   UNL     1      29.430  26.189  20.499  0.00  0.00    +0.000 A 
ATOM     11  C   UNL     1      28.771  27.387  20.330  0.00  0.00    +0.000 A 
ATOM     12  C   UNL     1      27.850  27.819  21.258  0.00  0.00    +0.000 A 
ATOM     13  C   UNL     1      27.602  27.029  22.358  0.00  0.00    +0.000 A 
ATOM     14  C   UNL     1      28.242  25.813  22.571  0.00  0.00    +0.000 A 
ATOM     15  C   UNL     1      29.223  22.683  24.081  0.00  0.00    +0.000 C 
ATOM     16  N   UNL     1      28.492  22.908  25.296  0.00  0.00    +0.000 N 
ATOM     17  C   UNL     1      28.769  22.890  26.643  0.00  0.00    +0.000 C 
ATOM     18  S   UNL     1      30.254  22.525  27.272  0.00  0.00    +0.000 S 
ENDROOT
BRANCH   1  19
ATOM     19  C   UNL     1      27.582  23.293  28.863  0.00  0.00    +0.000 C 
BRANCH  19  21
ATOM     20  C   UNL     1      26.431  21.821  30.484  0.00  0.00    +0.000 C 
ATOM     21  C   UNL     1      27.165  21.972  29.391  0.00  0.00    +0.000 C 
ENDBRANCH  19  21
ENDBRANCH   1  19
TORSDOF 2
ENDMDL
MODEL 5
REMARK VINA RESULT:      -6.1     21.725     23.824
REMARK  Name = 
REMARK  2 active torsions:
REMARK  status: ('A' for Active; 'I' for Inactive)
REMARK    1  A    between atoms: C_2  and  C_3
REMARK    2  A    between atoms: C_3  and  N_4
REMARK                            x       y       z     vdW  Elec       q    Type
REMARK                         _______ _______ _______ _____ _____    ______ ____
ROOT
ATOM      1  N   UNL     1      33.983  -2.649  35.607  0.00  0.00    +0.000 N 
ATOM      2  C   UNL     1      32.851  -3.170  35.012  0.00  0.00    +0.000 C 
ATOM      3  O   UNL     1      31.707  -2.641  34.871  0.00  0.00    +0.000 OA
ATOM      4  C   UNL     1      33.124  -4.603  34.478  0.00  0.00    +0.000 C 
ATOM      5  C   UNL     1      33.436  -4.106  32.929  0.00  0.00    +0.000 C 
ATOM      6  C   UNL     1      34.127  -5.263  32.320  0.00  0.00    +0.000 A 
ATOM      7  C   UNL     1      34.924  -6.137  32.987  0.00  0.00    +0.000 A 
ATOM      8  N   UNL     1      35.377  -7.054  32.117  0.00  0.00    +0.000 NA
ATOM      9  C   UNL     1      34.893  -6.806  30.870  0.00  0.00    +0.000 A 
ATOM     10  C   UNL     1      35.055  -7.444  29.646  0.00  0.00    +0.000 A 
ATOM     11  C   UNL     1      34.416  -6.939  28.535  0.00  0.00    +0.000 A 
ATOM     12  C   UNL     1      33.624  -5.817  28.629  0.00  0.00    +0.000 A 
ATOM     13  C   UNL     1      33.484  -5.210  29.856  0.00  0.00    +0.000 A 
ATOM     14  C   UNL     1      34.109  -5.681  31.005  0.00  0.00    +0.000 A 
ATOM     15  C   UNL     1      35.169  -5.982  34.444  0.00  0.00    +0.000 C 
ATOM     16  N   UNL     1      34.593  -4.732  34.851  0.00  0.00    +0.000 N 
ATOM     17  C   UNL     1      35.027  -3.601  35.503  0.00  0.00    +0.000 C 
ATOM     18  S   UNL     1      36.564  -3.403  36.078  0.00  0.00    +0.000 S 
ENDROOT
BRANCH   1  19
ATOM     19  C   UNL     1      34.121  -1.337  36.249  0.00  0.00    +0.000 C 
BRANCH  19  21
ATOM     20  C   UNL     1      33.376   0.578  34.873  0.00  0.00    +0.000 C 
ATOM     21  C   UNL     1      34.305  -0.310  35.196  0.00  0.00    +0.000 C 
ENDBRANCH  19  21
ENDBRANCH   1  19
TORSDOF 2
ENDMDL
MODEL 6
REMARK VINA RESULT:      -5.9     21.125     22.703
REMARK  Name = 
REMARK  2 active torsions:
REMARK  status: ('A' for Active; 'I' for Inactive)
REMARK    1  A    between atoms: C_2  and  C_3
REMARK    2  A    between atoms: C_3  and  N_4
REMARK                            x       y       z     vdW  Elec       q    Type
REMARK                         _______ _______ _______ _____ _____    ______ ____
ROOT
ATOM      1  N   UNL     1      21.160   2.429  15.179  0.00  0.00    +0.000 N 
ATOM      2  C   UNL     1      22.394   2.378  14.561  0.00  0.00    +0.000 C 
ATOM      3  O   UNL     1      22.669   2.384  13.322  0.00  0.00    +0.000 OA
ATOM      4  C   UNL     1      23.532   2.305  15.616  0.00  0.00    +0.000 C 
ATOM      5  C   UNL     1      23.836   3.933  15.590  0.00  0.00    +0.000 C 
ATOM      6  C   UNL     1      24.614   4.166  16.827  0.00  0.00    +0.000 A 
ATOM      7  C   UNL     1      24.477   3.461  17.979  0.00  0.00    +0.000 A 
ATOM      8  N   UNL     1      25.342   3.948  18.885  0.00  0.00    +0.000 NA
ATOM      9  C   UNL     1      26.059   4.974  18.352  0.00  0.00    +0.000 A 
ATOM     10  C   UNL     1      27.057   5.797  18.860  0.00  0.00    +0.000 A 
ATOM     11  C   UNL     1      27.602   6.771  18.053  0.00  0.00    +0.000 A 
ATOM     12  C   UNL     1      27.168   6.933  16.757  0.00  0.00    +0.000 A 
ATOM     13  C   UNL     1      26.177   6.101  16.285  0.00  0.00    +0.000 A 
ATOM     14  C   UNL     1      25.597   5.105  17.061  0.00  0.00    +0.000 A 
ATOM     15  C   UNL     1      23.491   2.356  18.082  0.00  0.00    +0.000 C 
ATOM     16  N   UNL     1      22.697   2.369  16.887  0.00  0.00    +0.000 N 
ATOM     17  C   UNL     1      21.357   2.424  16.581  0.00  0.00    +0.000 C 
ATOM     18  S   UNL     1      20.156   2.474  17.717  0.00  0.00    +0.000 S 
ENDROOT
BRANCH   1  19
ATOM     19  C   UNL     1      19.846   2.481  14.528  0.00  0.00    +0.000 C 
BRANCH  19  21
ATOM     20  C   UNL     1      19.436   4.133  12.733  0.00  0.00    +0.000 C 
ATOM     21  C   UNL     1      19.625   3.854  14.015  0.00  0.00    +0.000 C 
ENDBRANCH  19  21
ENDBRANCH   1  19
TORSDOF 2
ENDMDL
MODEL 7
REMARK VINA RESULT:      -5.8      4.810      6.865
REMARK  Name = 
REMARK  2 active torsions:
REMARK  status: ('A' for Active; 'I' for Inactive)
REMARK    1  A    between atoms: C_2  and  C_3
REMARK    2  A    between atoms: C_3  and  N_4
REMARK                            x       y       z     vdW  Elec       q    Type
REMARK                         _______ _______ _______ _____ _____    ______ ____
ROOT
ATOM      1  N   UNL     1      24.877   9.630  38.120  0.00  0.00    +0.000 N 
ATOM      2  C   UNL     1      24.397  10.199  36.956  0.00  0.00    +0.000 C 
ATOM      3  O   UNL     1      24.837  10.089  35.772  0.00  0.00    +0.000 OA
ATOM      4  C   UNL     1      23.146  11.072  37.251  0.00  0.00    +0.000 C 
ATOM      5  C   UNL     1      22.063   9.885  36.852  0.00  0.00    +0.000 C 
ATOM      6  C   UNL     1      20.792  10.352  37.449  0.00  0.00    +0.000 A 
ATOM      7  C   UNL     1      20.688  11.094  38.581  0.00  0.00    +0.000 A 
ATOM      8  N   UNL     1      19.387  11.331  38.820  0.00  0.00    +0.000 NA
ATOM      9  C   UNL     1      18.615  10.756  37.859  0.00  0.00    +0.000 A 
ATOM     10  C   UNL     1      17.243  10.706  37.649  0.00  0.00    +0.000 A 
ATOM     11  C   UNL     1      16.753  10.027  36.555  0.00  0.00    +0.000 A 
ATOM     12  C   UNL     1      17.609   9.403  35.675  0.00  0.00    +0.000 A 
ATOM     13  C   UNL     1      18.963   9.471  35.912  0.00  0.00    +0.000 A 
ATOM     14  C   UNL     1      19.504  10.143  37.002  0.00  0.00    +0.000 A 
ATOM     15  C   UNL     1      21.899  11.506  39.335  0.00  0.00    +0.000 C 
ATOM     16  N   UNL     1      23.025  10.835  38.749  0.00  0.00    +0.000 N 
ATOM     17  C   UNL     1      24.041  10.021  39.193  0.00  0.00    +0.000 C 
ATOM     18  S   UNL     1      24.238   9.574  40.773  0.00  0.00    +0.000 S 
ENDROOT
BRANCH   1  19
ATOM     19  C   UNL     1      26.052   8.762  38.260  0.00  0.00    +0.000 C 
BRANCH  19  21
ATOM     20  C   UNL     1      27.527  10.683  38.764  0.00  0.00    +0.000 C 
ATOM     21  C   UNL     1      27.273   9.582  38.072  0.00  0.00    +0.000 C 
ENDBRANCH  19  21
ENDBRANCH   1  19
TORSDOF 2
ENDMDL
MODEL 8
REMARK VINA RESULT:      -5.8     20.383     22.448
REMARK  Name = 
REMARK  2 active torsions:
REMARK  status: ('A' for Active; 'I' for Inactive)
REMARK    1  A    between atoms: C_2  and  C_3
REMARK    2  A    between atoms: C_3  and  N_4
REMARK                            x       y       z     vdW  Elec       q    Type
REMARK                         _______ _______ _______ _____ _____    ______ ____
ROOT
ATOM      1  N   UNL     1      32.569  -6.335  33.035  0.00  0.00    +0.000 N 
ATOM      2  C   UNL     1      33.766  -5.737  32.691  0.00  0.00    +0.000 C 
ATOM      3  O   UNL     1      34.492  -5.931  31.670  0.00  0.00    +0.000 OA
ATOM      4  C   UNL     1      34.191  -4.703  33.770  0.00  0.00    +0.000 C 
ATOM      5  C   UNL     1      33.566  -3.403  32.957  0.00  0.00    +0.000 C 
ATOM      6  C   UNL     1      33.487  -2.346  33.989  0.00  0.00    +0.000 A 
ATOM      7  C   UNL     1      33.269  -2.561  35.311  0.00  0.00    +0.000 A 
ATOM      8  N   UNL     1      33.261  -1.376  35.943  0.00  0.00    +0.000 NA
ATOM      9  C   UNL     1      33.472  -0.364  35.057  0.00  0.00    +0.000 A 
ATOM     10  C   UNL     1      33.555   1.016  35.196  0.00  0.00    +0.000 A 
ATOM     11  C   UNL     1      33.784   1.792  34.082  0.00  0.00    +0.000 A 
ATOM     12  C   UNL     1      33.932   1.213  32.841  0.00  0.00    +0.000 A 
ATOM     13  C   UNL     1      33.844  -0.157  32.738  0.00  0.00    +0.000 A 
ATOM     14  C   UNL     1      33.614  -0.981  33.833  0.00  0.00    +0.000 A 
ATOM     15  C   UNL     1      33.084  -3.937  35.838  0.00  0.00    +0.000 C 
ATOM     16  N   UNL     1      33.003  -4.825  34.713  0.00  0.00    +0.000 N 
ATOM     17  C   UNL     1      32.119  -5.776  34.256  0.00  0.00    +0.000 C 
ATOM     18  S   UNL     1      30.727  -6.192  35.044  0.00  0.00    +0.000 S 
ENDROOT
BRANCH   1  19
ATOM     19  C   UNL     1      31.854  -7.376  32.288  0.00  0.00    +0.000 C 
BRANCH  19  21
ATOM     20  C   UNL     1      29.783  -6.964  31.000  0.00  0.00    +0.000 C 
ATOM     21  C   UNL     1      31.071  -6.731  31.207  0.00  0.00    +0.000 C 
ENDBRANCH  19  21
ENDBRANCH   1  19
TORSDOF 2
ENDMDL
MODEL 9
REMARK VINA RESULT:      -5.8     20.671     22.590
REMARK  Name = 
REMARK  2 active torsions:
REMARK  status: ('A' for Active; 'I' for Inactive)
REMARK    1  A    between atoms: C_2  and  C_3
REMARK    2  A    between atoms: C_3  and  N_4
REMARK                            x       y       z     vdW  Elec       q    Type
REMARK                         _______ _______ _______ _____ _____    ______ ____
ROOT
ATOM      1  N   UNL     1      16.810  -9.906  27.649  0.00  0.00    +0.000 N 
ATOM      2  C   UNL     1      18.016  -9.896  28.322  0.00  0.00    +0.000 C 
ATOM      3  O   UNL     1      18.508 -10.774  29.094  0.00  0.00    +0.000 OA
ATOM      4  C   UNL     1      18.797  -8.587  28.024  0.00  0.00    +0.000 C 
ATOM      5  C   UNL     1      19.726  -9.259  26.830  0.00  0.00    +0.000 C 
ATOM      6  C   UNL     1      20.271  -8.089  26.106  0.00  0.00    +0.000 A 
ATOM      7  C   UNL     1      19.640  -6.896  25.964  0.00  0.00    +0.000 A 
ATOM      8  N   UNL     1      20.430  -6.075  25.252  0.00  0.00    +0.000 NA
ATOM      9  C   UNL     1      21.588  -6.706  24.914  0.00  0.00    +0.000 A 
ATOM     10  C   UNL     1      22.710  -6.307  24.199  0.00  0.00    +0.000 A 
ATOM     11  C   UNL     1      23.747  -7.197  24.022  0.00  0.00    +0.000 A 
ATOM     12  C   UNL     1      23.678  -8.468  24.546  0.00  0.00    +0.000 A 
ATOM     13  C   UNL     1      22.552  -8.831  25.250  0.00  0.00    +0.000 A 
ATOM     14  C   UNL     1      21.481  -7.969  25.454  0.00  0.00    +0.000 A 
ATOM     15  C   UNL     1      18.295  -6.672  26.551  0.00  0.00    +0.000 C 
ATOM     16  N   UNL     1      17.825  -7.932  27.054  0.00  0.00    +0.000 N 
ATOM     17  C   UNL     1      16.707  -8.717  26.887  0.00  0.00    +0.000 C 
ATOM     18  S   UNL     1      15.429  -8.304  25.923  0.00  0.00    +0.000 S 
ENDROOT
BRANCH   1  19
ATOM     19  C   UNL     1      15.783 -10.954  27.690  0.00  0.00    +0.000 C 
BRANCH  19  21
ATOM     20  C   UNL     1      16.120 -12.114  25.531  0.00  0.00    +0.000 C 
ATOM     21  C   UNL     1      16.232 -12.092  26.852  0.00  0.00    +0.000 C 
ENDBRANCH  19  21
ENDBRANCH   1  19
TORSDOF 2
ENDMDL
MODEL 10
REMARK VINA RESULT:      -5.8     21.155     22.860
REMARK  Name = 
REMARK  2 active torsions:
REMARK  status: ('A' for Active; 'I' for Inactive)
REMARK    1  A    between atoms: C_2  and  C_3
REMARK    2  A    between atoms: C_3  and  N_4
REMARK                            x       y       z     vdW  Elec       q    Type
REMARK                         _______ _______ _______ _____ _____    ______ ____
ROOT
ATOM      1  N   UNL     1      27.844  24.874  22.438  0.00  0.00    +0.000 N 
ATOM      2  C   UNL     1      29.008  24.181  22.165  0.00  0.00    +0.000 C 
ATOM      3  O   UNL     1      29.734  24.215  21.126  0.00  0.00    +0.000 OA
ATOM      4  C   UNL     1      29.391  23.265  23.360  0.00  0.00    +0.000 C 
ATOM      5  C   UNL     1      30.456  24.349  24.018  0.00  0.00    +0.000 C 
ATOM      6  C   UNL     1      30.646  23.861  25.402  0.00  0.00    +0.000 A 
ATOM      7  C   UNL     1      29.707  23.214  26.137  0.00  0.00    +0.000 A 
ATOM      8  N   UNL     1      30.229  22.923  27.340  0.00  0.00    +0.000 NA
ATOM      9  C   UNL     1      31.512  23.369  27.421  0.00  0.00    +0.000 A 
ATOM     10  C   UNL     1      32.471  23.320  28.425  0.00  0.00    +0.000 A 
ATOM     11  C   UNL     1      33.712  23.874  28.199  0.00  0.00    +0.000 A 
ATOM     12  C   UNL     1      34.005  24.470  26.992  0.00  0.00    +0.000 A 
ATOM     13  C   UNL     1      33.033  24.501  26.018  0.00  0.00    +0.000 A 
ATOM     14  C   UNL     1      31.767  23.956  26.201  0.00  0.00    +0.000 A 
ATOM     15  C   UNL     1      28.359  22.939  25.577  0.00  0.00    +0.000 C 
ATOM     16  N   UNL     1      28.264  23.622  24.318  0.00  0.00    +0.000 N 
ATOM     17  C   UNL     1      27.406  24.528  23.739  0.00  0.00    +0.000 C 
ATOM     18  S   UNL     1      26.053  25.119  24.482  0.00  0.00    +0.000 S 
ENDROOT
BRANCH   1  19
ATOM     19  C   UNL     1      27.150  25.817  21.554  0.00  0.00    +0.000 C 
BRANCH  19  21
ATOM     20  C   UNL     1      28.638  27.613  20.731  0.00  0.00    +0.000 C 
ATOM     21  C   UNL     1      27.814  27.139  21.654  0.00  0.00    +0.000 C 
ENDBRANCH  19  21
ENDBRANCH   1  19
TORSDOF 2
ENDMDL
