MODEL 1
REMARK VINA RESULT:      -7.4      0.000      0.000
REMARK  Name = 
REMARK  4 active torsions:
REMARK  status: ('A' for Active; 'I' for Inactive)
REMARK    1  A    between atoms: C_2  and  C_5
REMARK    2  A    between atoms: C_7  and  C_8
REMARK    3  A    between atoms: N_10  and  N_11
REMARK    4  A    between atoms: C_12  and  C_13
REMARK                            x       y       z     vdW  Elec       q    Type
REMARK                         _______ _______ _______ _____ _____    ______ ____
ROOT
ATOM      1  C   UNL     1      17.767   9.553  35.406  0.00  0.00    +0.000 C 
ATOM      2  O   UNL     1      17.541   8.292  35.358  0.00  0.00    +0.000 OA
ATOM      3  N   UNL     1      18.842   9.980  36.064  0.00  0.00    +0.000 NA
ENDROOT
BRANCH   1   6
ATOM      4  C   UNL     1      15.660  11.593  33.206  0.00  0.00    +0.000 A 
ATOM      5  C   UNL     1      16.558  10.553  33.372  0.00  0.00    +0.000 A 
ATOM      6  C   UNL     1      16.824  10.475  34.710  0.00  0.00    +0.000 A 
ATOM      7  N   UNL     1      16.126  11.416  35.322  0.00  0.00    +0.000 NA
ATOM      8  N   UNL     1      15.418  12.102  34.444  0.00  0.00    +0.000 NA
BRANCH   4  10
ATOM      9  C   UNL     1      16.312  12.707  31.124  0.00  0.00    +0.000 C 
ATOM     10  C   UNL     1      15.120  12.124  31.920  0.00  0.00    +0.000 C 
ATOM     11  C   UNL     1      14.154  13.238  32.200  0.00  0.00    +0.000 C 
ATOM     12  C   UNL     1      14.512  11.019  31.099  0.00  0.00    +0.000 C 
ENDBRANCH   4  10
ENDBRANCH   1   6
BRANCH   3  13
ATOM     13  N   UNL     1      19.945   9.886  36.783  0.00  0.00    +0.000 NA
ATOM     14  C   UNL     1      21.110   9.817  36.346  0.00  0.00    +0.000 C 
BRANCH  14  15
ATOM     15  C   UNL     1      22.450   9.721  36.773  0.00  0.00    +0.000 A 
ATOM     16  C   UNL     1      22.843   9.234  38.006  0.00  0.00    +0.000 A 
ATOM     17  C   UNL     1      24.155   9.191  38.349  0.00  0.00    +0.000 A 
ATOM     18  C   UNL     1      25.173   9.615  37.524  0.00  0.00    +0.000 A 
ATOM     19  C   UNL     1      24.780  10.109  36.273  0.00  0.00    +0.000 A 
ATOM     20  C   UNL     1      23.469  10.150  35.922  0.00  0.00    +0.000 A 
ENDBRANCH  14  15
ENDBRANCH   3  13
TORSDOF 4
ENDMDL
MODEL 2
REMARK VINA RESULT:      -7.4      3.753      4.676
REMARK  Name = 
REMARK  4 active torsions:
REMARK  status: ('A' for Active; 'I' for Inactive)
REMARK    1  A    between atoms: C_2  and  C_5
REMARK    2  A    between atoms: C_7  and  C_8
REMARK    3  A    between atoms: N_10  and  N_11
REMARK    4  A    between atoms: C_12  and  C_13
REMARK                            x       y       z     vdW  Elec       q    Type
REMARK                         _______ _______ _______ _____ _____    ______ ____
ROOT
ATOM      1  C   UNL     1      17.125  10.413  35.072  0.00  0.00    +0.000 C 
ATOM      2  O   UNL     1      17.779   9.433  34.566  0.00  0.00    +0.000 OA
ATOM      3  N   UNL     1      17.277  10.675  36.368  0.00  0.00    +0.000 NA
ENDROOT
BRANCH   1   6
ATOM      4  C   UNL     1      15.320  12.247  32.461  0.00  0.00    +0.000 A 
ATOM      5  C   UNL     1      16.320  11.362  32.824  0.00  0.00    +0.000 A 
ATOM      6  C   UNL     1      16.241  11.219  34.182  0.00  0.00    +0.000 A 
ATOM      7  N   UNL     1      15.248  11.975  34.616  0.00  0.00    +0.000 NA
ATOM      8  N   UNL     1      14.678  12.604  33.605  0.00  0.00    +0.000 NA
BRANCH   4  10
ATOM      9  C   UNL     1      14.047  13.960  31.258  0.00  0.00    +0.000 C 
ATOM     10  C   UNL     1      15.042  12.785  31.096  0.00  0.00    +0.000 C 
ATOM     11  C   UNL     1      14.385  11.727  30.260  0.00  0.00    +0.000 C 
ATOM     12  C   UNL     1      16.299  13.327  30.470  0.00  0.00    +0.000 C 
ENDBRANCH   4  10
ENDBRANCH   1   6
BRANCH   3  13
ATOM     13  N   UNL     1      17.743  10.521  37.593  0.00  0.00    +0.000 NA
ATOM     14  C   UNL     1      17.135  10.026  38.562  0.00  0.00    +0.000 C 
BRANCH  14  15
ATOM     15  C   UNL     1      17.293   9.709  39.925  0.00  0.00    +0.000 A 
ATOM     16  C   UNL     1      18.515   9.554  40.553  0.00  0.00    +0.000 A 
ATOM     17  C   UNL     1      18.583   9.230  41.870  0.00  0.00    +0.000 A 
ATOM     18  C   UNL     1      17.474   9.034  42.664  0.00  0.00    +0.000 A 
ATOM     19  C   UNL     1      16.234   9.191  42.033  0.00  0.00    +0.000 A 
ATOM     20  C   UNL     1      16.159   9.520  40.717  0.00  0.00    +0.000 A 
ENDBRANCH  14  15
ENDBRANCH   3  13
TORSDOF 4
ENDMDL
MODEL 3
REMARK VINA RESULT:      -7.2      1.235      1.956
REMARK  Name = 
REMARK  4 active torsions:
REMARK  status: ('A' for Active; 'I' for Inactive)
REMARK    1  A    between atoms: C_2  and  C_5
REMARK    2  A    between atoms: C_7  and  C_8
REMARK    3  A    between atoms: N_10  and  N_11
REMARK    4  A    between atoms: C_12  and  C_13
REMARK                            x       y       z     vdW  Elec       q    Type
REMARK                         _______ _______ _______ _____ _____    ______ ____
ROOT
ATOM      1  C   UNL     1      16.730  10.719  35.902  0.00  0.00    +0.000 C 
ATOM      2  O   UNL     1      16.209  10.559  37.062  0.00  0.00    +0.000 OA
ATOM      3  N   UNL     1      17.951  10.236  35.683  0.00  0.00    +0.000 NA
ENDROOT
BRANCH   1   6
ATOM      4  C   UNL     1      15.138  12.189  32.945  0.00  0.00    +0.000 A 
ATOM      5  C   UNL     1      16.041  11.297  33.495  0.00  0.00    +0.000 A 
ATOM      6  C   UNL     1      15.938  11.423  34.853  0.00  0.00    +0.000 A 
ATOM      7  N   UNL     1      15.023  12.340  35.110  0.00  0.00    +0.000 NA
ATOM      8  N   UNL     1      14.526  12.818  33.985  0.00  0.00    +0.000 NA
BRANCH   4  10
ATOM      9  C   UNL     1      14.519  11.157  30.812  0.00  0.00    +0.000 C 
ATOM     10  C   UNL     1      14.925  12.484  31.497  0.00  0.00    +0.000 C 
ATOM     11  C   UNL     1      16.211  12.954  30.884  0.00  0.00    +0.000 C 
ATOM     12  C   UNL     1      13.799  13.464  31.312  0.00  0.00    +0.000 C 
ENDBRANCH   4  10
ENDBRANCH   1   6
BRANCH   3  13
ATOM     13  N   UNL     1      19.084   9.623  35.966  0.00  0.00    +0.000 NA
ATOM     14  C   UNL     1      20.009  10.064  36.676  0.00  0.00    +0.000 C 
BRANCH  14  15
ATOM     15  C   UNL     1      21.280   9.722  37.179  0.00  0.00    +0.000 A 
ATOM     16  C   UNL     1      22.413   9.572  36.400  0.00  0.00    +0.000 A 
ATOM     17  C   UNL     1      23.599   9.223  36.960  0.00  0.00    +0.000 A 
ATOM     18  C   UNL     1      23.768   8.997  38.308  0.00  0.00    +0.000 A 
ATOM     19  C   UNL     1      22.624   9.149  39.102  0.00  0.00    +0.000 A 
ATOM     20  C   UNL     1      21.435   9.502  38.548  0.00  0.00    +0.000 A 
ENDBRANCH  14  15
ENDBRANCH   3  13
TORSDOF 4
ENDMDL
MODEL 4
REMARK VINA RESULT:      -6.9      3.555      8.614
REMARK  Name = 
REMARK  4 active torsions:
REMARK  status: ('A' for Active; 'I' for Inactive)
REMARK    1  A    between atoms: C_2  and  C_5
REMARK    2  A    between atoms: C_7  and  C_8
REMARK    3  A    between atoms: N_10  and  N_11
REMARK    4  A    between atoms: C_12  and  C_13
REMARK                            x       y       z     vdW  Elec       q    Type
REMARK                         _______ _______ _______ _____ _____    ______ ____
ROOT
ATOM      1  C   UNL     1      17.893  10.265  36.401  0.00  0.00    +0.000 C 
ATOM      2  O   UNL     1      18.802   9.943  35.556  0.00  0.00    +0.000 OA
ATOM      3  N   UNL     1      16.939  11.109  36.014  0.00  0.00    +0.000 NA
ENDROOT
BRANCH   1   6
ATOM      4  C   UNL     1      17.528   9.102  39.857  0.00  0.00    +0.000 A 
ATOM      5  C   UNL     1      17.018   9.786  38.768  0.00  0.00    +0.000 A 
ATOM      6  C   UNL     1      17.940   9.667  37.765  0.00  0.00    +0.000 A 
ATOM      7  N   UNL     1      18.951   8.950  38.222  0.00  0.00    +0.000 NA
ATOM      8  N   UNL     1      18.731   8.597  39.475  0.00  0.00    +0.000 NA
BRANCH   4  10
ATOM      9  C   UNL     1      16.891   7.499  41.598  0.00  0.00    +0.000 C 
ATOM     10  C   UNL     1      16.930   9.000  41.222  0.00  0.00    +0.000 C 
ATOM     11  C   UNL     1      15.520   9.513  41.194  0.00  0.00    +0.000 C 
ATOM     12  C   UNL     1      17.788   9.709  42.234  0.00  0.00    +0.000 C 
ENDBRANCH   4  10
ENDBRANCH   1   6
BRANCH   3  13
ATOM     13  N   UNL     1      16.284  11.911  35.196  0.00  0.00    +0.000 NA
ATOM     14  C   UNL     1      15.885  11.635  34.047  0.00  0.00    +0.000 C 
BRANCH  14  15
ATOM     15  C   UNL     1      15.193  12.188  32.952  0.00  0.00    +0.000 A 
ATOM     16  C   UNL     1      15.277  11.713  31.656  0.00  0.00    +0.000 A 
ATOM     17  C   UNL     1      14.591  12.313  30.651  0.00  0.00    +0.000 A 
ATOM     18  C   UNL     1      13.779  13.412  30.833  0.00  0.00    +0.000 A 
ATOM     19  C   UNL     1      13.690  13.897  32.143  0.00  0.00    +0.000 A 
ATOM     20  C   UNL     1      14.371  13.297  33.155  0.00  0.00    +0.000 A 
ENDBRANCH  14  15
ENDBRANCH   3  13
TORSDOF 4
ENDMDL
MODEL 5
REMARK VINA RESULT:      -6.8      1.993      8.431
REMARK  Name = 
REMARK  4 active torsions:
REMARK  status: ('A' for Active; 'I' for Inactive)
REMARK    1  A    between atoms: C_2  and  C_5
REMARK    2  A    between atoms: C_7  and  C_8
REMARK    3  A    between atoms: N_10  and  N_11
REMARK    4  A    between atoms: C_12  and  C_13
REMARK                            x       y       z     vdW  Elec       q    Type
REMARK                         _______ _______ _______ _____ _____    ______ ____
ROOT
ATOM      1  C   UNL     1      16.683  10.877  37.482  0.00  0.00    +0.000 C 
ATOM      2  O   UNL     1      15.680  10.689  38.259  0.00  0.00    +0.000 OA
ATOM      3  N   UNL     1      16.489  11.544  36.346  0.00  0.00    +0.000 NA
ENDROOT
BRANCH   1   6
ATOM      4  C   UNL     1      20.177   9.978  38.130  0.00  0.00    +0.000 A 
ATOM      5  C   UNL     1      19.251  10.820  37.541  0.00  0.00    +0.000 A 
ATOM      6  C   UNL     1      18.016  10.353  37.896  0.00  0.00    +0.000 A 
ATOM      7  N   UNL     1      18.185   9.287  38.659  0.00  0.00    +0.000 NA
ATOM      8  N   UNL     1      19.472   9.039  38.816  0.00  0.00    +0.000 NA
BRANCH   4  10
ATOM      9  C   UNL     1      22.104  11.488  38.204  0.00  0.00    +0.000 C 
ATOM     10  C   UNL     1      21.662  10.022  37.981  0.00  0.00    +0.000 C 
ATOM     11  C   UNL     1      22.041   9.624  36.585  0.00  0.00    +0.000 C 
ATOM     12  C   UNL     1      22.329   9.174  39.031  0.00  0.00    +0.000 C 
ENDBRANCH   4  10
ENDBRANCH   1   6
BRANCH   3  13
ATOM     13  N   UNL     1      15.816  12.205  35.425  0.00  0.00    +0.000 NA
ATOM     14  C   UNL     1      15.669  11.873  34.232  0.00  0.00    +0.000 C 
BRANCH  14  15
ATOM     15  C   UNL     1      15.056  12.288  33.034  0.00  0.00    +0.000 A 
ATOM     16  C   UNL     1      15.197  11.641  31.820  0.00  0.00    +0.000 A 
ATOM     17  C   UNL     1      14.586  12.115  30.705  0.00  0.00    +0.000 A 
ATOM     18  C   UNL     1      13.799  13.247  30.690  0.00  0.00    +0.000 A 
ATOM     19  C   UNL     1      13.652  13.905  31.917  0.00  0.00    +0.000 A 
ATOM     20  C   UNL     1      14.257  13.433  33.037  0.00  0.00    +0.000 A 
ENDBRANCH  14  15
ENDBRANCH   3  13
TORSDOF 4
ENDMDL
MODEL 6
REMARK VINA RESULT:      -6.5      3.097      8.814
REMARK  Name = 
REMARK  4 active torsions:
REMARK  status: ('A' for Active; 'I' for Inactive)
REMARK    1  A    between atoms: C_2  and  C_5
REMARK    2  A    between atoms: C_7  and  C_8
REMARK    3  A    between atoms: N_10  and  N_11
REMARK    4  A    between atoms: C_12  and  C_13
REMARK                            x       y       z     vdW  Elec       q    Type
REMARK                         _______ _______ _______ _____ _____    ______ ____
ROOT
ATOM      1  C   UNL     1      16.600  10.814  37.378  0.00  0.00    +0.000 C 
ATOM      2  O   UNL     1      15.485  10.845  38.009  0.00  0.00    +0.000 OA
ATOM      3  N   UNL     1      16.689  11.459  36.216  0.00  0.00    +0.000 NA
ENDROOT
BRANCH   1   6
ATOM      4  C   UNL     1      19.051   8.886  39.303  0.00  0.00    +0.000 A 
ATOM      5  C   UNL     1      17.753   9.331  39.130  0.00  0.00    +0.000 A 
ATOM      6  C   UNL     1      17.743  10.072  37.981  0.00  0.00    +0.000 A 
ATOM      7  N   UNL     1      18.969  10.075  37.486  0.00  0.00    +0.000 NA
ATOM      8  N   UNL     1      19.775   9.371  38.259  0.00  0.00    +0.000 NA
BRANCH   4  10
ATOM      9  C   UNL     1      19.087   8.775  41.750  0.00  0.00    +0.000 C 
ATOM     10  C   UNL     1      19.592   8.100  40.452  0.00  0.00    +0.000 C 
ATOM     11  C   UNL     1      21.091   8.160  40.444  0.00  0.00    +0.000 C 
ATOM     12  C   UNL     1      19.065   6.690  40.429  0.00  0.00    +0.000 C 
ENDBRANCH   4  10
ENDBRANCH   1   6
BRANCH   3  13
ATOM     13  N   UNL     1      16.281  12.195  35.200  0.00  0.00    +0.000 NA
ATOM     14  C   UNL     1      15.603  11.807  34.228  0.00  0.00    +0.000 C 
BRANCH  14  15
ATOM     15  C   UNL     1      15.010  12.267  33.036  0.00  0.00    +0.000 A 
ATOM     16  C   UNL     1      15.126  11.635  31.812  0.00  0.00    +0.000 A 
ATOM     17  C   UNL     1      14.537  12.154  30.705  0.00  0.00    +0.000 A 
ATOM     18  C   UNL     1      13.798  13.317  30.708  0.00  0.00    +0.000 A 
ATOM     19  C   UNL     1      13.677  13.961  31.946  0.00  0.00    +0.000 A 
ATOM     20  C   UNL     1      14.260  13.444  33.059  0.00  0.00    +0.000 A 
ENDBRANCH  14  15
ENDBRANCH   3  13
TORSDOF 4
ENDMDL
MODEL 7
REMARK VINA RESULT:      -6.5     16.446     18.513
REMARK  Name = 
REMARK  4 active torsions:
REMARK  status: ('A' for Active; 'I' for Inactive)
REMARK    1  A    between atoms: C_2  and  C_5
REMARK    2  A    between atoms: C_7  and  C_8
REMARK    3  A    between atoms: N_10  and  N_11
REMARK    4  A    between atoms: C_12  and  C_13
REMARK                            x       y       z     vdW  Elec       q    Type
REMARK                         _______ _______ _______ _____ _____    ______ ____
ROOT
ATOM      1  C   UNL     1      33.673   1.158  33.222  0.00  0.00    +0.000 C 
ATOM      2  O   UNL     1      34.113   1.147  32.017  0.00  0.00    +0.000 OA
ATOM      3  N   UNL     1      33.577   2.327  33.852  0.00  0.00    +0.000 NA
ENDROOT
BRANCH   1   6
ATOM      4  C   UNL     1      33.081  -2.262  34.401  0.00  0.00    +0.000 A 
ATOM      5  C   UNL     1      33.813  -1.374  33.632  0.00  0.00    +0.000 A 
ATOM      6  C   UNL     1      33.278  -0.135  33.850  0.00  0.00    +0.000 A 
ATOM      7  N   UNL     1      32.278  -0.265  34.704  0.00  0.00    +0.000 NA
ATOM      8  N   UNL     1      32.137  -1.531  35.052  0.00  0.00    +0.000 NA
BRANCH   4  10
ATOM      9  C   UNL     1      33.536  -4.230  33.015  0.00  0.00    +0.000 C 
ATOM     10  C   UNL     1      33.227  -3.747  34.452  0.00  0.00    +0.000 C 
ATOM     11  C   UNL     1      31.931  -4.366  34.886  0.00  0.00    +0.000 C 
ATOM     12  C   UNL     1      34.384  -4.140  35.331  0.00  0.00    +0.000 C 
ENDBRANCH   4  10
ENDBRANCH   1   6
BRANCH   3  13
ATOM     13  N   UNL     1      33.671   3.633  34.011  0.00  0.00    +0.000 NA
ATOM     14  C   UNL     1      34.340   4.229  34.878  0.00  0.00    +0.000 C 
BRANCH  14  15
ATOM     15  C   UNL     1      34.672   5.522  35.327  0.00  0.00    +0.000 A 
ATOM     16  C   UNL     1      33.875   6.288  36.159  0.00  0.00    +0.000 A 
ATOM     17  C   UNL     1      34.259   7.534  36.533  0.00  0.00    +0.000 A 
ATOM     18  C   UNL     1      35.437   8.123  36.128  0.00  0.00    +0.000 A 
ATOM     19  C   UNL     1      36.248   7.351  35.286  0.00  0.00    +0.000 A 
ATOM     20  C   UNL     1      35.872   6.101  34.912  0.00  0.00    +0.000 A 
ENDBRANCH  14  15
ENDBRANCH   3  13
TORSDOF 4
ENDMDL
MODEL 8
REMARK VINA RESULT:      -6.4     16.278     17.941
REMARK  Name = 
REMARK  4 active torsions:
REMARK  status: ('A' for Active; 'I' for Inactive)
REMARK    1  A    between atoms: C_2  and  C_5
REMARK    2  A    between atoms: C_7  and  C_8
REMARK    3  A    between atoms: N_10  and  N_11
REMARK    4  A    between atoms: C_12  and  C_13
REMARK                            x       y       z     vdW  Elec       q    Type
REMARK                         _______ _______ _______ _____ _____    ______ ____
ROOT
ATOM      1  C   UNL     1      33.485   4.740  34.255  0.00  0.00    +0.000 C 
ATOM      2  O   UNL     1      32.370   5.209  33.829  0.00  0.00    +0.000 OA
ATOM      3  N   UNL     1      33.740   3.446  34.072  0.00  0.00    +0.000 NA
ENDROOT
BRANCH   1   6
ATOM      4  C   UNL     1      35.404   7.400  35.890  0.00  0.00    +0.000 A 
ATOM      5  C   UNL     1      34.194   6.911  35.430  0.00  0.00    +0.000 A 
ATOM      6  C   UNL     1      34.444   5.668  34.918  0.00  0.00    +0.000 A 
ATOM      7  N   UNL     1      35.734   5.419  35.061  0.00  0.00    +0.000 NA
ATOM      8  N   UNL     1      36.335   6.441  35.641  0.00  0.00    +0.000 NA
BRANCH   4  10
ATOM      9  C   UNL     1      36.909   8.621  37.389  0.00  0.00    +0.000 C 
ATOM     10  C   UNL     1      35.672   8.751  36.468  0.00  0.00    +0.000 C 
ATOM     11  C   UNL     1      34.506   9.181  37.308  0.00  0.00    +0.000 C 
ATOM     12  C   UNL     1      36.005   9.739  35.383  0.00  0.00    +0.000 C 
ENDBRANCH   4  10
ENDBRANCH   1   6
BRANCH   3  13
ATOM     13  N   UNL     1      33.518   2.208  33.675  0.00  0.00    +0.000 NA
ATOM     14  C   UNL     1      33.447   1.197  34.402  0.00  0.00    +0.000 C 
BRANCH  14  15
ATOM     15  C   UNL     1      33.232  -0.194  34.347  0.00  0.00    +0.000 A 
ATOM     16  C   UNL     1      33.892  -1.053  33.488  0.00  0.00    +0.000 A 
ATOM     17  C   UNL     1      33.614  -2.381  33.485  0.00  0.00    +0.000 A 
ATOM     18  C   UNL     1      32.680  -2.966  34.312  0.00  0.00    +0.000 A 
ATOM     19  C   UNL     1      32.010  -2.101  35.185  0.00  0.00    +0.000 A 
ATOM     20  C   UNL     1      32.287  -0.771  35.197  0.00  0.00    +0.000 A 
ENDBRANCH  14  15
ENDBRANCH   3  13
TORSDOF 4
ENDMDL
MODEL 9
REMARK VINA RESULT:      -6.4     21.525     23.175
REMARK  Name = 
REMARK  4 active torsions:
REMARK  status: ('A' for Active; 'I' for Inactive)
REMARK    1  A    between atoms: C_2  and  C_5
REMARK    2  A    between atoms: C_7  and  C_8
REMARK    3  A    between atoms: N_10  and  N_11
REMARK    4  A    between atoms: C_12  and  C_13
REMARK                            x       y       z     vdW  Elec       q    Type
REMARK                         _______ _______ _______ _____ _____    ______ ____
ROOT
ATOM      1  C   UNL     1      24.170  -7.747  23.386  0.00  0.00    +0.000 C 
ATOM      2  O   UNL     1      23.464  -7.727  22.316  0.00  0.00    +0.000 OA
ATOM      3  N   UNL     1      23.617  -7.317  24.518  0.00  0.00    +0.000 NA
ENDROOT
BRANCH   1   6
ATOM      4  C   UNL     1      27.684  -8.612  22.804  0.00  0.00    +0.000 A 
ATOM      5  C   UNL     1      26.613  -7.760  22.594  0.00  0.00    +0.000 A 
ATOM      6  C   UNL     1      25.565  -8.265  23.313  0.00  0.00    +0.000 A 
ATOM      7  N   UNL     1      25.979  -9.362  23.924  0.00  0.00    +0.000 NA
ATOM      8  N   UNL     1      27.246  -9.594  23.636  0.00  0.00    +0.000 NA
BRANCH   4  10
ATOM      9  C   UNL     1      30.024  -9.261  23.121  0.00  0.00    +0.000 C 
ATOM     10  C   UNL     1      29.037  -8.534  22.177  0.00  0.00    +0.000 C 
ATOM     11  C   UNL     1      29.461  -7.099  22.069  0.00  0.00    +0.000 C 
ATOM     12  C   UNL     1      29.053  -9.248  20.853  0.00  0.00    +0.000 C 
ENDBRANCH   4  10
ENDBRANCH   1   6
BRANCH   3  13
ATOM     13  N   UNL     1      22.676  -6.823  25.301  0.00  0.00    +0.000 NA
ATOM     14  C   UNL     1      21.456  -7.072  25.242  0.00  0.00    +0.000 C 
BRANCH  14  15
ATOM     15  C   UNL     1      20.231  -6.765  25.866  0.00  0.00    +0.000 A 
ATOM     16  C   UNL     1      19.709  -5.490  25.975  0.00  0.00    +0.000 A 
ATOM     17  C   UNL     1      18.528  -5.275  26.609  0.00  0.00    +0.000 A 
ATOM     18  C   UNL     1      17.775  -6.279  27.179  0.00  0.00    +0.000 A 
ATOM     19  C   UNL     1      18.300  -7.572  27.071  0.00  0.00    +0.000 A 
ATOM     20  C   UNL     1      19.479  -7.795  26.434  0.00  0.00    +0.000 A 
ENDBRANCH  14  15
ENDBRANCH   3  13
TORSDOF 4
ENDMDL
MODEL 10
REMARK VINA RESULT:      -6.3     16.281     18.363
REMARK  Name = 
REMARK  4 active torsions:
REMARK  status: ('A' for Active; 'I' for Inactive)
REMARK    1  A    between atoms: C_2  and  C_5
REMARK    2  A    between atoms: C_7  and  C_8
REMARK    3  A    between atoms: N_10  and  N_11
REMARK    4  A    between atoms: C_12  and  C_13
REMARK                            x       y       z     vdW  Elec       q    Type
REMARK                         _______ _______ _______ _____ _____    ______ ____
ROOT
ATOM      1  C   UNL     1      33.598   2.790  33.326  0.00  0.00    +0.000 C 
ATOM      2  O   UNL     1      33.855   2.765  32.070  0.00  0.00    +0.000 OA
ATOM      3  N   UNL     1      33.296   1.646  33.935  0.00  0.00    +0.000 NA
ENDROOT
BRANCH   1   6
ATOM      4  C   UNL     1      34.223   5.774  35.361  0.00  0.00    +0.000 A 
ATOM      5  C   UNL     1      34.623   4.525  34.920  0.00  0.00    +0.000 A 
ATOM      6  C   UNL     1      33.665   4.095  34.043  0.00  0.00    +0.000 A 
ATOM      7  N   UNL     1      32.738   5.033  33.959  0.00  0.00    +0.000 NA
ATOM      8  N   UNL     1      33.046   6.052  34.739  0.00  0.00    +0.000 NA
BRANCH   4  10
ATOM      9  C   UNL     1      36.350   6.122  36.527  0.00  0.00    +0.000 C 
ATOM     10  C   UNL     1      34.893   6.627  36.387  0.00  0.00    +0.000 C 
ATOM     11  C   UNL     1      34.209   6.457  37.711  0.00  0.00    +0.000 C 
ATOM     12  C   UNL     1      34.943   8.063  35.938  0.00  0.00    +0.000 C 
ENDBRANCH   4  10
ENDBRANCH   1   6
BRANCH   3  13
ATOM     13  N   UNL     1      33.072   0.350  34.046  0.00  0.00    +0.000 NA
ATOM     14  C   UNL     1      33.933  -0.545  34.152  0.00  0.00    +0.000 C 
BRANCH  14  15
ATOM     15  C   UNL     1      34.070  -1.940  34.290  0.00  0.00    +0.000 A 
ATOM     16  C   UNL     1      34.699  -2.561  35.354  0.00  0.00    +0.000 A 
ATOM     17  C   UNL     1      34.805  -3.913  35.404  0.00  0.00    +0.000 A 
ATOM     18  C   UNL     1      34.311  -4.753  34.430  0.00  0.00    +0.000 A 
ATOM     19  C   UNL     1      33.673  -4.129  33.351  0.00  0.00    +0.000 A 
ATOM     20  C   UNL     1      33.559  -2.777  33.297  0.00  0.00    +0.000 A 
ENDBRANCH  14  15
ENDBRANCH   3  13
TORSDOF 4
ENDMDL
