MODEL 1
REMARK VINA RESULT:      -8.4      0.000      0.000
REMARK  Name = 
REMARK  7 active torsions:
REMARK  status: ('A' for Active; 'I' for Inactive)
REMARK    1  A    between atoms: C_2  and  C_4
REMARK    2  A    between atoms: C_4  and  C_5
REMARK    3  A    between atoms: C_8  and  C_9
REMARK    4  A    between atoms: C_9  and  C_11
REMARK    5  A    between atoms: N_13  and  C_14
REMARK    6  A    between atoms: C_17  and  C_18
REMARK    7  A    between atoms: C_18  and  C_20
REMARK                            x       y       z     vdW  Elec       q    Type
REMARK                         _______ _______ _______ _____ _____    ______ ____
ROOT
ATOM      1  C   UNL     1      37.431   4.800  14.952  0.00  0.00    +0.000 C 
ATOM      2  O   UNL     1      37.075   5.951  15.210  0.00  0.00    +0.000 OA
ATOM      3  N   UNL     1      38.497   4.245  15.666  0.00  0.00    +0.000 NA
ENDROOT
BRANCH   3   4
ATOM      4  C   UNL     1      39.175   4.935  16.668  0.00  0.00    +0.000 A 
ATOM      5  C   UNL     1      38.781   4.891  17.963  0.00  0.00    +0.000 A 
ATOM      6  C   UNL     1      39.468   5.601  18.924  0.00  0.00    +0.000 A 
ATOM      7  C   UNL     1      40.564   6.384  18.653  0.00  0.00    +0.000 A 
ATOM      8  C   UNL     1      40.949   6.412  17.299  0.00  0.00    +0.000 A 
ATOM      9  C   UNL     1      40.262   5.702  16.347  0.00  0.00    +0.000 A 
BRANCH   7  10
ATOM     10  C   UNL     1      41.327   7.123  19.641  0.00  0.00    +0.000 C 
ATOM     11  O   UNL     1      40.781   8.146  20.142  0.00  0.00    +0.000 OA
BRANCH  10  12
ATOM     12  C   UNL     1      42.666   6.714  20.048  0.00  0.00    +0.000 A 
ATOM     13  C   UNL     1      42.836   6.006  21.218  0.00  0.00    +0.000 A 
ATOM     14  C   UNL     1      44.079   5.616  21.596  0.00  0.00    +0.000 A 
ATOM     15  C   UNL     1      45.229   5.883  20.874  0.00  0.00    +0.000 A 
ATOM     16  C   UNL     1      45.026   6.597  19.699  0.00  0.00    +0.000 A 
ATOM     17  C   UNL     1      43.774   6.997  19.307  0.00  0.00    +0.000 A 
ENDBRANCH  10  12
ENDBRANCH   7  10
ENDBRANCH   3   4
BRANCH   1  18
ATOM     18  C   UNL     1      36.716   3.961  13.842  0.00  0.00    +0.000 C 
ATOM     19  C   UNL     1      35.371   4.877  13.764  0.00  0.00    +0.000 C 
BRANCH  18  23
ATOM     20  C   UNL     1      35.206   0.662  16.301  0.00  0.00    +0.000 A 
ATOM     21  C   UNL     1      36.144   0.470  15.308  0.00  0.00    +0.000 A 
ATOM     22  C   UNL     1      36.627   1.536  14.530  0.00  0.00    +0.000 A 
ATOM     23  C   UNL     1      36.166   2.815  14.747  0.00  0.00    +0.000 A 
ATOM     24  C   UNL     1      35.254   2.992  15.716  0.00  0.00    +0.000 A 
ATOM     25  C   UNL     1      34.771   1.951  16.487  0.00  0.00    +0.000 A 
BRANCH  20  26
ATOM     26  C   UNL     1      34.685  -0.478  17.116  0.00  0.00    +0.000 C 
BRANCH  26  28
ATOM     27  C   UNL     1      36.101  -0.086  19.143  0.00  0.00    +0.000 C 
ATOM     28  C   UNL     1      35.671  -0.989  18.092  0.00  0.00    +0.000 C 
ATOM     29  C   UNL     1      36.354  -2.254  17.837  0.00  0.00    +0.000 C 
ENDBRANCH  26  28
ENDBRANCH  20  26
ENDBRANCH  18  23
ENDBRANCH   1  18
TORSDOF 7
ENDMDL
MODEL 2
REMARK VINA RESULT:      -8.0      1.505      2.220
REMARK  Name = 
REMARK  7 active torsions:
REMARK  status: ('A' for Active; 'I' for Inactive)
REMARK    1  A    between atoms: C_2  and  C_4
REMARK    2  A    between atoms: C_4  and  C_5
REMARK    3  A    between atoms: C_8  and  C_9
REMARK    4  A    between atoms: C_9  and  C_11
REMARK    5  A    between atoms: N_13  and  C_14
REMARK    6  A    between atoms: C_17  and  C_18
REMARK    7  A    between atoms: C_18  and  C_20
REMARK                            x       y       z     vdW  Elec       q    Type
REMARK                         _______ _______ _______ _____ _____    ______ ____
ROOT
ATOM      1  C   UNL     1      37.581   3.049  14.986  0.00  0.00    +0.000 C 
ATOM      2  O   UNL     1      38.643   2.535  15.343  0.00  0.00    +0.000 OA
ATOM      3  N   UNL     1      37.167   4.237  15.594  0.00  0.00    +0.000 NA
ENDROOT
BRANCH   3   4
ATOM      4  C   UNL     1      37.908   4.876  16.586  0.00  0.00    +0.000 A 
ATOM      5  C   UNL     1      38.357   6.146  16.441  0.00  0.00    +0.000 A 
ATOM      6  C   UNL     1      39.102   6.739  17.438  0.00  0.00    +0.000 A 
ATOM      7  C   UNL     1      39.436   6.110  18.613  0.00  0.00    +0.000 A 
ATOM      8  C   UNL     1      38.956   4.792  18.735  0.00  0.00    +0.000 A 
ATOM      9  C   UNL     1      38.215   4.208  17.740  0.00  0.00    +0.000 A 
BRANCH   7  10
ATOM     10  C   UNL     1      40.194   6.711  19.695  0.00  0.00    +0.000 C 
ATOM     11  O   UNL     1      39.537   7.293  20.603  0.00  0.00    +0.000 OA
BRANCH  10  12
ATOM     12  C   UNL     1      41.650   6.655  19.743  0.00  0.00    +0.000 A 
ATOM     13  C   UNL     1      42.381   6.975  18.621  0.00  0.00    +0.000 A 
ATOM     14  C   UNL     1      43.737   6.932  18.663  0.00  0.00    +0.000 A 
ATOM     15  C   UNL     1      44.466   6.579  19.785  0.00  0.00    +0.000 A 
ATOM     16  C   UNL     1      43.701   6.262  20.901  0.00  0.00    +0.000 A 
ATOM     17  C   UNL     1      42.331   6.302  20.870  0.00  0.00    +0.000 A 
ENDBRANCH  10  12
ENDBRANCH   7  10
ENDBRANCH   3   4
BRANCH   1  18
ATOM     18  C   UNL     1      36.696   2.392  13.877  0.00  0.00    +0.000 C 
ATOM     19  C   UNL     1      35.336   3.221  14.218  0.00  0.00    +0.000 C 
BRANCH  18  23
ATOM     20  C   UNL     1      35.757  -1.399  15.868  0.00  0.00    +0.000 A 
ATOM     21  C   UNL     1      36.534  -1.338  14.730  0.00  0.00    +0.000 A 
ATOM     22  C   UNL     1      36.835  -0.117  14.103  0.00  0.00    +0.000 A 
ATOM     23  C   UNL     1      36.353   1.064  14.622  0.00  0.00    +0.000 A 
ATOM     24  C   UNL     1      35.599   0.995  15.730  0.00  0.00    +0.000 A 
ATOM     25  C   UNL     1      35.296  -0.201  16.355  0.00  0.00    +0.000 A 
BRANCH  20  26
ATOM     26  C   UNL     1      35.428  -2.702  16.523  0.00  0.00    +0.000 C 
BRANCH  26  28
ATOM     27  C   UNL     1      37.497  -2.768  17.931  0.00  0.00    +0.000 C 
ATOM     28  C   UNL     1      36.626  -3.437  16.982  0.00  0.00    +0.000 C 
ATOM     29  C   UNL     1      37.025  -4.668  16.306  0.00  0.00    +0.000 C 
ENDBRANCH  26  28
ENDBRANCH  20  26
ENDBRANCH  18  23
ENDBRANCH   1  18
TORSDOF 7
ENDMDL
MODEL 3
REMARK VINA RESULT:      -8.0      2.272      3.383
REMARK  Name = 
REMARK  7 active torsions:
REMARK  status: ('A' for Active; 'I' for Inactive)
REMARK    1  A    between atoms: C_2  and  C_4
REMARK    2  A    between atoms: C_4  and  C_5
REMARK    3  A    between atoms: C_8  and  C_9
REMARK    4  A    between atoms: C_9  and  C_11
REMARK    5  A    between atoms: N_13  and  C_14
REMARK    6  A    between atoms: C_17  and  C_18
REMARK    7  A    between atoms: C_18  and  C_20
REMARK                            x       y       z     vdW  Elec       q    Type
REMARK                         _______ _______ _______ _____ _____    ______ ____
ROOT
ATOM      1  C   UNL     1      38.053   2.694  14.799  0.00  0.00    +0.000 C 
ATOM      2  O   UNL     1      39.048   2.132  15.260  0.00  0.00    +0.000 OA
ATOM      3  N   UNL     1      37.685   3.942  15.307  0.00  0.00    +0.000 NA
ENDROOT
BRANCH   3   4
ATOM      4  C   UNL     1      38.400   4.589  16.312  0.00  0.00    +0.000 A 
ATOM      5  C   UNL     1      38.158   4.361  17.625  0.00  0.00    +0.000 A 
ATOM      6  C   UNL     1      38.874   5.033  18.592  0.00  0.00    +0.000 A 
ATOM      7  C   UNL     1      39.852   5.956  18.309  0.00  0.00    +0.000 A 
ATOM      8  C   UNL     1      40.080   6.174  16.938  0.00  0.00    +0.000 A 
ATOM      9  C   UNL     1      39.365   5.501  15.980  0.00  0.00    +0.000 A 
BRANCH   7  10
ATOM     10  C   UNL     1      40.644   6.662  19.299  0.00  0.00    +0.000 C 
ATOM     11  O   UNL     1      41.748   6.145  19.628  0.00  0.00    +0.000 OA
BRANCH  10  12
ATOM     12  C   UNL     1      40.197   7.915  19.897  0.00  0.00    +0.000 A 
ATOM     13  C   UNL     1      38.892   8.040  20.320  0.00  0.00    +0.000 A 
ATOM     14  C   UNL     1      38.473   9.200  20.884  0.00  0.00    +0.000 A 
ATOM     15  C   UNL     1      39.283  10.306  21.074  0.00  0.00    +0.000 A 
ATOM     16  C   UNL     1      40.594  10.150  20.639  0.00  0.00    +0.000 A 
ATOM     17  C   UNL     1      41.028   8.982  20.067  0.00  0.00    +0.000 A 
ENDBRANCH  10  12
ENDBRANCH   7  10
ENDBRANCH   3   4
BRANCH   1  18
ATOM     18  C   UNL     1      37.200   2.031  13.667  0.00  0.00    +0.000 C 
ATOM     19  C   UNL     1      35.868   2.941  13.891  0.00  0.00    +0.000 C 
BRANCH  18  23
ATOM     20  C   UNL     1      35.887  -1.477  15.944  0.00  0.00    +0.000 A 
ATOM     21  C   UNL     1      35.403  -0.210  16.199  0.00  0.00    +0.000 A 
ATOM     22  C   UNL     1      35.826   0.907  15.458  0.00  0.00    +0.000 A 
ATOM     23  C   UNL     1      36.746   0.757  14.446  0.00  0.00    +0.000 A 
ATOM     24  C   UNL     1      37.210  -0.479  14.204  0.00  0.00    +0.000 A 
ATOM     25  C   UNL     1      36.802  -1.585  14.927  0.00  0.00    +0.000 A 
BRANCH  20  26
ATOM     26  C   UNL     1      35.445  -2.659  16.744  0.00  0.00    +0.000 C 
BRANCH  26  28
ATOM     27  C   UNL     1      34.055  -3.996  15.147  0.00  0.00    +0.000 C 
ATOM     28  C   UNL     1      35.274  -3.879  15.927  0.00  0.00    +0.000 C 
ATOM     29  C   UNL     1      36.179  -5.009  16.113  0.00  0.00    +0.000 C 
ENDBRANCH  26  28
ENDBRANCH  20  26
ENDBRANCH  18  23
ENDBRANCH   1  18
TORSDOF 7
ENDMDL
MODEL 4
REMARK VINA RESULT:      -8.0      2.409      8.891
REMARK  Name = 
REMARK  7 active torsions:
REMARK  status: ('A' for Active; 'I' for Inactive)
REMARK    1  A    between atoms: C_2  and  C_4
REMARK    2  A    between atoms: C_4  and  C_5
REMARK    3  A    between atoms: C_8  and  C_9
REMARK    4  A    between atoms: C_9  and  C_11
REMARK    5  A    between atoms: N_13  and  C_14
REMARK    6  A    between atoms: C_17  and  C_18
REMARK    7  A    between atoms: C_18  and  C_20
REMARK                            x       y       z     vdW  Elec       q    Type
REMARK                         _______ _______ _______ _____ _____    ______ ____
ROOT
ATOM      1  C   UNL     1      38.324   4.993  17.573  0.00  0.00    +0.000 C 
ATOM      2  O   UNL     1      38.598   4.055  18.324  0.00  0.00    +0.000 OA
ATOM      3  N   UNL     1      37.969   4.717  16.250  0.00  0.00    +0.000 NA
ENDROOT
BRANCH   3   4
ATOM      4  C   UNL     1      37.903   3.422  15.739  0.00  0.00    +0.000 A 
ATOM      5  C   UNL     1      36.832   2.620  15.952  0.00  0.00    +0.000 A 
ATOM      6  C   UNL     1      36.811   1.338  15.445  0.00  0.00    +0.000 A 
ATOM      7  C   UNL     1      37.838   0.794  14.714  0.00  0.00    +0.000 A 
ATOM      8  C   UNL     1      38.938   1.649  14.510  0.00  0.00    +0.000 A 
ATOM      9  C   UNL     1      38.953   2.924  15.016  0.00  0.00    +0.000 A 
BRANCH   7  10
ATOM     10  C   UNL     1      37.839  -0.541  14.142  0.00  0.00    +0.000 C 
ATOM     11  O   UNL     1      37.652  -0.633  12.897  0.00  0.00    +0.000 OA
BRANCH  10  12
ATOM     12  C   UNL     1      38.046  -1.731  14.959  0.00  0.00    +0.000 A 
ATOM     13  C   UNL     1      39.261  -1.932  15.575  0.00  0.00    +0.000 A 
ATOM     14  C   UNL     1      39.456  -3.033  16.342  0.00  0.00    +0.000 A 
ATOM     15  C   UNL     1      38.495  -4.005  16.561  0.00  0.00    +0.000 A 
ATOM     16  C   UNL     1      37.280  -3.775  15.927  0.00  0.00    +0.000 A 
ATOM     17  C   UNL     1      37.072  -2.665  15.149  0.00  0.00    +0.000 A 
ENDBRANCH  10  12
ENDBRANCH   7  10
ENDBRANCH   3   4
BRANCH   1  18
ATOM     18  C   UNL     1      38.373   6.473  18.074  0.00  0.00    +0.000 C 
ATOM     19  C   UNL     1      38.562   7.153  16.605  0.00  0.00    +0.000 C 
BRANCH  18  23
ATOM     20  C   UNL     1      42.522   6.604  19.483  0.00  0.00    +0.000 A 
ATOM     21  C   UNL     1      41.450   6.640  20.349  0.00  0.00    +0.000 A 
ATOM     22  C   UNL     1      40.123   6.590  19.887  0.00  0.00    +0.000 A 
ATOM     23  C   UNL     1      39.863   6.503  18.538  0.00  0.00    +0.000 A 
ATOM     24  C   UNL     1      40.913   6.467  17.703  0.00  0.00    +0.000 A 
ATOM     25  C   UNL     1      42.222   6.517  18.146  0.00  0.00    +0.000 A 
BRANCH  20  26
ATOM     26  C   UNL     1      43.931   6.672  19.978  0.00  0.00    +0.000 C 
BRANCH  26  28
ATOM     27  C   UNL     1      44.127   7.566  22.308  0.00  0.00    +0.000 C 
ATOM     28  C   UNL     1      44.047   6.414  21.429  0.00  0.00    +0.000 C 
ATOM     29  C   UNL     1      44.324   5.062  21.905  0.00  0.00    +0.000 C 
ENDBRANCH  26  28
ENDBRANCH  20  26
ENDBRANCH  18  23
ENDBRANCH   1  18
TORSDOF 7
ENDMDL
MODEL 5
REMARK VINA RESULT:      -7.4      2.129      2.905
REMARK  Name = 
REMARK  7 active torsions:
REMARK  status: ('A' for Active; 'I' for Inactive)
REMARK    1  A    between atoms: C_2  and  C_4
REMARK    2  A    between atoms: C_4  and  C_5
REMARK    3  A    between atoms: C_8  and  C_9
REMARK    4  A    between atoms: C_9  and  C_11
REMARK    5  A    between atoms: N_13  and  C_14
REMARK    6  A    between atoms: C_17  and  C_18
REMARK    7  A    between atoms: C_18  and  C_20
REMARK                            x       y       z     vdW  Elec       q    Type
REMARK                         _______ _______ _______ _____ _____    ______ ____
ROOT
ATOM      1  C   UNL     1      37.345   3.871  16.378  0.00  0.00    +0.000 C 
ATOM      2  O   UNL     1      37.630   3.231  17.392  0.00  0.00    +0.000 OA
ATOM      3  N   UNL     1      37.944   5.118  16.176  0.00  0.00    +0.000 NA
ENDROOT
BRANCH   3   4
ATOM      4  C   UNL     1      38.858   5.671  17.069  0.00  0.00    +0.000 A 
ATOM      5  C   UNL     1      40.184   5.726  16.797  0.00  0.00    +0.000 A 
ATOM      6  C   UNL     1      41.061   6.266  17.713  0.00  0.00    +0.000 A 
ATOM      7  C   UNL     1      40.673   6.769  18.931  0.00  0.00    +0.000 A 
ATOM      8  C   UNL     1      39.290   6.698  19.187  0.00  0.00    +0.000 A 
ATOM      9  C   UNL     1      38.423   6.160  18.270  0.00  0.00    +0.000 A 
BRANCH   7  10
ATOM     10  C   UNL     1      41.563   7.369  19.908  0.00  0.00    +0.000 C 
ATOM     11  O   UNL     1      41.160   8.417  20.486  0.00  0.00    +0.000 OA
BRANCH  10  12
ATOM     12  C   UNL     1      42.868   6.797  20.218  0.00  0.00    +0.000 A 
ATOM     13  C   UNL     1      43.005   5.966  21.308  0.00  0.00    +0.000 A 
ATOM     14  C   UNL     1      44.215   5.424  21.596  0.00  0.00    +0.000 A 
ATOM     15  C   UNL     1      45.362   5.651  20.855  0.00  0.00    +0.000 A 
ATOM     16  C   UNL     1      45.192   6.492  19.762  0.00  0.00    +0.000 A 
ATOM     17  C   UNL     1      43.974   7.045  19.461  0.00  0.00    +0.000 A 
ENDBRANCH  10  12
ENDBRANCH   7  10
ENDBRANCH   3   4
BRANCH   1  18
ATOM     18  C   UNL     1      36.329   3.314  15.328  0.00  0.00    +0.000 C 
ATOM     19  C   UNL     1      35.311   2.638  16.406  0.00  0.00    +0.000 C 
BRANCH  18  23
ATOM     20  C   UNL     1      38.458  -0.355  14.226  0.00  0.00    +0.000 A 
ATOM     21  C   UNL     1      37.144  -0.364  14.643  0.00  0.00    +0.000 A 
ATOM     22  C   UNL     1      36.468   0.819  14.987  0.00  0.00    +0.000 A 
ATOM     23  C   UNL     1      37.116   2.032  14.914  0.00  0.00    +0.000 A 
ATOM     24  C   UNL     1      38.394   2.030  14.506  0.00  0.00    +0.000 A 
ATOM     25  C   UNL     1      39.069   0.873  14.165  0.00  0.00    +0.000 A 
BRANCH  20  26
ATOM     26  C   UNL     1      39.177  -1.618  13.874  0.00  0.00    +0.000 C 
BRANCH  26  28
ATOM     27  C   UNL     1      41.555  -1.963  14.576  0.00  0.00    +0.000 C 
ATOM     28  C   UNL     1      40.145  -2.041  14.909  0.00  0.00    +0.000 C 
ATOM     29  C   UNL     1      39.673  -2.738  16.101  0.00  0.00    +0.000 C 
ENDBRANCH  26  28
ENDBRANCH  20  26
ENDBRANCH  18  23
ENDBRANCH   1  18
TORSDOF 7
ENDMDL
MODEL 6
REMARK VINA RESULT:      -7.3      1.362      2.239
REMARK  Name = 
REMARK  7 active torsions:
REMARK  status: ('A' for Active; 'I' for Inactive)
REMARK    1  A    between atoms: C_2  and  C_4
REMARK    2  A    between atoms: C_4  and  C_5
REMARK    3  A    between atoms: C_8  and  C_9
REMARK    4  A    between atoms: C_9  and  C_11
REMARK    5  A    between atoms: N_13  and  C_14
REMARK    6  A    between atoms: C_17  and  C_18
REMARK    7  A    between atoms: C_18  and  C_20
REMARK                            x       y       z     vdW  Elec       q    Type
REMARK                         _______ _______ _______ _____ _____    ______ ____
ROOT
ATOM      1  C   UNL     1      37.383   3.389  15.183  0.00  0.00    +0.000 C 
ATOM      2  O   UNL     1      36.494   3.983  15.796  0.00  0.00    +0.000 OA
ATOM      3  N   UNL     1      38.716   3.630  15.526  0.00  0.00    +0.000 NA
ENDROOT
BRANCH   3   4
ATOM      4  C   UNL     1      39.089   4.510  16.540  0.00  0.00    +0.000 A 
ATOM      5  C   UNL     1      39.971   5.516  16.328  0.00  0.00    +0.000 A 
ATOM      6  C   UNL     1      40.329   6.356  17.361  0.00  0.00    +0.000 A 
ATOM      7  C   UNL     1      39.838   6.241  18.639  0.00  0.00    +0.000 A 
ATOM      8  C   UNL     1      38.925   5.187  18.829  0.00  0.00    +0.000 A 
ATOM      9  C   UNL     1      38.572   4.355  17.797  0.00  0.00    +0.000 A 
BRANCH   7  10
ATOM     10  C   UNL     1      40.171   7.123  19.743  0.00  0.00    +0.000 C 
ATOM     11  O   UNL     1      39.240   7.836  20.210  0.00  0.00    +0.000 OA
BRANCH  10  12
ATOM     12  C   UNL     1      41.517   7.192  20.298  0.00  0.00    +0.000 A 
ATOM     13  C   UNL     1      42.139   8.414  20.425  0.00  0.00    +0.000 A 
ATOM     14  C   UNL     1      43.389   8.485  20.949  0.00  0.00    +0.000 A 
ATOM     15  C   UNL     1      44.113   7.386  21.379  0.00  0.00    +0.000 A 
ATOM     16  C   UNL     1      43.459   6.167  21.238  0.00  0.00    +0.000 A 
ATOM     17  C   UNL     1      42.196   6.084  20.711  0.00  0.00    +0.000 A 
ENDBRANCH  10  12
ENDBRANCH   7  10
ENDBRANCH   3   4
BRANCH   1  18
ATOM     18  C   UNL     1      37.042   2.385  14.034  0.00  0.00    +0.000 C 
ATOM     19  C   UNL     1      35.449   2.718  13.971  0.00  0.00    +0.000 C 
BRANCH  18  23
ATOM     20  C   UNL     1      36.755  -1.231  16.496  0.00  0.00    +0.000 A 
ATOM     21  C   UNL     1      35.695  -0.364  16.336  0.00  0.00    +0.000 A 
ATOM     22  C   UNL     1      35.795   0.789  15.539  0.00  0.00    +0.000 A 
ATOM     23  C   UNL     1      36.974   1.081  14.890  0.00  0.00    +0.000 A 
ATOM     24  C   UNL     1      38.000   0.231  15.051  0.00  0.00    +0.000 A 
ATOM     25  C   UNL     1      37.913  -0.906  15.834  0.00  0.00    +0.000 A 
BRANCH  20  26
ATOM     26  C   UNL     1      36.648  -2.448  17.357  0.00  0.00    +0.000 C 
BRANCH  26  28
ATOM     27  C   UNL     1      37.391  -1.276  19.441  0.00  0.00    +0.000 C 
ATOM     28  C   UNL     1      37.537  -2.403  18.537  0.00  0.00    +0.000 C 
ATOM     29  C   UNL     1      38.668  -3.321  18.629  0.00  0.00    +0.000 C 
ENDBRANCH  26  28
ENDBRANCH  20  26
ENDBRANCH  18  23
ENDBRANCH   1  18
TORSDOF 7
ENDMDL
MODEL 7
REMARK VINA RESULT:      -7.3      2.109      3.223
REMARK  Name = 
REMARK  7 active torsions:
REMARK  status: ('A' for Active; 'I' for Inactive)
REMARK    1  A    between atoms: C_2  and  C_4
REMARK    2  A    between atoms: C_4  and  C_5
REMARK    3  A    between atoms: C_8  and  C_9
REMARK    4  A    between atoms: C_9  and  C_11
REMARK    5  A    between atoms: N_13  and  C_14
REMARK    6  A    between atoms: C_17  and  C_18
REMARK    7  A    between atoms: C_18  and  C_20
REMARK                            x       y       z     vdW  Elec       q    Type
REMARK                         _______ _______ _______ _____ _____    ______ ____
ROOT
ATOM      1  C   UNL     1      38.796   1.826  14.285  0.00  0.00    +0.000 C 
ATOM      2  O   UNL     1      39.848   1.570  14.873  0.00  0.00    +0.000 OA
ATOM      3  N   UNL     1      38.139   3.027  14.566  0.00  0.00    +0.000 NA
ENDROOT
BRANCH   3   4
ATOM      4  C   UNL     1      38.624   3.957  15.482  0.00  0.00    +0.000 A 
ATOM      5  C   UNL     1      39.605   4.835  15.162  0.00  0.00    +0.000 A 
ATOM      6  C   UNL     1      40.071   5.730  16.102  0.00  0.00    +0.000 A 
ATOM      7  C   UNL     1      39.597   5.796  17.389  0.00  0.00    +0.000 A 
ATOM      8  C   UNL     1      38.580   4.871  17.693  0.00  0.00    +0.000 A 
ATOM      9  C   UNL     1      38.120   3.984  16.754  0.00  0.00    +0.000 A 
BRANCH   7  10
ATOM     10  C   UNL     1      40.045   6.741  18.396  0.00  0.00    +0.000 C 
ATOM     11  O   UNL     1      39.230   7.643  18.740  0.00  0.00    +0.000 OA
BRANCH  10  12
ATOM     12  C   UNL     1      41.374   6.666  18.990  0.00  0.00    +0.000 A 
ATOM     13  C   UNL     1      41.511   6.278  20.305  0.00  0.00    +0.000 A 
ATOM     14  C   UNL     1      42.746   6.197  20.861  0.00  0.00    +0.000 A 
ATOM     15  C   UNL     1      43.919   6.486  20.186  0.00  0.00    +0.000 A 
ATOM     16  C   UNL     1      43.749   6.874  18.862  0.00  0.00    +0.000 A 
ATOM     17  C   UNL     1      42.506   6.958  18.290  0.00  0.00    +0.000 A 
ENDBRANCH  10  12
ENDBRANCH   7  10
ENDBRANCH   3   4
BRANCH   1  18
ATOM     18  C   UNL     1      38.190   0.832  13.240  0.00  0.00    +0.000 C 
ATOM     19  C   UNL     1      36.747   1.574  13.104  0.00  0.00    +0.000 C 
BRANCH  18  23
ATOM     20  C   UNL     1      36.938  -2.287  16.054  0.00  0.00    +0.000 A 
ATOM     21  C   UNL     1      36.102  -1.257  15.678  0.00  0.00    +0.000 A 
ATOM     22  C   UNL     1      36.511  -0.265  14.770  0.00  0.00    +0.000 A 
ATOM     23  C   UNL     1      37.776  -0.304  14.227  0.00  0.00    +0.000 A 
ATOM     24  C   UNL     1      38.582  -1.311  14.598  0.00  0.00    +0.000 A 
ATOM     25  C   UNL     1      38.190  -2.292  15.491  0.00  0.00    +0.000 A 
BRANCH  20  26
ATOM     26  C   UNL     1      36.503  -3.331  17.032  0.00  0.00    +0.000 C 
BRANCH  26  28
ATOM     27  C   UNL     1      37.455  -5.643  16.904  0.00  0.00    +0.000 C 
ATOM     28  C   UNL     1      36.461  -4.689  16.448  0.00  0.00    +0.000 C 
ATOM     29  C   UNL     1      35.617  -4.953  15.287  0.00  0.00    +0.000 C 
ENDBRANCH  26  28
ENDBRANCH  20  26
ENDBRANCH  18  23
ENDBRANCH   1  18
TORSDOF 7
ENDMDL
MODEL 8
REMARK VINA RESULT:      -7.2      2.319      3.383
REMARK  Name = 
REMARK  7 active torsions:
REMARK  status: ('A' for Active; 'I' for Inactive)
REMARK    1  A    between atoms: C_2  and  C_4
REMARK    2  A    between atoms: C_4  and  C_5
REMARK    3  A    between atoms: C_8  and  C_9
REMARK    4  A    between atoms: C_9  and  C_11
REMARK    5  A    between atoms: N_13  and  C_14
REMARK    6  A    between atoms: C_17  and  C_18
REMARK    7  A    between atoms: C_18  and  C_20
REMARK                            x       y       z     vdW  Elec       q    Type
REMARK                         _______ _______ _______ _____ _____    ______ ____
ROOT
ATOM      1  C   UNL     1      37.963   3.979  14.638  0.00  0.00    +0.000 C 
ATOM      2  O   UNL     1      39.155   4.213  14.433  0.00  0.00    +0.000 OA
ATOM      3  N   UNL     1      37.381   4.431  15.826  0.00  0.00    +0.000 NA
ENDROOT
BRANCH   3   4
ATOM      4  C   UNL     1      38.088   5.145  16.790  0.00  0.00    +0.000 A 
ATOM      5  C   UNL     1      38.324   6.473  16.671  0.00  0.00    +0.000 A 
ATOM      6  C   UNL     1      39.044   7.142  17.638  0.00  0.00    +0.000 A 
ATOM      7  C   UNL     1      39.561   6.535  18.756  0.00  0.00    +0.000 A 
ATOM      8  C   UNL     1      39.301   5.155  18.853  0.00  0.00    +0.000 A 
ATOM      9  C   UNL     1      38.584   4.495  17.888  0.00  0.00    +0.000 A 
BRANCH   7  10
ATOM     10  C   UNL     1      40.298   7.211  19.807  0.00  0.00    +0.000 C 
ATOM     11  O   UNL     1      41.257   6.581  20.334  0.00  0.00    +0.000 OA
BRANCH  10  12
ATOM     12  C   UNL     1      39.958   8.560  20.245  0.00  0.00    +0.000 A 
ATOM     13  C   UNL     1      38.683   8.830  20.690  0.00  0.00    +0.000 A 
ATOM     14  C   UNL     1      38.363  10.080  21.107  0.00  0.00    +0.000 A 
ATOM     15  C   UNL     1      39.250  11.143  21.120  0.00  0.00    +0.000 A 
ATOM     16  C   UNL     1      40.529  10.840  20.667  0.00  0.00    +0.000 A 
ATOM     17  C   UNL     1      40.862   9.580  20.243  0.00  0.00    +0.000 A 
ENDBRANCH  10  12
ENDBRANCH   7  10
ENDBRANCH   3   4
BRANCH   1  18
ATOM     18  C   UNL     1      37.103   3.185  13.601  0.00  0.00    +0.000 C 
ATOM     19  C   UNL     1      35.656   3.729  14.116  0.00  0.00    +0.000 C 
BRANCH  18  23
ATOM     20  C   UNL     1      36.996  -0.671  15.683  0.00  0.00    +0.000 A 
ATOM     21  C   UNL     1      35.867   0.100  15.504  0.00  0.00    +0.000 A 
ATOM     22  C   UNL     1      35.910   1.332  14.829  0.00  0.00    +0.000 A 
ATOM     23  C   UNL     1      37.102   1.801  14.323  0.00  0.00    +0.000 A 
ATOM     24  C   UNL     1      38.195   1.043  14.501  0.00  0.00    +0.000 A 
ATOM     25  C   UNL     1      38.164  -0.170  15.164  0.00  0.00    +0.000 A 
BRANCH  20  26
ATOM     26  C   UNL     1      36.947  -1.974  16.414  0.00  0.00    +0.000 C 
BRANCH  26  28
ATOM     27  C   UNL     1      39.159  -3.067  16.836  0.00  0.00    +0.000 C 
ATOM     28  C   UNL     1      38.108  -2.182  17.304  0.00  0.00    +0.000 C 
ATOM     29  C   UNL     1      38.056  -1.714  18.686  0.00  0.00    +0.000 C 
ENDBRANCH  26  28
ENDBRANCH  20  26
ENDBRANCH  18  23
ENDBRANCH   1  18
TORSDOF 7
ENDMDL
MODEL 9
REMARK VINA RESULT:      -7.1      3.401      8.943
REMARK  Name = 
REMARK  7 active torsions:
REMARK  status: ('A' for Active; 'I' for Inactive)
REMARK    1  A    between atoms: C_2  and  C_4
REMARK    2  A    between atoms: C_4  and  C_5
REMARK    3  A    between atoms: C_8  and  C_9
REMARK    4  A    between atoms: C_9  and  C_11
REMARK    5  A    between atoms: N_13  and  C_14
REMARK    6  A    between atoms: C_17  and  C_18
REMARK    7  A    between atoms: C_18  and  C_20
REMARK                            x       y       z     vdW  Elec       q    Type
REMARK                         _______ _______ _______ _____ _____    ______ ____
ROOT
ATOM      1  C   UNL     1      38.267   4.761  16.703  0.00  0.00    +0.000 C 
ATOM      2  O   UNL     1      38.277   3.990  17.664  0.00  0.00    +0.000 OA
ATOM      3  N   UNL     1      38.222   4.230  15.411  0.00  0.00    +0.000 NA
ENDROOT
BRANCH   3   4
ATOM      4  C   UNL     1      38.181   2.860  15.157  0.00  0.00    +0.000 A 
ATOM      5  C   UNL     1      37.053   2.132  15.331  0.00  0.00    +0.000 A 
ATOM      6  C   UNL     1      37.055   0.775  15.086  0.00  0.00    +0.000 A 
ATOM      7  C   UNL     1      38.164   0.081  14.666  0.00  0.00    +0.000 A 
ATOM      8  C   UNL     1      39.322   0.864  14.496  0.00  0.00    +0.000 A 
ATOM      9  C   UNL     1      39.312   2.213  14.739  0.00  0.00    +0.000 A 
BRANCH   7  10
ATOM     10  C   UNL     1      38.197  -1.340  14.373  0.00  0.00    +0.000 C 
ATOM     11  O   UNL     1      37.227  -2.035  14.787  0.00  0.00    +0.000 OA
BRANCH  10  12
ATOM     12  C   UNL     1      39.295  -1.951  13.635  0.00  0.00    +0.000 A 
ATOM     13  C   UNL     1      40.389  -2.434  14.318  0.00  0.00    +0.000 A 
ATOM     14  C   UNL     1      41.410  -3.012  13.636  0.00  0.00    +0.000 A 
ATOM     15  C   UNL     1      41.439  -3.158  12.260  0.00  0.00    +0.000 A 
ATOM     16  C   UNL     1      40.321  -2.662  11.599  0.00  0.00    +0.000 A 
ATOM     17  C   UNL     1      39.284  -2.077  12.277  0.00  0.00    +0.000 A 
ENDBRANCH  10  12
ENDBRANCH   7  10
ENDBRANCH   3   4
BRANCH   1  18
ATOM     18  C   UNL     1      38.309   6.310  16.907  0.00  0.00    +0.000 C 
ATOM     19  C   UNL     1      39.143   6.648  15.549  0.00  0.00    +0.000 C 
BRANCH  18  23
ATOM     20  C   UNL     1      41.697   6.429  19.686  0.00  0.00    +0.000 A 
ATOM     21  C   UNL     1      41.869   6.345  18.320  0.00  0.00    +0.000 A 
ATOM     22  C   UNL     1      40.776   6.314  17.437  0.00  0.00    +0.000 A 
ATOM     23  C   UNL     1      39.489   6.370  17.927  0.00  0.00    +0.000 A 
ATOM     24  C   UNL     1      39.333   6.454  19.257  0.00  0.00    +0.000 A 
ATOM     25  C   UNL     1      40.401   6.483  20.135  0.00  0.00    +0.000 A 
BRANCH  20  26
ATOM     26  C   UNL     1      42.863   6.447  20.622  0.00  0.00    +0.000 C 
BRANCH  26  28
ATOM     27  C   UNL     1      43.124   8.935  20.713  0.00  0.00    +0.000 C 
ATOM     28  C   UNL     1      43.722   7.638  20.453  0.00  0.00    +0.000 C 
ATOM     29  C   UNL     1      45.026   7.507  19.810  0.00  0.00    +0.000 C 
ENDBRANCH  26  28
ENDBRANCH  20  26
ENDBRANCH  18  23
ENDBRANCH   1  18
TORSDOF 7
ENDMDL
MODEL 10
REMARK VINA RESULT:      -7.0      6.470     10.622
REMARK  Name = 
REMARK  7 active torsions:
REMARK  status: ('A' for Active; 'I' for Inactive)
REMARK    1  A    between atoms: C_2  and  C_4
REMARK    2  A    between atoms: C_4  and  C_5
REMARK    3  A    between atoms: C_8  and  C_9
REMARK    4  A    between atoms: C_9  and  C_11
REMARK    5  A    between atoms: N_13  and  C_14
REMARK    6  A    between atoms: C_17  and  C_18
REMARK    7  A    between atoms: C_18  and  C_20
REMARK                            x       y       z     vdW  Elec       q    Type
REMARK                         _______ _______ _______ _____ _____    ______ ____
ROOT
ATOM      1  C   UNL     1      42.897  -1.442  13.055  0.00  0.00    +0.000 C 
ATOM      2  O   UNL     1      42.264  -0.431  12.749  0.00  0.00    +0.000 OA
ATOM      3  N   UNL     1      42.214  -2.518  13.630  0.00  0.00    +0.000 NA
ENDROOT
BRANCH   3   4
ATOM      4  C   UNL     1      40.842  -2.501  13.869  0.00  0.00    +0.000 A 
ATOM      5  C   UNL     1      39.941  -2.794  12.900  0.00  0.00    +0.000 A 
ATOM      6  C   UNL     1      38.590  -2.750  13.170  0.00  0.00    +0.000 A 
ATOM      7  C   UNL     1      38.071  -2.415  14.396  0.00  0.00    +0.000 A 
ATOM      8  C   UNL     1      39.030  -2.116  15.383  0.00  0.00    +0.000 A 
ATOM      9  C   UNL     1      40.373  -2.162  15.108  0.00  0.00    +0.000 A 
BRANCH   7  10
ATOM     10  C   UNL     1      36.657  -2.385  14.724  0.00  0.00    +0.000 C 
ATOM     11  O   UNL     1      35.962  -3.375  14.361  0.00  0.00    +0.000 OA
BRANCH  10  12
ATOM     12  C   UNL     1      36.054  -1.267  15.439  0.00  0.00    +0.000 A 
ATOM     13  C   UNL     1      35.281  -1.509  16.553  0.00  0.00    +0.000 A 
ATOM     14  C   UNL     1      34.723  -0.472  17.228  0.00  0.00    +0.000 A 
ATOM     15  C   UNL     1      34.876   0.856  16.870  0.00  0.00    +0.000 A 
ATOM     16  C   UNL     1      35.662   1.069  15.743  0.00  0.00    +0.000 A 
ATOM     17  C   UNL     1      36.229   0.028  15.054  0.00  0.00    +0.000 A 
ENDBRANCH  10  12
ENDBRANCH   7  10
ENDBRANCH   3   4
BRANCH   1  18
ATOM     18  C   UNL     1      44.439  -1.537  12.815  0.00  0.00    +0.000 C 
ATOM     19  C   UNL     1      44.491  -3.153  12.614  0.00  0.00    +0.000 C 
BRANCH  18  23
ATOM     20  C   UNL     1      45.744  -1.234  16.989  0.00  0.00    +0.000 A 
ATOM     21  C   UNL     1      45.198  -0.166  16.309  0.00  0.00    +0.000 A 
ATOM     22  C   UNL     1      44.777  -0.275  14.973  0.00  0.00    +0.000 A 
ATOM     23  C   UNL     1      44.901  -1.472  14.304  0.00  0.00    +0.000 A 
ATOM     24  C   UNL     1      45.432  -2.507  14.974  0.00  0.00    +0.000 A 
ATOM     25  C   UNL     1      45.851  -2.411  16.289  0.00  0.00    +0.000 A 
BRANCH  20  26
ATOM     26  C   UNL     1      46.204  -1.109  18.406  0.00  0.00    +0.000 C 
BRANCH  26  28
ATOM     27  C   UNL     1      46.997   1.058  19.375  0.00  0.00    +0.000 C 
ATOM     28  C   UNL     1      47.288  -0.118  18.577  0.00  0.00    +0.000 C 
ATOM     29  C   UNL     1      48.495  -0.217  17.762  0.00  0.00    +0.000 C 
ENDBRANCH  26  28
ENDBRANCH  20  26
ENDBRANCH  18  23
ENDBRANCH   1  18
TORSDOF 7
ENDMDL
