MODEL 1
REMARK VINA RESULT:      -5.6      0.000      0.000
REMARK  Name = 
REMARK  3 active torsions:
REMARK  status: ('A' for Active; 'I' for Inactive)
REMARK    1  A    between atoms: C_2  and  O_3
REMARK    2  A    between atoms: O_3  and  C_4
REMARK    3  A    between atoms: C_13  and  C_14
REMARK                            x       y       z     vdW  Elec       q    Type
REMARK                         _______ _______ _______ _____ _____    ______ ____
ROOT
ATOM      1  C   UNL     1      28.759  22.779  26.297  0.00  0.00    +0.000 C 
ATOM      2  O   UNL     1      29.867  22.797  27.171  0.00  0.00    +0.000 OA
ATOM      3  C   UNL     1      28.829  23.100  25.039  0.00  0.00    +0.000 C 
ATOM      4  C   UNL     1      30.075  23.499  24.479  0.00  0.00    +0.000 C 
ATOM      5  C   UNL     1      31.286  23.545  25.330  0.00  0.00    +0.000 C 
ATOM      6  N   UNL     1      30.205  23.830  23.233  0.00  0.00    +0.000 NA
ATOM      7  C   UNL     1      29.079  23.798  22.399  0.00  0.00    +0.000 C 
ATOM      8  O   UNL     1      29.337  24.182  21.050  0.00  0.00    +0.000 OA
ATOM      9  N   UNL     1      27.979  23.467  22.812  0.00  0.00    +0.000 NA
ATOM     10  C   UNL     1      27.518  23.035  24.181  0.00  0.00    +0.000 C 
ENDROOT
BRANCH  10  11
ATOM     11  C   UNL     1      26.878  24.413  24.637  0.00  0.00    +0.000 A 
ATOM     12  C   UNL     1      27.650  25.440  25.022  0.00  0.00    +0.000 A 
ATOM     13  C   UNL     1      27.185  26.648  25.427  0.00  0.00    +0.000 A 
ATOM     14  C   UNL     1      25.813  26.809  25.437  0.00  0.00    +0.000 A 
ATOM     15  O   UNL     1      25.227  28.020  25.839  0.00  0.00    +0.000 OA
ATOM     16  C   UNL     1      24.997  25.775  25.048  0.00  0.00    +0.000 A 
ATOM     17  C   UNL     1      25.544  24.582  24.650  0.00  0.00    +0.000 A 
ENDBRANCH  10  11
BRANCH   1  18
ATOM     18  O   UNL     1      27.582  22.381  26.914  0.00  0.00    +0.000 OA
BRANCH  18  20
ATOM     19  C   UNL     1      26.113  23.757  28.229  0.00  0.00    +0.000 C 
ATOM     20  C   UNL     1      27.210  22.729  28.220  0.00  0.00    +0.000 C 
ENDBRANCH  18  20
ENDBRANCH   1  18
TORSDOF 3
ENDMDL
MODEL 2
REMARK VINA RESULT:      -5.6      2.395      4.421
REMARK  Name = 
REMARK  3 active torsions:
REMARK  status: ('A' for Active; 'I' for Inactive)
REMARK    1  A    between atoms: C_2  and  O_3
REMARK    2  A    between atoms: O_3  and  C_4
REMARK    3  A    between atoms: C_13  and  C_14
REMARK                            x       y       z     vdW  Elec       q    Type
REMARK                         _______ _______ _______ _____ _____    ______ ____
ROOT
ATOM      1  C   UNL     1      30.145  25.712  23.884  0.00  0.00    +0.000 C 
ATOM      2  O   UNL     1      30.157  27.109  24.090  0.00  0.00    +0.000 OA
ATOM      3  C   UNL     1      29.164  25.077  23.316  0.00  0.00    +0.000 C 
ATOM      4  C   UNL     1      28.022  25.796  22.864  0.00  0.00    +0.000 C 
ATOM      5  C   UNL     1      27.957  27.265  23.043  0.00  0.00    +0.000 C 
ATOM      6  N   UNL     1      27.015  25.216  22.291  0.00  0.00    +0.000 NA
ATOM      7  C   UNL     1      27.044  23.827  22.106  0.00  0.00    +0.000 C 
ATOM      8  O   UNL     1      25.886  23.296  21.466  0.00  0.00    +0.000 OA
ATOM      9  N   UNL     1      27.990  23.147  22.468  0.00  0.00    +0.000 NA
ATOM     10  C   UNL     1      29.282  23.522  23.150  0.00  0.00    +0.000 C 
ENDROOT
BRANCH  10  11
ATOM     11  C   UNL     1      28.876  23.104  24.626  0.00  0.00    +0.000 A 
ATOM     12  C   UNL     1      29.761  22.516  25.445  0.00  0.00    +0.000 A 
ATOM     13  C   UNL     1      29.497  22.127  26.717  0.00  0.00    +0.000 A 
ATOM     14  C   UNL     1      28.216  22.362  27.181  0.00  0.00    +0.000 A 
ATOM     15  O   UNL     1      27.838  21.998  28.482  0.00  0.00    +0.000 OA
ATOM     16  C   UNL     1      27.290  22.962  26.363  0.00  0.00    +0.000 A 
ATOM     17  C   UNL     1      27.634  23.328  25.088  0.00  0.00    +0.000 A 
ENDBRANCH  10  11
BRANCH   1  18
ATOM     18  O   UNL     1      31.289  25.082  24.351  0.00  0.00    +0.000 OA
BRANCH  18  20
ATOM     19  C   UNL     1      32.776  24.420  26.120  0.00  0.00    +0.000 C 
ATOM     20  C   UNL     1      32.081  25.548  25.408  0.00  0.00    +0.000 C 
ENDBRANCH  18  20
ENDBRANCH   1  18
TORSDOF 3
ENDMDL
MODEL 3
REMARK VINA RESULT:      -5.6      2.615      5.348
REMARK  Name = 
REMARK  3 active torsions:
REMARK  status: ('A' for Active; 'I' for Inactive)
REMARK    1  A    between atoms: C_2  and  O_3
REMARK    2  A    between atoms: O_3  and  C_4
REMARK    3  A    between atoms: C_13  and  C_14
REMARK                            x       y       z     vdW  Elec       q    Type
REMARK                         _______ _______ _______ _____ _____    ______ ____
ROOT
ATOM      1  C   UNL     1      26.199  23.579  24.762  0.00  0.00    +0.000 C 
ATOM      2  O   UNL     1      25.175  24.524  24.542  0.00  0.00    +0.000 OA
ATOM      3  C   UNL     1      26.643  23.260  25.942  0.00  0.00    +0.000 C 
ATOM      4  C   UNL     1      26.090  23.881  27.097  0.00  0.00    +0.000 C 
ATOM      5  C   UNL     1      25.011  24.885  26.951  0.00  0.00    +0.000 C 
ATOM      6  N   UNL     1      26.493  23.603  28.298  0.00  0.00    +0.000 NA
ATOM      7  C   UNL     1      27.512  22.658  28.472  0.00  0.00    +0.000 C 
ATOM      8  O   UNL     1      27.875  22.431  29.832  0.00  0.00    +0.000 OA
ATOM      9  N   UNL     1      28.032  22.087  27.527  0.00  0.00    +0.000 NA
ATOM     10  C   UNL     1      27.786  22.192  26.043  0.00  0.00    +0.000 C 
ENDROOT
BRANCH  10  11
ATOM     11  C   UNL     1      29.012  23.134  25.687  0.00  0.00    +0.000 A 
ATOM     12  C   UNL     1      30.109  22.645  25.092  0.00  0.00    +0.000 A 
ATOM     13  C   UNL     1      31.199  23.379  24.755  0.00  0.00    +0.000 A 
ATOM     14  C   UNL     1      31.153  24.727  25.059  0.00  0.00    +0.000 A 
ATOM     15  O   UNL     1      32.227  25.576  24.754  0.00  0.00    +0.000 OA
ATOM     16  C   UNL     1      30.042  25.255  25.670  0.00  0.00    +0.000 A 
ATOM     17  C   UNL     1      28.978  24.447  25.978  0.00  0.00    +0.000 A 
ENDBRANCH  10  11
BRANCH   1  18
ATOM     18  O   UNL     1      26.688  23.018  23.591  0.00  0.00    +0.000 OA
BRANCH  18  20
ATOM     19  C   UNL     1      28.371  23.822  22.075  0.00  0.00    +0.000 C 
ATOM     20  C   UNL     1      26.906  23.725  22.401  0.00  0.00    +0.000 C 
ENDBRANCH  18  20
ENDBRANCH   1  18
TORSDOF 3
ENDMDL
MODEL 4
REMARK VINA RESULT:      -5.3     32.633     34.400
REMARK  Name = 
REMARK  3 active torsions:
REMARK  status: ('A' for Active; 'I' for Inactive)
REMARK    1  A    between atoms: C_2  and  O_3
REMARK    2  A    between atoms: O_3  and  C_4
REMARK    3  A    between atoms: C_13  and  C_14
REMARK                            x       y       z     vdW  Elec       q    Type
REMARK                         _______ _______ _______ _____ _____    ______ ____
ROOT
ATOM      1  C   UNL     1      20.622  -7.531  25.349  0.00  0.00    +0.000 C 
ATOM      2  O   UNL     1      21.352  -6.341  25.562  0.00  0.00    +0.000 OA
ATOM      3  C   UNL     1      19.347  -7.643  25.576  0.00  0.00    +0.000 C 
ATOM      4  C   UNL     1      18.614  -6.526  26.066  0.00  0.00    +0.000 C 
ATOM      5  C   UNL     1      19.307  -5.241  26.316  0.00  0.00    +0.000 C 
ATOM      6  N   UNL     1      17.342  -6.580  26.310  0.00  0.00    +0.000 NA
ATOM      7  C   UNL     1      16.656  -7.780  26.085  0.00  0.00    +0.000 C 
ATOM      8  O   UNL     1      15.264  -7.725  26.387  0.00  0.00    +0.000 OA
ATOM      9  N   UNL     1      17.220  -8.777  25.665  0.00  0.00    +0.000 NA
ATOM     10  C   UNL     1      18.661  -9.025  25.295  0.00  0.00    +0.000 C 
ENDROOT
BRANCH  10  11
ATOM     11  C   UNL     1      19.100  -9.772  26.624  0.00  0.00    +0.000 A 
ATOM     12  C   UNL     1      19.275  -9.098  27.770  0.00  0.00    +0.000 A 
ATOM     13  C   UNL     1      19.649  -9.658  28.947  0.00  0.00    +0.000 A 
ATOM     14  C   UNL     1      19.863 -11.023  28.940  0.00  0.00    +0.000 A 
ATOM     15  O   UNL     1      20.254 -11.701  30.105  0.00  0.00    +0.000 OA
ATOM     16  C   UNL     1      19.693 -11.739  27.781  0.00  0.00    +0.000 A 
ATOM     17  C   UNL     1      19.311 -11.100  26.629  0.00  0.00    +0.000 A 
ENDBRANCH  10  11
BRANCH   1  18
ATOM     18  O   UNL     1      21.403  -8.573  24.872  0.00  0.00    +0.000 OA
BRANCH  18  20
ATOM     19  C   UNL     1      22.864 -10.073  26.053  0.00  0.00    +0.000 C 
ATOM     20  C   UNL     1      22.732  -8.810  25.248  0.00  0.00    +0.000 C 
ENDBRANCH  18  20
ENDBRANCH   1  18
TORSDOF 3
ENDMDL
MODEL 5
REMARK VINA RESULT:      -5.3     32.646     34.338
REMARK  Name = 
REMARK  3 active torsions:
REMARK  status: ('A' for Active; 'I' for Inactive)
REMARK    1  A    between atoms: C_2  and  O_3
REMARK    2  A    between atoms: O_3  and  C_4
REMARK    3  A    between atoms: C_13  and  C_14
REMARK                            x       y       z     vdW  Elec       q    Type
REMARK                         _______ _______ _______ _____ _____    ______ ____
ROOT
ATOM      1  C   UNL     1      20.246  -9.409  24.938  0.00  0.00    +0.000 C 
ATOM      2  O   UNL     1      21.579  -9.529  24.491  0.00  0.00    +0.000 OA
ATOM      3  C   UNL     1      19.724  -8.292  25.352  0.00  0.00    +0.000 C 
ATOM      4  C   UNL     1      20.510  -7.107  25.369  0.00  0.00    +0.000 C 
ATOM      5  C   UNL     1      21.920  -7.149  24.915  0.00  0.00    +0.000 C 
ATOM      6  N   UNL     1      20.043  -5.966  25.770  0.00  0.00    +0.000 NA
ATOM      7  C   UNL     1      18.714  -5.890  26.206  0.00  0.00    +0.000 C 
ATOM      8  O   UNL     1      18.307  -4.590  26.624  0.00  0.00    +0.000 OA
ATOM      9  N   UNL     1      17.982  -6.867  26.218  0.00  0.00    +0.000 NA
ATOM     10  C   UNL     1      18.227  -8.300  25.821  0.00  0.00    +0.000 C 
ENDROOT
BRANCH  10  11
ATOM     11  C   UNL     1      18.448  -8.893  27.276  0.00  0.00    +0.000 A 
ATOM     12  C   UNL     1      17.409  -9.288  28.026  0.00  0.00    +0.000 A 
ATOM     13  C   UNL     1      17.509  -9.804  29.276  0.00  0.00    +0.000 A 
ATOM     14  C   UNL     1      18.784  -9.918  29.796  0.00  0.00    +0.000 A 
ATOM     15  O   UNL     1      19.000 -10.438  31.081  0.00  0.00    +0.000 OA
ATOM     16  C   UNL     1      19.867  -9.520  29.051  0.00  0.00    +0.000 A 
ATOM     17  C   UNL     1      19.684  -9.009  27.792  0.00  0.00    +0.000 A 
ENDBRANCH  10  11
BRANCH   1  18
ATOM     18  O   UNL     1      19.544 -10.604  24.893  0.00  0.00    +0.000 OA
BRANCH  18  20
ATOM     19  C   UNL     1      19.089 -12.421  26.400  0.00  0.00    +0.000 C 
ATOM     20  C   UNL     1      20.022 -11.828  25.380  0.00  0.00    +0.000 C 
ENDBRANCH  18  20
ENDBRANCH   1  18
TORSDOF 3
ENDMDL
MODEL 6
REMARK VINA RESULT:      -5.3     19.338     21.961
REMARK  Name = 
REMARK  3 active torsions:
REMARK  status: ('A' for Active; 'I' for Inactive)
REMARK    1  A    between atoms: C_2  and  O_3
REMARK    2  A    between atoms: O_3  and  C_4
REMARK    3  A    between atoms: C_13  and  C_14
REMARK                            x       y       z     vdW  Elec       q    Type
REMARK                         _______ _______ _______ _____ _____    ______ ____
ROOT
ATOM      1  C   UNL     1      20.566  10.893  38.378  0.00  0.00    +0.000 C 
ATOM      2  O   UNL     1      21.258  12.048  38.801  0.00  0.00    +0.000 OA
ATOM      3  C   UNL     1      19.378  10.919  37.851  0.00  0.00    +0.000 C 
ATOM      4  C   UNL     1      18.708  12.162  37.677  0.00  0.00    +0.000 C 
ATOM      5  C   UNL     1      19.366  13.421  38.096  0.00  0.00    +0.000 C 
ATOM      6  N   UNL     1      17.523  12.249  37.159  0.00  0.00    +0.000 NA
ATOM      7  C   UNL     1      16.870  11.078  36.751  0.00  0.00    +0.000 C 
ATOM      8  O   UNL     1      15.575  11.290  36.196  0.00  0.00    +0.000 OA
ATOM      9  N   UNL     1      17.385   9.977  36.870  0.00  0.00    +0.000 NA
ATOM     10  C   UNL     1      18.724   9.559  37.424  0.00  0.00    +0.000 C 
ENDROOT
BRANCH  10  11
ATOM     11  C   UNL     1      18.227   9.085  38.855  0.00  0.00    +0.000 A 
ATOM     12  C   UNL     1      17.298   9.779  39.528  0.00  0.00    +0.000 A 
ATOM     13  C   UNL     1      16.820   9.446  40.752  0.00  0.00    +0.000 A 
ATOM     14  C   UNL     1      17.345   8.305  41.330  0.00  0.00    +0.000 A 
ATOM     15  O   UNL     1      16.919   7.871  42.595  0.00  0.00    +0.000 OA
ATOM     16  C   UNL     1      18.298   7.575  40.664  0.00  0.00    +0.000 A 
ATOM     17  C   UNL     1      18.731   7.977  39.426  0.00  0.00    +0.000 A 
ENDBRANCH  10  11
BRANCH   1  18
ATOM     18  O   UNL     1      21.281   9.722  38.580  0.00  0.00    +0.000 OA
BRANCH  18  20
ATOM     19  C   UNL     1      22.540   9.610  36.535  0.00  0.00    +0.000 C 
ATOM     20  C   UNL     1      22.542   9.454  38.030  0.00  0.00    +0.000 C 
ENDBRANCH  18  20
ENDBRANCH   1  18
TORSDOF 3
ENDMDL
MODEL 7
REMARK VINA RESULT:      -5.3      1.858      2.323
REMARK  Name = 
REMARK  3 active torsions:
REMARK  status: ('A' for Active; 'I' for Inactive)
REMARK    1  A    between atoms: C_2  and  O_3
REMARK    2  A    between atoms: O_3  and  C_4
REMARK    3  A    between atoms: C_13  and  C_14
REMARK                            x       y       z     vdW  Elec       q    Type
REMARK                         _______ _______ _______ _____ _____    ______ ____
ROOT
ATOM      1  C   UNL     1      28.711  24.009  25.995  0.00  0.00    +0.000 C 
ATOM      2  O   UNL     1      30.005  24.473  25.674  0.00  0.00    +0.000 OA
ATOM      3  C   UNL     1      27.821  23.688  25.104  0.00  0.00    +0.000 C 
ATOM      4  C   UNL     1      28.132  23.799  23.720  0.00  0.00    +0.000 C 
ATOM      5  C   UNL     1      29.469  24.278  23.301  0.00  0.00    +0.000 C 
ATOM      6  N   UNL     1      27.284  23.493  22.788  0.00  0.00    +0.000 NA
ATOM      7  C   UNL     1      26.010  23.037  23.150  0.00  0.00    +0.000 C 
ATOM      8  O   UNL     1      25.161  22.731  22.047  0.00  0.00    +0.000 OA
ATOM      9  N   UNL     1      25.675  22.917  24.318  0.00  0.00    +0.000 NA
ATOM     10  C   UNL     1      26.420  23.186  25.601  0.00  0.00    +0.000 C 
ENDROOT
BRANCH  10  11
ATOM     11  C   UNL     1      25.776  24.597  25.933  0.00  0.00    +0.000 A 
ATOM     12  C   UNL     1      25.967  25.651  25.126  0.00  0.00    +0.000 A 
ATOM     13  C   UNL     1      25.455  26.889  25.336  0.00  0.00    +0.000 A 
ATOM     14  C   UNL     1      24.686  27.054  26.473  0.00  0.00    +0.000 A 
ATOM     15  O   UNL     1      24.110  28.295  26.785  0.00  0.00    +0.000 OA
ATOM     16  C   UNL     1      24.475  25.992  27.318  0.00  0.00    +0.000 A 
ATOM     17  C   UNL     1      25.026  24.769  27.036  0.00  0.00    +0.000 A 
ENDBRANCH  10  11
BRANCH   1  18
ATOM     18  O   UNL     1      28.482  23.928  27.361  0.00  0.00    +0.000 OA
BRANCH  18  20
ATOM     19  C   UNL     1      27.778  22.461  29.130  0.00  0.00    +0.000 C 
ATOM     20  C   UNL     1      28.869  22.852  28.171  0.00  0.00    +0.000 C 
ENDBRANCH  18  20
ENDBRANCH   1  18
TORSDOF 3
ENDMDL
MODEL 8
REMARK VINA RESULT:      -5.2     26.596     28.580
REMARK  Name = 
REMARK  3 active torsions:
REMARK  status: ('A' for Active; 'I' for Inactive)
REMARK    1  A    between atoms: C_2  and  O_3
REMARK    2  A    between atoms: O_3  and  C_4
REMARK    3  A    between atoms: C_13  and  C_14
REMARK                            x       y       z     vdW  Elec       q    Type
REMARK                         _______ _______ _______ _____ _____    ______ ____
ROOT
ATOM      1  C   UNL     1      34.165  -2.253  36.973  0.00  0.00    +0.000 C 
ATOM      2  O   UNL     1      35.358  -2.433  37.706  0.00  0.00    +0.000 OA
ATOM      3  C   UNL     1      33.874  -2.924  35.898  0.00  0.00    +0.000 C 
ATOM      4  C   UNL     1      34.784  -3.900  35.404  0.00  0.00    +0.000 C 
ATOM      5  C   UNL     1      36.058  -4.148  36.116  0.00  0.00    +0.000 C 
ATOM      6  N   UNL     1      34.546  -4.598  34.338  0.00  0.00    +0.000 NA
ATOM      7  C   UNL     1      33.350  -4.389  33.640  0.00  0.00    +0.000 C 
ATOM      8  O   UNL     1      33.193  -5.210  32.485  0.00  0.00    +0.000 OA
ATOM      9  N   UNL     1      32.524  -3.568  34.006  0.00  0.00    +0.000 NA
ATOM     10  C   UNL     1      32.511  -2.624  35.181  0.00  0.00    +0.000 C 
ENDROOT
BRANCH  10  11
ATOM     11  C   UNL     1      32.946  -1.309  34.406  0.00  0.00    +0.000 A 
ATOM     12  C   UNL     1      32.288  -0.154  34.582  0.00  0.00    +0.000 A 
ATOM     13  C   UNL     1      32.593   1.012  33.960  0.00  0.00    +0.000 A 
ATOM     14  C   UNL     1      33.662   0.983  33.084  0.00  0.00    +0.000 A 
ATOM     15  O   UNL     1      34.061   2.134  32.388  0.00  0.00    +0.000 OA
ATOM     16  C   UNL     1      34.353  -0.187  32.884  0.00  0.00    +0.000 A 
ATOM     17  C   UNL     1      33.984  -1.326  33.552  0.00  0.00    +0.000 A 
ENDBRANCH  10  11
BRANCH   1  18
ATOM     18  O   UNL     1      33.330  -1.287  37.514  0.00  0.00    +0.000 OA
BRANCH  18  20
ATOM     19  C   UNL     1      34.197   0.954  37.435  0.00  0.00    +0.000 C 
ATOM     20  C   UNL     1      33.764  -0.204  38.291  0.00  0.00    +0.000 C 
ENDBRANCH  18  20
ENDBRANCH   1  18
TORSDOF 3
ENDMDL
MODEL 9
REMARK VINA RESULT:      -5.2      2.450      3.907
REMARK  Name = 
REMARK  3 active torsions:
REMARK  status: ('A' for Active; 'I' for Inactive)
REMARK    1  A    between atoms: C_2  and  O_3
REMARK    2  A    between atoms: O_3  and  C_4
REMARK    3  A    between atoms: C_13  and  C_14
REMARK                            x       y       z     vdW  Elec       q    Type
REMARK                         _______ _______ _______ _____ _____    ______ ____
ROOT
ATOM      1  C   UNL     1      30.008  23.327  26.838  0.00  0.00    +0.000 C 
ATOM      2  O   UNL     1      31.058  24.250  26.641  0.00  0.00    +0.000 OA
ATOM      3  C   UNL     1      28.886  23.364  26.184  0.00  0.00    +0.000 C 
ATOM      4  C   UNL     1      28.668  24.377  25.209  0.00  0.00    +0.000 C 
ATOM      5  C   UNL     1      29.720  25.385  24.943  0.00  0.00    +0.000 C 
ATOM      6  N   UNL     1      27.569  24.463  24.526  0.00  0.00    +0.000 NA
ATOM      7  C   UNL     1      26.552  23.526  24.752  0.00  0.00    +0.000 C 
ATOM      8  O   UNL     1      25.390  23.716  23.949  0.00  0.00    +0.000 OA
ATOM      9  N   UNL     1      26.670  22.631  25.573  0.00  0.00    +0.000 NA
ATOM     10  C   UNL     1      27.803  22.275  26.502  0.00  0.00    +0.000 C 
ENDROOT
BRANCH  10  11
ATOM     11  C   UNL     1      27.210  22.921  27.824  0.00  0.00    +0.000 A 
ATOM     12  C   UNL     1      27.257  22.267  28.994  0.00  0.00    +0.000 A 
ATOM     13  C   UNL     1      26.775  22.746  30.167  0.00  0.00    +0.000 A 
ATOM     14  C   UNL     1      26.194  24.000  30.130  0.00  0.00    +0.000 A 
ATOM     15  O   UNL     1      25.663  24.588  31.288  0.00  0.00    +0.000 OA
ATOM     16  C   UNL     1      26.132  24.692  28.945  0.00  0.00    +0.000 A 
ATOM     17  C   UNL     1      26.644  24.141  27.799  0.00  0.00    +0.000 A 
ENDBRANCH  10  11
BRANCH   1  18
ATOM     18  O   UNL     1      30.294  22.372  27.802  0.00  0.00    +0.000 OA
BRANCH  18  20
ATOM     19  C   UNL     1      30.704  22.956  30.098  0.00  0.00    +0.000 C 
ATOM     20  C   UNL     1      31.283  22.504  28.786  0.00  0.00    +0.000 C 
ENDBRANCH  18  20
ENDBRANCH   1  18
TORSDOF 3
ENDMDL
MODEL 10
REMARK VINA RESULT:      -5.2      2.158      5.061
REMARK  Name = 
REMARK  3 active torsions:
REMARK  status: ('A' for Active; 'I' for Inactive)
REMARK    1  A    between atoms: C_2  and  O_3
REMARK    2  A    between atoms: O_3  and  C_4
REMARK    3  A    between atoms: C_13  and  C_14
REMARK                            x       y       z     vdW  Elec       q    Type
REMARK                         _______ _______ _______ _____ _____    ______ ____
ROOT
ATOM      1  C   UNL     1      28.383  26.575  24.290  0.00  0.00    +0.000 C 
ATOM      2  O   UNL     1      27.856  27.620  25.079  0.00  0.00    +0.000 OA
ATOM      3  C   UNL     1      27.676  25.575  23.856  0.00  0.00    +0.000 C 
ATOM      4  C   UNL     1      26.292  25.495  24.175  0.00  0.00    +0.000 C 
ATOM      5  C   UNL     1      25.662  26.553  24.999  0.00  0.00    +0.000 C 
ATOM      6  N   UNL     1      25.538  24.521  23.770  0.00  0.00    +0.000 NA
ATOM      7  C   UNL     1      26.101  23.504  22.989  0.00  0.00    +0.000 C 
ATOM      8  O   UNL     1      25.182  22.486  22.601  0.00  0.00    +0.000 OA
ATOM      9  N   UNL     1      27.281  23.507  22.678  0.00  0.00    +0.000 NA
ATOM     10  C   UNL     1      28.390  24.481  22.987  0.00  0.00    +0.000 C 
ENDROOT
BRANCH  10  11
ATOM     11  C   UNL     1      29.072  23.664  24.164  0.00  0.00    +0.000 A 
ATOM     12  C   UNL     1      28.379  23.324  25.260  0.00  0.00    +0.000 A 
ATOM     13  C   UNL     1      28.885  22.629  26.310  0.00  0.00    +0.000 A 
ATOM     14  C   UNL     1      30.213  22.258  26.222  0.00  0.00    +0.000 A 
ATOM     15  O   UNL     1      30.835  21.536  27.252  0.00  0.00    +0.000 OA
ATOM     16  C   UNL     1      30.947  22.593  25.110  0.00  0.00    +0.000 A 
ATOM     17  C   UNL     1      30.363  23.297  24.088  0.00  0.00    +0.000 A 
ENDBRANCH  10  11
BRANCH   1  18
ATOM     18  O   UNL     1      29.736  26.722  24.021  0.00  0.00    +0.000 OA
BRANCH  18  20
ATOM     19  C   UNL     1      31.414  26.348  25.702  0.00  0.00    +0.000 C 
ATOM     20  C   UNL     1      30.655  27.348  24.875  0.00  0.00    +0.000 C 
ENDBRANCH  18  20
ENDBRANCH   1  18
TORSDOF 3
ENDMDL
