MODEL 1
REMARK VINA RESULT:      -8.4      0.000      0.000
REMARK  Name = 
REMARK  7 active torsions:
REMARK  status: ('A' for Active; 'I' for Inactive)
REMARK    1  A    between atoms: O_2  and  C_3
REMARK    2  A    between atoms: C_6  and  C_7
REMARK    3  A    between atoms: C_7  and  C_8
REMARK    4  A    between atoms: C_8  and  N_9
REMARK    5  A    between atoms: C_16  and  C_17
REMARK    6  A    between atoms: C_23  and  C_24
REMARK    7  A    between atoms: C_32  and  O_33
REMARK                            x       y       z     vdW  Elec       q    Type
REMARK                         _______ _______ _______ _____ _____    ______ ____
ROOT
ATOM      1  N   UNL     1      36.731  -0.421  16.998  0.00  0.00    +0.000 NA
ATOM      2  C   UNL     1      37.464  -1.503  17.500  0.00  0.00    +0.000 A 
ATOM      3  N   UNL     1      37.244  -2.075  18.686  0.00  0.00    +0.000 NA
ATOM      4  C   UNL     1      37.977  -3.150  19.101  0.00  0.00    +0.000 A 
ATOM      5  N   UNL     1      38.946  -3.649  18.296  0.00  0.00    +0.000 NA
ATOM      6  C   UNL     1      39.221  -3.123  17.090  0.00  0.00    +0.000 A 
ATOM      7  O   UNL     1      40.091  -3.423  16.151  0.00  0.00    +0.000 OA
ATOM      8  C   UNL     1      39.961  -2.594  15.142  0.00  0.00    +0.000 A 
ATOM      9  C   UNL     1      38.950  -1.705  15.441  0.00  0.00    +0.000 A 
ATOM     10  C   UNL     1      38.458  -2.033  16.701  0.00  0.00    +0.000 A 
ENDROOT
BRANCH   8  11
ATOM     11  C   UNL     1      40.727  -2.578  13.905  0.00  0.00    +0.000 A 
ATOM     12  C   UNL     1      42.061  -2.185  13.871  0.00  0.00    +0.000 A 
ATOM     13  C   UNL     1      42.794  -2.169  12.702  0.00  0.00    +0.000 A 
ATOM     14  C   UNL     1      42.200  -2.554  11.522  0.00  0.00    +0.000 A 
ATOM     15  C   UNL     1      40.882  -2.950  11.518  0.00  0.00    +0.000 A 
ATOM     16  C   UNL     1      40.191  -2.951  12.692  0.00  0.00    +0.000 A 
ENDBRANCH   8  11
BRANCH   9  17
ATOM     17  C   UNL     1      38.468  -0.623  14.618  0.00  0.00    +0.000 A 
ATOM     18  C   UNL     1      37.377  -0.601  13.829  0.00  0.00    +0.000 A 
ATOM     19  C   UNL     1      36.970   0.471  13.062  0.00  0.00    +0.000 A 
ATOM     20  C   UNL     1      37.739   1.605  13.110  0.00  0.00    +0.000 A 
ATOM     21  C   UNL     1      38.854   1.658  13.882  0.00  0.00    +0.000 A 
ATOM     22  C   UNL     1      39.197   0.552  14.619  0.00  0.00    +0.000 A 
ENDBRANCH   9  17
BRANCH   1  23
ATOM     23  C   UNL     1      35.713   0.230  17.734  0.00  0.00    +0.000 C 
BRANCH  23  24
ATOM     24  C   UNL     1      34.919   1.181  16.956  0.00  0.00    +0.000 C 
BRANCH  24  28
ATOM     25  C   UNL     1      36.881   4.541  15.240  0.00  0.00    +0.000 A 
ATOM     26  C   UNL     1      35.673   4.080  14.765  0.00  0.00    +0.000 A 
ATOM     27  C   UNL     1      35.059   3.003  15.341  0.00  0.00    +0.000 A 
ATOM     28  C   UNL     1      35.619   2.335  16.419  0.00  0.00    +0.000 A 
ATOM     29  C   UNL     1      36.833   2.800  16.894  0.00  0.00    +0.000 A 
ATOM     30  C   UNL     1      37.455   3.879  16.322  0.00  0.00    +0.000 A 
BRANCH  25  32
ATOM     31  C   UNL     1      36.832   6.834  14.489  0.00  0.00    +0.000 C 
ATOM     32  O   UNL     1      37.548   5.626  14.697  0.00  0.00    +0.000 OA
ENDBRANCH  25  32
BRANCH  30  33
ATOM     33  O   UNL     1      38.661   4.306  16.829  0.00  0.00    +0.000 OA
ATOM     34  C   UNL     1      38.744   4.884  18.117  0.00  0.00    +0.000 C 
ENDBRANCH  30  33
ENDBRANCH  24  28
ENDBRANCH  23  24
ENDBRANCH   1  23
TORSDOF 7
ENDMDL
MODEL 2
REMARK VINA RESULT:      -8.1      0.662      1.771
REMARK  Name = 
REMARK  7 active torsions:
REMARK  status: ('A' for Active; 'I' for Inactive)
REMARK    1  A    between atoms: O_2  and  C_3
REMARK    2  A    between atoms: C_6  and  C_7
REMARK    3  A    between atoms: C_7  and  C_8
REMARK    4  A    between atoms: C_8  and  N_9
REMARK    5  A    between atoms: C_16  and  C_17
REMARK    6  A    between atoms: C_23  and  C_24
REMARK    7  A    between atoms: C_32  and  O_33
REMARK                            x       y       z     vdW  Elec       q    Type
REMARK                         _______ _______ _______ _____ _____    ______ ____
ROOT
ATOM      1  N   UNL     1      36.784  -0.270  16.973  0.00  0.00    +0.000 NA
ATOM      2  C   UNL     1      37.478  -1.376  17.476  0.00  0.00    +0.000 A 
ATOM      3  N   UNL     1      37.233  -1.942  18.661  0.00  0.00    +0.000 NA
ATOM      4  C   UNL     1      37.928  -3.041  19.078  0.00  0.00    +0.000 A 
ATOM      5  N   UNL     1      38.884  -3.572  18.277  0.00  0.00    +0.000 NA
ATOM      6  C   UNL     1      39.181  -3.054  17.072  0.00  0.00    +0.000 A 
ATOM      7  O   UNL     1      40.045  -3.382  16.137  0.00  0.00    +0.000 OA
ATOM      8  C   UNL     1      39.947  -2.548  15.128  0.00  0.00    +0.000 A 
ATOM      9  C   UNL     1      38.966  -1.627  15.424  0.00  0.00    +0.000 A 
ATOM     10  C   UNL     1      38.457  -1.939  16.682  0.00  0.00    +0.000 A 
ENDROOT
BRANCH   8  11
ATOM     11  C   UNL     1      40.719  -2.558  13.895  0.00  0.00    +0.000 A 
ATOM     12  C   UNL     1      40.153  -2.915  12.675  0.00  0.00    +0.000 A 
ATOM     13  C   UNL     1      40.879  -2.925  11.502  0.00  0.00    +0.000 A 
ATOM     14  C   UNL     1      42.208  -2.571  11.522  0.00  0.00    +0.000 A 
ATOM     15  C   UNL     1      42.801  -2.211  12.711  0.00  0.00    +0.000 A 
ATOM     16  C   UNL     1      42.052  -2.214  13.848  0.00  0.00    +0.000 A 
ENDBRANCH   8  11
BRANCH   9  17
ATOM     17  C   UNL     1      38.524  -0.528  14.600  0.00  0.00    +0.000 A 
ATOM     18  C   UNL     1      37.454  -0.479  13.783  0.00  0.00    +0.000 A 
ATOM     19  C   UNL     1      37.085   0.607  13.017  0.00  0.00    +0.000 A 
ATOM     20  C   UNL     1      37.872   1.728  13.096  0.00  0.00    +0.000 A 
ATOM     21  C   UNL     1      38.967   1.753  13.897  0.00  0.00    +0.000 A 
ATOM     22  C   UNL     1      39.273   0.634  14.631  0.00  0.00    +0.000 A 
ENDBRANCH   9  17
BRANCH   1  23
ATOM     23  C   UNL     1      35.786   0.414  17.705  0.00  0.00    +0.000 C 
BRANCH  23  24
ATOM     24  C   UNL     1      34.976   1.336  16.907  0.00  0.00    +0.000 C 
BRANCH  24  28
ATOM     25  C   UNL     1      37.071   4.684  15.330  0.00  0.00    +0.000 A 
ATOM     26  C   UNL     1      37.525   3.992  16.431  0.00  0.00    +0.000 A 
ATOM     27  C   UNL     1      36.836   2.912  16.912  0.00  0.00    +0.000 A 
ATOM     28  C   UNL     1      35.664   2.471  16.318  0.00  0.00    +0.000 A 
ATOM     29  C   UNL     1      35.210   3.169  15.212  0.00  0.00    +0.000 A 
ATOM     30  C   UNL     1      35.894   4.251  14.724  0.00  0.00    +0.000 A 
BRANCH  25  32
ATOM     31  C   UNL     1      37.720   7.000  15.528  0.00  0.00    +0.000 C 
ATOM     32  O   UNL     1      37.725   5.782  14.798  0.00  0.00    +0.000 OA
ENDBRANCH  25  32
BRANCH  30  33
ATOM     33  O   UNL     1      35.405   4.913  13.620  0.00  0.00    +0.000 OA
ATOM     34  C   UNL     1      34.515   6.002  13.762  0.00  0.00    +0.000 C 
ENDBRANCH  30  33
ENDBRANCH  24  28
ENDBRANCH  23  24
ENDBRANCH   1  23
TORSDOF 7
ENDMDL
MODEL 3
REMARK VINA RESULT:      -7.4      5.080      8.250
REMARK  Name = 
REMARK  7 active torsions:
REMARK  status: ('A' for Active; 'I' for Inactive)
REMARK    1  A    between atoms: O_2  and  C_3
REMARK    2  A    between atoms: C_6  and  C_7
REMARK    3  A    between atoms: C_7  and  C_8
REMARK    4  A    between atoms: C_8  and  N_9
REMARK    5  A    between atoms: C_16  and  C_17
REMARK    6  A    between atoms: C_23  and  C_24
REMARK    7  A    between atoms: C_32  and  O_33
REMARK                            x       y       z     vdW  Elec       q    Type
REMARK                         _______ _______ _______ _____ _____    ______ ____
ROOT
ATOM      1  N   UNL     1      35.945   6.277  14.066  0.00  0.00    +0.000 NA
ATOM      2  C   UNL     1      36.234   5.000  14.560  0.00  0.00    +0.000 A 
ATOM      3  N   UNL     1      35.623   3.882  14.159  0.00  0.00    +0.000 NA
ATOM      4  C   UNL     1      35.977   2.662  14.660  0.00  0.00    +0.000 A 
ATOM      5  N   UNL     1      36.969   2.580  15.580  0.00  0.00    +0.000 NA
ATOM      6  C   UNL     1      37.627   3.664  16.028  0.00  0.00    +0.000 A 
ATOM      7  O   UNL     1      38.600   3.834  16.895  0.00  0.00    +0.000 OA
ATOM      8  C   UNL     1      38.898   5.110  16.984  0.00  0.00    +0.000 A 
ATOM      9  C   UNL     1      38.073   5.807  16.128  0.00  0.00    +0.000 A 
ATOM     10  C   UNL     1      37.241   4.885  15.498  0.00  0.00    +0.000 A 
ENDROOT
BRANCH   8  11
ATOM     11  C   UNL     1      39.914   5.724  17.826  0.00  0.00    +0.000 A 
ATOM     12  C   UNL     1      41.141   6.136  17.316  0.00  0.00    +0.000 A 
ATOM     13  C   UNL     1      42.108   6.721  18.109  0.00  0.00    +0.000 A 
ATOM     14  C   UNL     1      41.864   6.909  19.450  0.00  0.00    +0.000 A 
ATOM     15  C   UNL     1      40.661   6.515  19.988  0.00  0.00    +0.000 A 
ATOM     16  C   UNL     1      39.732   5.941  19.174  0.00  0.00    +0.000 A 
ENDBRANCH   8  11
BRANCH   9  17
ATOM     17  C   UNL     1      38.052   7.232  15.903  0.00  0.00    +0.000 A 
ATOM     18  C   UNL     1      38.610   7.922  14.890  0.00  0.00    +0.000 A 
ATOM     19  C   UNL     1      38.554   9.291  14.732  0.00  0.00    +0.000 A 
ATOM     20  C   UNL     1      37.875  10.005  15.686  0.00  0.00    +0.000 A 
ATOM     21  C   UNL     1      37.287   9.379  16.737  0.00  0.00    +0.000 A 
ATOM     22  C   UNL     1      37.384   8.013  16.827  0.00  0.00    +0.000 A 
ENDBRANCH   9  17
BRANCH   1  23
ATOM     23  C   UNL     1      34.914   6.529  13.130  0.00  0.00    +0.000 C 
BRANCH  23  24
ATOM     24  C   UNL     1      33.720   7.153  13.700  0.00  0.00    +0.000 C 
BRANCH  24  28
ATOM     25  C   UNL     1      34.324  11.036  15.324  0.00  0.00    +0.000 A 
ATOM     26  C   UNL     1      34.633  10.736  14.016  0.00  0.00    +0.000 A 
ATOM     27  C   UNL     1      34.420   9.481  13.516  0.00  0.00    +0.000 A 
ATOM     28  C   UNL     1      33.888   8.467  14.296  0.00  0.00    +0.000 A 
ATOM     29  C   UNL     1      33.578   8.771  15.611  0.00  0.00    +0.000 A 
ATOM     30  C   UNL     1      33.789  10.026  16.119  0.00  0.00    +0.000 A 
BRANCH  25  32
ATOM     31  C   UNL     1      33.632  13.340  15.528  0.00  0.00    +0.000 C 
ATOM     32  O   UNL     1      34.517  12.288  15.884  0.00  0.00    +0.000 OA
ENDBRANCH  25  32
BRANCH  30  33
ATOM     33  O   UNL     1      33.465  10.282  17.432  0.00  0.00    +0.000 OA
ATOM     34  C   UNL     1      32.849   9.295  18.234  0.00  0.00    +0.000 C 
ENDBRANCH  30  33
ENDBRANCH  24  28
ENDBRANCH  23  24
ENDBRANCH   1  23
TORSDOF 7
ENDMDL
MODEL 4
REMARK VINA RESULT:      -7.3     26.018     29.064
REMARK  Name = 
REMARK  7 active torsions:
REMARK  status: ('A' for Active; 'I' for Inactive)
REMARK    1  A    between atoms: O_2  and  C_3
REMARK    2  A    between atoms: C_6  and  C_7
REMARK    3  A    between atoms: C_7  and  C_8
REMARK    4  A    between atoms: C_8  and  N_9
REMARK    5  A    between atoms: C_16  and  C_17
REMARK    6  A    between atoms: C_23  and  C_24
REMARK    7  A    between atoms: C_32  and  O_33
REMARK                            x       y       z     vdW  Elec       q    Type
REMARK                         _______ _______ _______ _____ _____    ______ ____
ROOT
ATOM      1  N   UNL     1      29.733  14.824  38.638  0.00  0.00    +0.000 NA
ATOM      2  C   UNL     1      30.394  14.817  37.404  0.00  0.00    +0.000 A 
ATOM      3  N   UNL     1      31.662  14.434  37.231  0.00  0.00    +0.000 NA
ATOM      4  C   UNL     1      32.235  14.421  35.992  0.00  0.00    +0.000 A 
ATOM      5  N   UNL     1      31.508  14.802  34.914  0.00  0.00    +0.000 NA
ATOM      6  C   UNL     1      30.227  15.200  35.015  0.00  0.00    +0.000 A 
ATOM      7  O   UNL     1      29.337  15.606  34.138  0.00  0.00    +0.000 OA
ATOM      8  C   UNL     1      28.207  15.885  34.746  0.00  0.00    +0.000 A 
ATOM      9  C   UNL     1      28.373  15.646  36.093  0.00  0.00    +0.000 A 
ATOM     10  C   UNL     1      29.678  15.200  36.287  0.00  0.00    +0.000 A 
ENDROOT
BRANCH   8  11
ATOM     11  C   UNL     1      26.973  16.364  34.143  0.00  0.00    +0.000 A 
ATOM     12  C   UNL     1      26.154  15.533  33.384  0.00  0.00    +0.000 A 
ATOM     13  C   UNL     1      24.981  15.981  32.811  0.00  0.00    +0.000 A 
ATOM     14  C   UNL     1      24.595  17.290  32.987  0.00  0.00    +0.000 A 
ATOM     15  C   UNL     1      25.380  18.139  33.733  0.00  0.00    +0.000 A 
ATOM     16  C   UNL     1      26.531  17.661  34.282  0.00  0.00    +0.000 A 
ENDBRANCH   8  11
BRANCH   9  17
ATOM     17  C   UNL     1      27.391  15.817  37.137  0.00  0.00    +0.000 A 
ATOM     18  C   UNL     1      26.459  14.938  37.553  0.00  0.00    +0.000 A 
ATOM     19  C   UNL     1      25.544  15.164  38.560  0.00  0.00    +0.000 A 
ATOM     20  C   UNL     1      25.590  16.383  39.188  0.00  0.00    +0.000 A 
ATOM     21  C   UNL     1      26.501  17.320  38.822  0.00  0.00    +0.000 A 
ATOM     22  C   UNL     1      27.381  17.023  37.811  0.00  0.00    +0.000 A 
ENDBRANCH   9  17
BRANCH   1  23
ATOM     23  C   UNL     1      30.369  14.487  39.856  0.00  0.00    +0.000 C 
BRANCH  23  24
ATOM     24  C   UNL     1      29.450  14.196  40.956  0.00  0.00    +0.000 C 
BRANCH  24  28
ATOM     25  C   UNL     1      27.242  10.562  40.878  0.00  0.00    +0.000 A 
ATOM     26  C   UNL     1      26.642  11.775  41.136  0.00  0.00    +0.000 A 
ATOM     27  C   UNL     1      27.374  12.930  41.146  0.00  0.00    +0.000 A 
ATOM     28  C   UNL     1      28.738  12.931  40.898  0.00  0.00    +0.000 A 
ATOM     29  C   UNL     1      29.338  11.710  40.640  0.00  0.00    +0.000 A 
ATOM     30  C   UNL     1      28.611  10.549  40.628  0.00  0.00    +0.000 A 
BRANCH  25  32
ATOM     31  C   UNL     1      26.320   8.682  42.080  0.00  0.00    +0.000 C 
ATOM     32  O   UNL     1      26.552   9.362  40.855  0.00  0.00    +0.000 OA
ENDBRANCH  25  32
BRANCH  30  33
ATOM     33  O   UNL     1      29.251   9.359  40.365  0.00  0.00    +0.000 OA
ATOM     34  C   UNL     1      30.255   8.867  41.230  0.00  0.00    +0.000 C 
ENDBRANCH  30  33
ENDBRANCH  24  28
ENDBRANCH  23  24
ENDBRANCH   1  23
TORSDOF 7
ENDMDL
MODEL 5
REMARK VINA RESULT:      -7.0     24.781     28.495
REMARK  Name = 
REMARK  7 active torsions:
REMARK  status: ('A' for Active; 'I' for Inactive)
REMARK    1  A    between atoms: O_2  and  C_3
REMARK    2  A    between atoms: C_6  and  C_7
REMARK    3  A    between atoms: C_7  and  C_8
REMARK    4  A    between atoms: C_8  and  N_9
REMARK    5  A    between atoms: C_16  and  C_17
REMARK    6  A    between atoms: C_23  and  C_24
REMARK    7  A    between atoms: C_32  and  O_33
REMARK                            x       y       z     vdW  Elec       q    Type
REMARK                         _______ _______ _______ _____ _____    ______ ____
ROOT
ATOM      1  N   UNL     1      13.305   0.217  27.321  0.00  0.00    +0.000 NA
ATOM      2  C   UNL     1      12.637  -0.897  26.799  0.00  0.00    +0.000 A 
ATOM      3  N   UNL     1      13.188  -2.105  26.654  0.00  0.00    +0.000 NA
ATOM      4  C   UNL     1      12.468  -3.158  26.166  0.00  0.00    +0.000 A 
ATOM      5  N   UNL     1      11.170  -2.978  25.822  0.00  0.00    +0.000 NA
ATOM      6  C   UNL     1      10.552  -1.790  25.942  0.00  0.00    +0.000 A 
ATOM      7  O   UNL     1       9.331  -1.377  25.682  0.00  0.00    +0.000 OA
ATOM      8  C   UNL     1       9.219  -0.102  25.977  0.00  0.00    +0.000 A 
ATOM      9  C   UNL     1      10.435   0.337  26.455  0.00  0.00    +0.000 A 
ATOM     10  C   UNL     1      11.312  -0.744  26.440  0.00  0.00    +0.000 A 
ENDROOT
BRANCH   8  11
ATOM     11  C   UNL     1       8.039   0.737  25.839  0.00  0.00    +0.000 A 
ATOM     12  C   UNL     1       7.275   1.119  26.937  0.00  0.00    +0.000 A 
ATOM     13  C   UNL     1       6.156   1.916  26.813  0.00  0.00    +0.000 A 
ATOM     14  C   UNL     1       5.770   2.358  25.568  0.00  0.00    +0.000 A 
ATOM     15  C   UNL     1       6.503   2.001  24.459  0.00  0.00    +0.000 A 
ATOM     16  C   UNL     1       7.601   1.212  24.622  0.00  0.00    +0.000 A 
ENDBRANCH   8  11
BRANCH   9  17
ATOM     17  C   UNL     1      10.768   1.670  26.898  0.00  0.00    +0.000 A 
ATOM     18  C   UNL     1      10.738   2.160  28.152  0.00  0.00    +0.000 A 
ATOM     19  C   UNL     1      11.069   3.450  28.511  0.00  0.00    +0.000 A 
ATOM     20  C   UNL     1      11.461   4.300  27.508  0.00  0.00    +0.000 A 
ATOM     21  C   UNL     1      11.516   3.877  26.220  0.00  0.00    +0.000 A 
ATOM     22  C   UNL     1      11.172   2.578  25.938  0.00  0.00    +0.000 A 
ENDBRANCH   9  17
BRANCH   1  23
ATOM     23  C   UNL     1      14.670   0.196  27.690  0.00  0.00    +0.000 C 
BRANCH  23  24
ATOM     24  C   UNL     1      15.530   1.053  26.875  0.00  0.00    +0.000 C 
BRANCH  24  28
ATOM     25  C   UNL     1      18.758  -0.968  24.982  0.00  0.00    +0.000 A 
ATOM     26  C   UNL     1      17.654  -1.640  25.457  0.00  0.00    +0.000 A 
ATOM     27  C   UNL     1      16.625  -0.964  26.053  0.00  0.00    +0.000 A 
ATOM     28  C   UNL     1      16.648   0.413  26.204  0.00  0.00    +0.000 A 
ATOM     29  C   UNL     1      17.760   1.086  25.726  0.00  0.00    +0.000 A 
ATOM     30  C   UNL     1      18.794   0.417  25.127  0.00  0.00    +0.000 A 
BRANCH  25  32
ATOM     31  C   UNL     1      19.587  -2.380  23.209  0.00  0.00    +0.000 C 
ATOM     32  O   UNL     1      19.828  -1.598  24.370  0.00  0.00    +0.000 OA
ENDBRANCH  25  32
BRANCH  30  33
ATOM     33  O   UNL     1      19.878   1.129  24.666  0.00  0.00    +0.000 OA
ATOM     34  C   UNL     1      20.034   1.404  23.289  0.00  0.00    +0.000 C 
ENDBRANCH  30  33
ENDBRANCH  24  28
ENDBRANCH  23  24
ENDBRANCH   1  23
TORSDOF 7
ENDMDL
MODEL 6
REMARK VINA RESULT:      -7.0      2.582      4.937
REMARK  Name = 
REMARK  7 active torsions:
REMARK  status: ('A' for Active; 'I' for Inactive)
REMARK    1  A    between atoms: O_2  and  C_3
REMARK    2  A    between atoms: C_6  and  C_7
REMARK    3  A    between atoms: C_7  and  C_8
REMARK    4  A    between atoms: C_8  and  N_9
REMARK    5  A    between atoms: C_16  and  C_17
REMARK    6  A    between atoms: C_23  and  C_24
REMARK    7  A    between atoms: C_32  and  O_33
REMARK                            x       y       z     vdW  Elec       q    Type
REMARK                         _______ _______ _______ _____ _____    ______ ____
ROOT
ATOM      1  N   UNL     1      37.353   2.314  13.648  0.00  0.00    +0.000 NA
ATOM      2  C   UNL     1      36.351   2.188  14.618  0.00  0.00    +0.000 A 
ATOM      3  N   UNL     1      35.430   3.120  14.874  0.00  0.00    +0.000 NA
ATOM      4  C   UNL     1      34.460   2.918  15.813  0.00  0.00    +0.000 A 
ATOM      5  N   UNL     1      34.427   1.751  16.501  0.00  0.00    +0.000 NA
ATOM      6  C   UNL     1      35.322   0.770  16.295  0.00  0.00    +0.000 A 
ATOM      7  O   UNL     1      35.493  -0.422  16.823  0.00  0.00    +0.000 OA
ATOM      8  C   UNL     1      36.531  -1.009  16.273  0.00  0.00    +0.000 A 
ATOM      9  C   UNL     1      37.064  -0.151  15.335  0.00  0.00    +0.000 A 
ATOM     10  C   UNL     1      36.293   1.009  15.334  0.00  0.00    +0.000 A 
ENDROOT
BRANCH   8  11
ATOM     11  C   UNL     1      37.060  -2.331  16.570  0.00  0.00    +0.000 A 
ATOM     12  C   UNL     1      36.581  -3.474  15.939  0.00  0.00    +0.000 A 
ATOM     13  C   UNL     1      37.080  -4.731  16.215  0.00  0.00    +0.000 A 
ATOM     14  C   UNL     1      38.085  -4.874  17.144  0.00  0.00    +0.000 A 
ATOM     15  C   UNL     1      38.584  -3.765  17.787  0.00  0.00    +0.000 A 
ATOM     16  C   UNL     1      38.066  -2.541  17.488  0.00  0.00    +0.000 A 
ENDBRANCH   8  11
BRANCH   9  17
ATOM     17  C   UNL     1      38.211  -0.384  14.491  0.00  0.00    +0.000 A 
ATOM     18  C   UNL     1      39.499  -0.075  14.736  0.00  0.00    +0.000 A 
ATOM     19  C   UNL     1      40.554  -0.325  13.883  0.00  0.00    +0.000 A 
ATOM     20  C   UNL     1      40.266  -0.939  12.691  0.00  0.00    +0.000 A 
ATOM     21  C   UNL     1      38.992  -1.281  12.375  0.00  0.00    +0.000 A 
ATOM     22  C   UNL     1      37.992  -1.000  13.273  0.00  0.00    +0.000 A 
ENDBRANCH   9  17
BRANCH   1  23
ATOM     23  C   UNL     1      37.538   3.485  12.877  0.00  0.00    +0.000 C 
BRANCH  23  24
ATOM     24  C   UNL     1      38.674   4.308  13.291  0.00  0.00    +0.000 C 
BRANCH  24  28
ATOM     25  C   UNL     1      38.410   6.030  17.170  0.00  0.00    +0.000 A 
ATOM     26  C   UNL     1      38.948   4.779  16.962  0.00  0.00    +0.000 A 
ATOM     27  C   UNL     1      39.029   4.252  15.702  0.00  0.00    +0.000 A 
ATOM     28  C   UNL     1      38.580   4.948  14.591  0.00  0.00    +0.000 A 
ATOM     29  C   UNL     1      38.040   6.206  14.804  0.00  0.00    +0.000 A 
ATOM     30  C   UNL     1      37.955   6.740  16.063  0.00  0.00    +0.000 A 
BRANCH  25  32
ATOM     31  C   UNL     1      39.362   6.437  19.351  0.00  0.00    +0.000 C 
ATOM     32  O   UNL     1      38.303   6.613  18.421  0.00  0.00    +0.000 OA
ENDBRANCH  25  32
BRANCH  30  33
ATOM     33  O   UNL     1      37.412   7.994  16.225  0.00  0.00    +0.000 OA
ATOM     34  C   UNL     1      38.193   9.155  16.029  0.00  0.00    +0.000 C 
ENDBRANCH  30  33
ENDBRANCH  24  28
ENDBRANCH  23  24
ENDBRANCH   1  23
TORSDOF 7
ENDMDL
MODEL 7
REMARK VINA RESULT:      -6.9      1.994      6.647
REMARK  Name = 
REMARK  7 active torsions:
REMARK  status: ('A' for Active; 'I' for Inactive)
REMARK    1  A    between atoms: O_2  and  C_3
REMARK    2  A    between atoms: C_6  and  C_7
REMARK    3  A    between atoms: C_7  and  C_8
REMARK    4  A    between atoms: C_8  and  N_9
REMARK    5  A    between atoms: C_16  and  C_17
REMARK    6  A    between atoms: C_23  and  C_24
REMARK    7  A    between atoms: C_32  and  O_33
REMARK                            x       y       z     vdW  Elec       q    Type
REMARK                         _______ _______ _______ _____ _____    ______ ____
ROOT
ATOM      1  N   UNL     1      37.785  -1.460  15.515  0.00  0.00    +0.000 NA
ATOM      2  C   UNL     1      37.050  -0.915  16.574  0.00  0.00    +0.000 A 
ATOM      3  N   UNL     1      36.715  -1.585  17.680  0.00  0.00    +0.000 NA
ATOM      4  C   UNL     1      36.023  -0.981  18.691  0.00  0.00    +0.000 A 
ATOM      5  N   UNL     1      35.669   0.321  18.575  0.00  0.00    +0.000 NA
ATOM      6  C   UNL     1      35.974   1.056  17.491  0.00  0.00    +0.000 A 
ATOM      7  O   UNL     1      35.747   2.306  17.154  0.00  0.00    +0.000 OA
ATOM      8  C   UNL     1      36.257   2.548  15.969  0.00  0.00    +0.000 A 
ATOM      9  C   UNL     1      36.850   1.391  15.510  0.00  0.00    +0.000 A 
ATOM     10  C   UNL     1      36.676   0.411  16.484  0.00  0.00    +0.000 A 
ENDROOT
BRANCH   8  11
ATOM     11  C   UNL     1      36.226   3.802  15.232  0.00  0.00    +0.000 A 
ATOM     12  C   UNL     1      35.134   4.171  14.453  0.00  0.00    +0.000 A 
ATOM     13  C   UNL     1      35.098   5.359  13.753  0.00  0.00    +0.000 A 
ATOM     14  C   UNL     1      36.170   6.219  13.817  0.00  0.00    +0.000 A 
ATOM     15  C   UNL     1      37.267   5.887  14.579  0.00  0.00    +0.000 A 
ATOM     16  C   UNL     1      37.266   4.705  15.255  0.00  0.00    +0.000 A 
ENDBRANCH   8  11
BRANCH   9  17
ATOM     17  C   UNL     1      37.533   1.200  14.254  0.00  0.00    +0.000 A 
ATOM     18  C   UNL     1      38.835   1.405  13.976  0.00  0.00    +0.000 A 
ATOM     19  C   UNL     1      39.428   1.203  12.747  0.00  0.00    +0.000 A 
ATOM     20  C   UNL     1      38.626   0.756  11.728  0.00  0.00    +0.000 A 
ATOM     21  C   UNL     1      37.305   0.527  11.933  0.00  0.00    +0.000 A 
ATOM     22  C   UNL     1      36.783   0.750  13.183  0.00  0.00    +0.000 A 
ENDBRANCH   9  17
BRANCH   1  23
ATOM     23  C   UNL     1      38.195  -2.813  15.474  0.00  0.00    +0.000 C 
BRANCH  23  24
ATOM     24  C   UNL     1      39.644  -3.007  15.509  0.00  0.00    +0.000 C 
BRANCH  24  28
ATOM     25  C   UNL     1      41.817  -1.520  12.170  0.00  0.00    +0.000 A 
ATOM     26  C   UNL     1      40.729  -2.352  12.021  0.00  0.00    +0.000 A 
ATOM     27  C   UNL     1      40.042  -2.808  13.112  0.00  0.00    +0.000 A 
ATOM     28  C   UNL     1      40.406  -2.457  14.402  0.00  0.00    +0.000 A 
ATOM     29  C   UNL     1      41.501  -1.621  14.549  0.00  0.00    +0.000 A 
ATOM     30  C   UNL     1      42.194  -1.159  13.461  0.00  0.00    +0.000 A 
BRANCH  25  32
ATOM     31  C   UNL     1      41.977  -0.010  10.293  0.00  0.00    +0.000 C 
ATOM     32  O   UNL     1      42.549  -1.027  11.104  0.00  0.00    +0.000 OA
ENDBRANCH  25  32
BRANCH  30  33
ATOM     33  O   UNL     1      43.274  -0.329  13.656  0.00  0.00    +0.000 OA
ATOM     34  C   UNL     1      44.077  -0.441  14.814  0.00  0.00    +0.000 C 
ENDBRANCH  30  33
ENDBRANCH  24  28
ENDBRANCH  23  24
ENDBRANCH   1  23
TORSDOF 7
ENDMDL
MODEL 8
REMARK VINA RESULT:      -6.9     26.489     29.362
REMARK  Name = 
REMARK  7 active torsions:
REMARK  status: ('A' for Active; 'I' for Inactive)
REMARK    1  A    between atoms: O_2  and  C_3
REMARK    2  A    between atoms: C_6  and  C_7
REMARK    3  A    between atoms: C_7  and  C_8
REMARK    4  A    between atoms: C_8  and  N_9
REMARK    5  A    between atoms: C_16  and  C_17
REMARK    6  A    between atoms: C_23  and  C_24
REMARK    7  A    between atoms: C_32  and  O_33
REMARK                            x       y       z     vdW  Elec       q    Type
REMARK                         _______ _______ _______ _____ _____    ______ ____
ROOT
ATOM      1  N   UNL     1      28.467  15.558  39.491  0.00  0.00    +0.000 NA
ATOM      2  C   UNL     1      29.409  15.448  38.462  0.00  0.00    +0.000 A 
ATOM      3  N   UNL     1      30.722  15.297  38.657  0.00  0.00    +0.000 NA
ATOM      4  C   UNL     1      31.583  15.163  37.606  0.00  0.00    +0.000 A 
ATOM      5  N   UNL     1      31.102  15.181  36.340  0.00  0.00    +0.000 NA
ATOM      6  C   UNL     1      29.792  15.329  36.071  0.00  0.00    +0.000 A 
ATOM      7  O   UNL     1      29.100  15.377  34.954  0.00  0.00    +0.000 OA
ATOM      8  C   UNL     1      27.826  15.536  35.226  0.00  0.00    +0.000 A 
ATOM      9  C   UNL     1      27.682  15.595  36.596  0.00  0.00    +0.000 A 
ATOM     10  C   UNL     1      28.947  15.463  37.161  0.00  0.00    +0.000 A 
ENDROOT
BRANCH   8  11
ATOM     11  C   UNL     1      26.725  15.638  34.280  0.00  0.00    +0.000 A 
ATOM     12  C   UNL     1      26.155  14.514  33.692  0.00  0.00    +0.000 A 
ATOM     13  C   UNL     1      25.110  14.603  32.795  0.00  0.00    +0.000 A 
ATOM     14  C   UNL     1      24.604  15.839  32.461  0.00  0.00    +0.000 A 
ATOM     15  C   UNL     1      25.144  16.973  33.025  0.00  0.00    +0.000 A 
ATOM     16  C   UNL     1      26.175  16.844  33.905  0.00  0.00    +0.000 A 
ENDBRANCH   8  11
BRANCH   9  17
ATOM     17  C   UNL     1      26.455  15.764  37.337  0.00  0.00    +0.000 A 
ATOM     18  C   UNL     1      25.665  14.809  37.864  0.00  0.00    +0.000 A 
ATOM     19  C   UNL     1      24.499  15.037  38.564  0.00  0.00    +0.000 A 
ATOM     20  C   UNL     1      24.116  16.342  38.739  0.00  0.00    +0.000 A 
ATOM     21  C   UNL     1      24.862  17.359  38.237  0.00  0.00    +0.000 A 
ATOM     22  C   UNL     1      26.011  17.055  37.550  0.00  0.00    +0.000 A 
ENDBRANCH   9  17
BRANCH   1  23
ATOM     23  C   UNL     1      28.819  15.591  40.861  0.00  0.00    +0.000 C 
BRANCH  23  24
ATOM     24  C   UNL     1      28.163  14.571  41.678  0.00  0.00    +0.000 C 
BRANCH  24  28
ATOM     25  C   UNL     1      29.176  10.564  40.676  0.00  0.00    +0.000 A 
ATOM     26  C   UNL     1      30.132  11.547  40.808  0.00  0.00    +0.000 A 
ATOM     27  C   UNL     1      29.779  12.826  41.141  0.00  0.00    +0.000 A 
ATOM     28  C   UNL     1      28.459  13.185  41.358  0.00  0.00    +0.000 A 
ATOM     29  C   UNL     1      27.500  12.194  41.224  0.00  0.00    +0.000 A 
ATOM     30  C   UNL     1      27.845  10.911  40.891  0.00  0.00    +0.000 A 
BRANCH  25  32
ATOM     31  C   UNL     1      30.116   8.432  41.306  0.00  0.00    +0.000 C 
ATOM     32  O   UNL     1      29.473   9.254  40.343  0.00  0.00    +0.000 OA
ENDBRANCH  25  32
BRANCH  30  33
ATOM     33  O   UNL     1      26.857   9.960  40.770  0.00  0.00    +0.000 OA
ATOM     34  C   UNL     1      26.433   9.207  41.888  0.00  0.00    +0.000 C 
ENDBRANCH  30  33
ENDBRANCH  24  28
ENDBRANCH  23  24
ENDBRANCH   1  23
TORSDOF 7
ENDMDL
MODEL 9
REMARK VINA RESULT:      -6.9      2.882      5.254
REMARK  Name = 
REMARK  7 active torsions:
REMARK  status: ('A' for Active; 'I' for Inactive)
REMARK    1  A    between atoms: O_2  and  C_3
REMARK    2  A    between atoms: C_6  and  C_7
REMARK    3  A    between atoms: C_7  and  C_8
REMARK    4  A    between atoms: C_8  and  N_9
REMARK    5  A    between atoms: C_16  and  C_17
REMARK    6  A    between atoms: C_23  and  C_24
REMARK    7  A    between atoms: C_32  and  O_33
REMARK                            x       y       z     vdW  Elec       q    Type
REMARK                         _______ _______ _______ _____ _____    ______ ____
ROOT
ATOM      1  N   UNL     1      37.094   2.073  13.373  0.00  0.00    +0.000 NA
ATOM      2  C   UNL     1      36.199   2.041  14.448  0.00  0.00    +0.000 A 
ATOM      3  N   UNL     1      35.287   2.985  14.696  0.00  0.00    +0.000 NA
ATOM      4  C   UNL     1      34.421   2.875  15.746  0.00  0.00    +0.000 A 
ATOM      5  N   UNL     1      34.484   1.789  16.554  0.00  0.00    +0.000 NA
ATOM      6  C   UNL     1      35.376   0.801  16.362  0.00  0.00    +0.000 A 
ATOM      7  O   UNL     1      35.626  -0.325  16.994  0.00  0.00    +0.000 OA
ATOM      8  C   UNL     1      36.615  -0.956  16.406  0.00  0.00    +0.000 A 
ATOM      9  C   UNL     1      37.032  -0.198  15.332  0.00  0.00    +0.000 A 
ATOM     10  C   UNL     1      36.239   0.945  15.288  0.00  0.00    +0.000 A 
ENDROOT
BRANCH   8  11
ATOM     11  C   UNL     1      37.201  -2.232  16.786  0.00  0.00    +0.000 A 
ATOM     12  C   UNL     1      36.775  -3.433  16.228  0.00  0.00    +0.000 A 
ATOM     13  C   UNL     1      37.328  -4.646  16.583  0.00  0.00    +0.000 A 
ATOM     14  C   UNL     1      38.335  -4.686  17.520  0.00  0.00    +0.000 A 
ATOM     15  C   UNL     1      38.782  -3.518  18.093  0.00  0.00    +0.000 A 
ATOM     16  C   UNL     1      38.212  -2.340  17.717  0.00  0.00    +0.000 A 
ENDBRANCH   8  11
BRANCH   9  17
ATOM     17  C   UNL     1      38.093  -0.508  14.405  0.00  0.00    +0.000 A 
ATOM     18  C   UNL     1      38.008  -1.173  13.237  0.00  0.00    +0.000 A 
ATOM     19  C   UNL     1      39.067  -1.439  12.393  0.00  0.00    +0.000 A 
ATOM     20  C   UNL     1      40.304  -0.988  12.776  0.00  0.00    +0.000 A 
ATOM     21  C   UNL     1      40.468  -0.311  13.941  0.00  0.00    +0.000 A 
ATOM     22  C   UNL     1      39.368  -0.083  14.730  0.00  0.00    +0.000 A 
ENDBRANCH   9  17
BRANCH   1  23
ATOM     23  C   UNL     1      37.175   3.155  12.466  0.00  0.00    +0.000 C 
BRANCH  23  24
ATOM     24  C   UNL     1      37.751   4.376  13.031  0.00  0.00    +0.000 C 
BRANCH  24  28
ATOM     25  C   UNL     1      35.157   7.654  13.811  0.00  0.00    +0.000 A 
ATOM     26  C   UNL     1      36.290   7.426  14.560  0.00  0.00    +0.000 A 
ATOM     27  C   UNL     1      37.112   6.369  14.281  0.00  0.00    +0.000 A 
ATOM     28  C   UNL     1      36.845   5.491  13.244  0.00  0.00    +0.000 A 
ATOM     29  C   UNL     1      35.704   5.723  12.492  0.00  0.00    +0.000 A 
ATOM     30  C   UNL     1      34.876   6.779  12.765  0.00  0.00    +0.000 A 
BRANCH  25  32
ATOM     31  C   UNL     1      33.640   8.790  15.306  0.00  0.00    +0.000 C 
ATOM     32  O   UNL     1      34.289   8.706  14.045  0.00  0.00    +0.000 OA
ENDBRANCH  25  32
BRANCH  30  33
ATOM     33  O   UNL     1      33.754   6.970  11.991  0.00  0.00    +0.000 OA
ATOM     34  C   UNL     1      33.855   7.497  10.683  0.00  0.00    +0.000 C 
ENDBRANCH  30  33
ENDBRANCH  24  28
ENDBRANCH  23  24
ENDBRANCH   1  23
TORSDOF 7
ENDMDL
MODEL 10
REMARK VINA RESULT:      -6.6     24.710     28.511
REMARK  Name = 
REMARK  7 active torsions:
REMARK  status: ('A' for Active; 'I' for Inactive)
REMARK    1  A    between atoms: O_2  and  C_3
REMARK    2  A    between atoms: C_6  and  C_7
REMARK    3  A    between atoms: C_7  and  C_8
REMARK    4  A    between atoms: C_8  and  N_9
REMARK    5  A    between atoms: C_16  and  C_17
REMARK    6  A    between atoms: C_23  and  C_24
REMARK    7  A    between atoms: C_32  and  O_33
REMARK                            x       y       z     vdW  Elec       q    Type
REMARK                         _______ _______ _______ _____ _____    ______ ____
ROOT
ATOM      1  N   UNL     1      28.974  15.025  39.136  0.00  0.00    +0.000 NA
ATOM      2  C   UNL     1      27.619  14.764  39.368  0.00  0.00    +0.000 A 
ATOM      3  N   UNL     1      27.137  14.235  40.496  0.00  0.00    +0.000 NA
ATOM      4  C   UNL     1      25.797  14.036  40.669  0.00  0.00    +0.000 A 
ATOM      5  N   UNL     1      24.937  14.381  39.681  0.00  0.00    +0.000 NA
ATOM      6  C   UNL     1      25.353  14.918  38.520  0.00  0.00    +0.000 A 
ATOM      7  O   UNL     1      24.726  15.325  37.438  0.00  0.00    +0.000 OA
ATOM      8  C   UNL     1      25.595  15.780  36.565  0.00  0.00    +0.000 A 
ATOM      9  C   UNL     1      26.855  15.663  37.110  0.00  0.00    +0.000 A 
ATOM     10  C   UNL     1      26.718  15.105  38.378  0.00  0.00    +0.000 A 
ENDROOT
BRANCH   8  11
ATOM     11  C   UNL     1      25.319  16.323  35.244  0.00  0.00    +0.000 A 
ATOM     12  C   UNL     1      25.350  15.529  34.102  0.00  0.00    +0.000 A 
ATOM     13  C   UNL     1      25.088  16.036  32.845  0.00  0.00    +0.000 A 
ATOM     14  C   UNL     1      24.785  17.371  32.701  0.00  0.00    +0.000 A 
ATOM     15  C   UNL     1      24.744  18.186  33.809  0.00  0.00    +0.000 A 
ATOM     16  C   UNL     1      25.009  17.648  35.032  0.00  0.00    +0.000 A 
ENDBRANCH   8  11
BRANCH   9  17
ATOM     17  C   UNL     1      28.108  16.041  36.501  0.00  0.00    +0.000 A 
ATOM     18  C   UNL     1      28.794  17.189  36.656  0.00  0.00    +0.000 A 
ATOM     19  C   UNL     1      29.991  17.491  36.041  0.00  0.00    +0.000 A 
ATOM     20  C   UNL     1      30.524  16.542  35.205  0.00  0.00    +0.000 A 
ATOM     21  C   UNL     1      29.890  15.361  34.999  0.00  0.00    +0.000 A 
ATOM     22  C   UNL     1      28.701  15.131  35.646  0.00  0.00    +0.000 A 
ENDBRANCH   9  17
BRANCH   1  23
ATOM     23  C   UNL     1      29.995  14.688  40.055  0.00  0.00    +0.000 C 
BRANCH  23  24
ATOM     24  C   UNL     1      30.821  13.550  39.652  0.00  0.00    +0.000 C 
BRANCH  24  28
ATOM     25  C   UNL     1      33.142  13.875  36.103  0.00  0.00    +0.000 A 
ATOM     26  C   UNL     1      32.199  12.885  36.270  0.00  0.00    +0.000 A 
ATOM     27  C   UNL     1      31.459  12.809  37.418  0.00  0.00    +0.000 A 
ATOM     28  C   UNL     1      31.624  13.716  38.453  0.00  0.00    +0.000 A 
ATOM     29  C   UNL     1      32.573  14.710  38.282  0.00  0.00    +0.000 A 
ATOM     30  C   UNL     1      33.318  14.793  37.135  0.00  0.00    +0.000 A 
BRANCH  25  32
ATOM     31  C   UNL     1      33.333  14.558  33.796  0.00  0.00    +0.000 C 
ATOM     32  O   UNL     1      33.919  14.001  34.964  0.00  0.00    +0.000 OA
ENDBRANCH  25  32
BRANCH  30  33
ATOM     33  O   UNL     1      34.249  15.799  37.010  0.00  0.00    +0.000 OA
ATOM     34  C   UNL     1      33.854  17.119  36.694  0.00  0.00    +0.000 C 
ENDBRANCH  30  33
ENDBRANCH  24  28
ENDBRANCH  23  24
ENDBRANCH   1  23
TORSDOF 7
ENDMDL
