MODEL 1
REMARK VINA RESULT:      -8.9      0.000      0.000
REMARK  Name = 
REMARK  7 active torsions:
REMARK  status: ('A' for Active; 'I' for Inactive)
REMARK    1  A    between atoms: C_5  and  S_6
REMARK    2  A    between atoms: S_6  and  C_7
REMARK    3  A    between atoms: C_8  and  N_9
REMARK    4  A    between atoms: N_9  and  C_10
REMARK    5  A    between atoms: N_20  and  C_21
REMARK    6  A    between atoms: C_21  and  C_22
REMARK    7  A    between atoms: C_22  and  C_23
REMARK                            x       y       z     vdW  Elec       q    Type
REMARK                         _______ _______ _______ _____ _____    ______ ____
ROOT
ATOM      1  C   UNL     1      37.587   3.853  14.919  0.00  0.00    +0.000 C 
ATOM      2  C   UNL     1      36.341   4.260  14.780  0.00  0.00    +0.000 C 
ATOM      3  C   UNL     1      35.400   3.177  14.953  0.00  0.00    +0.000 C 
ATOM      4  O   UNL     1      34.126   3.210  14.887  0.00  0.00    +0.000 OA
ATOM      5  N   UNL     1      36.162   2.017  15.221  0.00  0.00    +0.000 N 
ATOM      6  C   UNL     1      37.518   2.418  15.203  0.00  0.00    +0.000 C 
ATOM      7  O   UNL     1      38.539   1.718  15.392  0.00  0.00    +0.000 OA
ENDROOT
BRANCH   1   8
ATOM      8  S   UNL     1      39.019   4.896  14.777  0.00  0.00    +0.000 S 
BRANCH   8  13
ATOM      9  C   UNL     1      41.034   6.644  20.261  0.00  0.00    +0.000 C 
ATOM     10  C   UNL     1      40.533   6.212  18.924  0.00  0.00    +0.000 A 
ATOM     11  C   UNL     1      39.370   5.485  18.784  0.00  0.00    +0.000 A 
ATOM     12  C   UNL     1      38.922   5.094  17.537  0.00  0.00    +0.000 A 
ATOM     13  C   UNL     1      39.609   5.407  16.380  0.00  0.00    +0.000 A 
ATOM     14  C   UNL     1      40.777   6.139  16.533  0.00  0.00    +0.000 A 
ATOM     15  C   UNL     1      41.228   6.531  17.776  0.00  0.00    +0.000 A 
ENDBRANCH   8  13
ENDBRANCH   1   8
BRANCH   2  16
ATOM     16  N   UNL     1      35.957   5.603  14.492  0.00  0.00    +0.000 NA
BRANCH  16  17
ATOM     17  C   UNL     1      35.540   6.009  13.203  0.00  0.00    +0.000 A 
ATOM     18  C   UNL     1      36.215   5.679  12.047  0.00  0.00    +0.000 A 
ATOM     19  C   UNL     1      35.780   6.092  10.803  0.00  0.00    +0.000 A 
ATOM     20  C   UNL     1      34.627   6.867  10.693  0.00  0.00    +0.000 A 
ATOM     21  C   UNL     1      34.136   7.328   9.354  0.00  0.00    +0.000 C 
ATOM     22  C   UNL     1      33.972   7.183  11.866  0.00  0.00    +0.000 A 
ATOM     23  C   UNL     1      34.397   6.777  13.104  0.00  0.00    +0.000 A 
ATOM     24  C   UNL     1      33.606   7.182  14.294  0.00  0.00    +0.000 C 
ENDBRANCH  16  17
ENDBRANCH   2  16
BRANCH   5  25
ATOM     25  C   UNL     1      35.657   0.696  15.463  0.00  0.00    +0.000 C 
BRANCH  25  26
ATOM     26  C   UNL     1      35.259   0.486  16.908  0.00  0.00    +0.000 C 
BRANCH  26  27
ATOM     27  C   UNL     1      36.269  -0.438  17.521  0.00  0.00    +0.000 A 
ATOM     28  C   UNL     1      37.169  -1.136  16.728  0.00  0.00    +0.000 A 
ATOM     29  C   UNL     1      38.085  -1.976  17.326  0.00  0.00    +0.000 A 
ATOM     30  C   UNL     1      38.094  -2.113  18.702  0.00  0.00    +0.000 A 
ATOM     31  C   UNL     1      37.203  -1.422  19.492  0.00  0.00    +0.000 A 
ATOM     32  C   UNL     1      36.300  -0.592  18.885  0.00  0.00    +0.000 A 
ENDBRANCH  26  27
ENDBRANCH  25  26
ENDBRANCH   5  25
TORSDOF 7
ENDMDL
MODEL 2
REMARK VINA RESULT:      -8.6      3.539      7.947
REMARK  Name = 
REMARK  7 active torsions:
REMARK  status: ('A' for Active; 'I' for Inactive)
REMARK    1  A    between atoms: C_5  and  S_6
REMARK    2  A    between atoms: S_6  and  C_7
REMARK    3  A    between atoms: C_8  and  N_9
REMARK    4  A    between atoms: N_9  and  C_10
REMARK    5  A    between atoms: N_20  and  C_21
REMARK    6  A    between atoms: C_21  and  C_22
REMARK    7  A    between atoms: C_22  and  C_23
REMARK                            x       y       z     vdW  Elec       q    Type
REMARK                         _______ _______ _______ _____ _____    ______ ____
ROOT
ATOM      1  C   UNL     1      37.265   2.252  14.932  0.00  0.00    +0.000 C 
ATOM      2  C   UNL     1      38.378   2.669  14.361  0.00  0.00    +0.000 C 
ATOM      3  C   UNL     1      38.911   3.841  15.016  0.00  0.00    +0.000 C 
ATOM      4  O   UNL     1      39.964   4.503  14.732  0.00  0.00    +0.000 OA
ATOM      5  N   UNL     1      38.030   4.148  16.077  0.00  0.00    +0.000 N 
ATOM      6  C   UNL     1      37.005   3.175  16.039  0.00  0.00    +0.000 C 
ATOM      7  O   UNL     1      36.012   3.059  16.794  0.00  0.00    +0.000 OA
ENDROOT
BRANCH   1   8
ATOM      8  S   UNL     1      36.320   0.842  14.407  0.00  0.00    +0.000 S 
BRANCH   8  13
ATOM      9  C   UNL     1      38.613  -4.327  16.690  0.00  0.00    +0.000 C 
ATOM     10  C   UNL     1      38.055  -3.058  16.140  0.00  0.00    +0.000 A 
ATOM     11  C   UNL     1      38.176  -1.860  16.812  0.00  0.00    +0.000 A 
ATOM     12  C   UNL     1      37.653  -0.695  16.285  0.00  0.00    +0.000 A 
ATOM     13  C   UNL     1      36.990  -0.670  15.074  0.00  0.00    +0.000 A 
ATOM     14  C   UNL     1      36.875  -1.881  14.407  0.00  0.00    +0.000 A 
ATOM     15  C   UNL     1      37.395  -3.047  14.929  0.00  0.00    +0.000 A 
ENDBRANCH   8  13
ENDBRANCH   1   8
BRANCH   2  16
ATOM     16  N   UNL     1      38.990   2.047  13.233  0.00  0.00    +0.000 NA
BRANCH  16  17
ATOM     17  C   UNL     1      39.608   0.777  13.315  0.00  0.00    +0.000 A 
ATOM     18  C   UNL     1      40.448   0.405  14.344  0.00  0.00    +0.000 A 
ATOM     19  C   UNL     1      41.035  -0.843  14.394  0.00  0.00    +0.000 A 
ATOM     20  C   UNL     1      40.783  -1.770  13.383  0.00  0.00    +0.000 A 
ATOM     21  C   UNL     1      41.409  -3.131  13.415  0.00  0.00    +0.000 C 
ATOM     22  C   UNL     1      39.939  -1.372  12.366  0.00  0.00    +0.000 A 
ATOM     23  C   UNL     1      39.352  -0.134  12.310  0.00  0.00    +0.000 A 
ATOM     24  C   UNL     1      38.462   0.177  11.163  0.00  0.00    +0.000 C 
ENDBRANCH  16  17
ENDBRANCH   2  16
BRANCH   5  25
ATOM     25  C   UNL     1      38.153   5.234  17.008  0.00  0.00    +0.000 C 
BRANCH  25  26
ATOM     26  C   UNL     1      38.824   4.814  18.298  0.00  0.00    +0.000 C 
BRANCH  26  27
ATOM     27  C   UNL     1      39.293   6.061  18.986  0.00  0.00    +0.000 A 
ATOM     28  C   UNL     1      40.521   6.099  19.632  0.00  0.00    +0.000 A 
ATOM     29  C   UNL     1      40.921   7.264  20.254  0.00  0.00    +0.000 A 
ATOM     30  C   UNL     1      40.097   8.374  20.227  0.00  0.00    +0.000 A 
ATOM     31  C   UNL     1      38.879   8.340  19.587  0.00  0.00    +0.000 A 
ATOM     32  C   UNL     1      38.495   7.178  18.974  0.00  0.00    +0.000 A 
ENDBRANCH  26  27
ENDBRANCH  25  26
ENDBRANCH   5  25
TORSDOF 7
ENDMDL
MODEL 3
REMARK VINA RESULT:      -8.5      3.227      8.333
REMARK  Name = 
REMARK  7 active torsions:
REMARK  status: ('A' for Active; 'I' for Inactive)
REMARK    1  A    between atoms: C_5  and  S_6
REMARK    2  A    between atoms: S_6  and  C_7
REMARK    3  A    between atoms: C_8  and  N_9
REMARK    4  A    between atoms: N_9  and  C_10
REMARK    5  A    between atoms: N_20  and  C_21
REMARK    6  A    between atoms: C_21  and  C_22
REMARK    7  A    between atoms: C_22  and  C_23
REMARK                            x       y       z     vdW  Elec       q    Type
REMARK                         _______ _______ _______ _____ _____    ______ ____
ROOT
ATOM      1  C   UNL     1      37.341   0.950  14.391  0.00  0.00    +0.000 C 
ATOM      2  C   UNL     1      36.828   0.953  15.606  0.00  0.00    +0.000 C 
ATOM      3  C   UNL     1      36.953   2.247  16.238  0.00  0.00    +0.000 C 
ATOM      4  O   UNL     1      36.569   2.606  17.401  0.00  0.00    +0.000 OA
ATOM      5  N   UNL     1      37.602   3.091  15.309  0.00  0.00    +0.000 N 
ATOM      6  C   UNL     1      37.849   2.304  14.160  0.00  0.00    +0.000 C 
ATOM      7  O   UNL     1      38.404   2.642  13.090  0.00  0.00    +0.000 OA
ENDROOT
BRANCH   1   8
ATOM      8  S   UNL     1      37.374  -0.456  13.305  0.00  0.00    +0.000 S 
BRANCH   8  13
ATOM      9  C   UNL     1      42.952  -2.905  13.027  0.00  0.00    +0.000 C 
ATOM     10  C   UNL     1      41.584  -2.313  13.088  0.00  0.00    +0.000 A 
ATOM     11  C   UNL     1      40.525  -2.857  12.393  0.00  0.00    +0.000 A 
ATOM     12  C   UNL     1      39.265  -2.295  12.464  0.00  0.00    +0.000 A 
ATOM     13  C   UNL     1      39.006  -1.172  13.224  0.00  0.00    +0.000 A 
ATOM     14  C   UNL     1      40.078  -0.633  13.919  0.00  0.00    +0.000 A 
ATOM     15  C   UNL     1      41.338  -1.191  13.851  0.00  0.00    +0.000 A 
ENDBRANCH   8  13
ENDBRANCH   1   8
BRANCH   2  16
ATOM     16  N   UNL     1      36.221  -0.177  16.229  0.00  0.00    +0.000 NA
BRANCH  16  17
ATOM     17  C   UNL     1      36.939  -1.038  17.092  0.00  0.00    +0.000 A 
ATOM     18  C   UNL     1      37.962  -1.860  16.668  0.00  0.00    +0.000 A 
ATOM     19  C   UNL     1      38.642  -2.689  17.536  0.00  0.00    +0.000 A 
ATOM     20  C   UNL     1      38.299  -2.709  18.888  0.00  0.00    +0.000 A 
ATOM     21  C   UNL     1      39.024  -3.602  19.850  0.00  0.00    +0.000 C 
ATOM     22  C   UNL     1      37.273  -1.878  19.285  0.00  0.00    +0.000 A 
ATOM     23  C   UNL     1      36.593  -1.052  18.428  0.00  0.00    +0.000 A 
ATOM     24  C   UNL     1      35.504  -0.202  18.976  0.00  0.00    +0.000 C 
ENDBRANCH  16  17
ENDBRANCH   2  16
BRANCH   5  25
ATOM     25  C   UNL     1      37.941   4.473  15.497  0.00  0.00    +0.000 C 
BRANCH  25  26
ATOM     26  C   UNL     1      39.437   4.703  15.507  0.00  0.00    +0.000 C 
BRANCH  26  27
ATOM     27  C   UNL     1      39.784   5.338  16.820  0.00  0.00    +0.000 A 
ATOM     28  C   UNL     1      38.955   5.189  17.924  0.00  0.00    +0.000 A 
ATOM     29  C   UNL     1      39.307   5.786  19.116  0.00  0.00    +0.000 A 
ATOM     30  C   UNL     1      40.474   6.523  19.197  0.00  0.00    +0.000 A 
ATOM     31  C   UNL     1      41.297   6.673  18.105  0.00  0.00    +0.000 A 
ATOM     32  C   UNL     1      40.937   6.076  16.928  0.00  0.00    +0.000 A 
ENDBRANCH  26  27
ENDBRANCH  25  26
ENDBRANCH   5  25
TORSDOF 7
ENDMDL
MODEL 4
REMARK VINA RESULT:      -8.1      3.347      8.116
REMARK  Name = 
REMARK  7 active torsions:
REMARK  status: ('A' for Active; 'I' for Inactive)
REMARK    1  A    between atoms: C_5  and  S_6
REMARK    2  A    between atoms: S_6  and  C_7
REMARK    3  A    between atoms: C_8  and  N_9
REMARK    4  A    between atoms: N_9  and  C_10
REMARK    5  A    between atoms: N_20  and  C_21
REMARK    6  A    between atoms: C_21  and  C_22
REMARK    7  A    between atoms: C_22  and  C_23
REMARK                            x       y       z     vdW  Elec       q    Type
REMARK                         _______ _______ _______ _____ _____    ______ ____
ROOT
ATOM      1  C   UNL     1      37.278   0.594  15.052  0.00  0.00    +0.000 C 
ATOM      2  C   UNL     1      38.215   1.017  14.226  0.00  0.00    +0.000 C 
ATOM      3  C   UNL     1      38.476   2.428  14.390  0.00  0.00    +0.000 C 
ATOM      4  O   UNL     1      39.312   3.162  13.763  0.00  0.00    +0.000 OA
ATOM      5  N   UNL     1      37.611   2.886  15.409  0.00  0.00    +0.000 N 
ATOM      6  C   UNL     1      36.862   1.763  15.830  0.00  0.00    +0.000 C 
ATOM      7  O   UNL     1      35.977   1.703  16.714  0.00  0.00    +0.000 OA
ENDROOT
BRANCH   1   8
ATOM      8  S   UNL     1      36.685  -1.079  15.145  0.00  0.00    +0.000 S 
BRANCH   8  13
ATOM      9  C   UNL     1      39.059  -3.998  19.944  0.00  0.00    +0.000 C 
ATOM     10  C   UNL     1      38.474  -3.277  18.777  0.00  0.00    +0.000 A 
ATOM     11  C   UNL     1      37.751  -2.113  18.929  0.00  0.00    +0.000 A 
ATOM     12  C   UNL     1      37.218  -1.459  17.835  0.00  0.00    +0.000 A 
ATOM     13  C   UNL     1      37.379  -1.934  16.548  0.00  0.00    +0.000 A 
ATOM     14  C   UNL     1      38.108  -3.105  16.407  0.00  0.00    +0.000 A 
ATOM     15  C   UNL     1      38.642  -3.761  17.496  0.00  0.00    +0.000 A 
ENDBRANCH   8  13
ENDBRANCH   1   8
BRANCH   2  16
ATOM     16  N   UNL     1      38.894   0.191  13.283  0.00  0.00    +0.000 NA
BRANCH  16  17
ATOM     17  C   UNL     1      40.175  -0.351  13.540  0.00  0.00    +0.000 A 
ATOM     18  C   UNL     1      41.250   0.404  13.958  0.00  0.00    +0.000 A 
ATOM     19  C   UNL     1      42.488  -0.157  14.200  0.00  0.00    +0.000 A 
ATOM     20  C   UNL     1      42.676  -1.527  14.022  0.00  0.00    +0.000 A 
ATOM     21  C   UNL     1      44.011  -2.159  14.279  0.00  0.00    +0.000 C 
ATOM     22  C   UNL     1      41.584  -2.258  13.603  0.00  0.00    +0.000 A 
ATOM     23  C   UNL     1      40.352  -1.708  13.361  0.00  0.00    +0.000 A 
ATOM     24  C   UNL     1      39.252  -2.601  12.913  0.00  0.00    +0.000 C 
ENDBRANCH  16  17
ENDBRANCH   2  16
BRANCH   5  25
ATOM     25  C   UNL     1      37.515   4.225  15.916  0.00  0.00    +0.000 C 
BRANCH  25  26
ATOM     26  C   UNL     1      37.827   4.306  17.395  0.00  0.00    +0.000 C 
BRANCH  26  27
ATOM     27  C   UNL     1      39.074   5.124  17.546  0.00  0.00    +0.000 A 
ATOM     28  C   UNL     1      39.822   5.494  16.436  0.00  0.00    +0.000 A 
ATOM     29  C   UNL     1      40.963   6.248  16.613  0.00  0.00    +0.000 A 
ATOM     30  C   UNL     1      41.348   6.623  17.887  0.00  0.00    +0.000 A 
ATOM     31  C   UNL     1      40.609   6.259  18.989  0.00  0.00    +0.000 A 
ATOM     32  C   UNL     1      39.479   5.511  18.799  0.00  0.00    +0.000 A 
ENDBRANCH  26  27
ENDBRANCH  25  26
ENDBRANCH   5  25
TORSDOF 7
ENDMDL
MODEL 5
REMARK VINA RESULT:      -7.9      1.949      7.759
REMARK  Name = 
REMARK  7 active torsions:
REMARK  status: ('A' for Active; 'I' for Inactive)
REMARK    1  A    between atoms: C_5  and  S_6
REMARK    2  A    between atoms: S_6  and  C_7
REMARK    3  A    between atoms: C_8  and  N_9
REMARK    4  A    between atoms: N_9  and  C_10
REMARK    5  A    between atoms: N_20  and  C_21
REMARK    6  A    between atoms: C_21  and  C_22
REMARK    7  A    between atoms: C_22  and  C_23
REMARK                            x       y       z     vdW  Elec       q    Type
REMARK                         _______ _______ _______ _____ _____    ______ ____
ROOT
ATOM      1  C   UNL     1      36.427   5.312  14.647  0.00  0.00    +0.000 C 
ATOM      2  C   UNL     1      36.870   4.073  14.728  0.00  0.00    +0.000 C 
ATOM      3  C   UNL     1      38.149   4.003  15.396  0.00  0.00    +0.000 C 
ATOM      4  O   UNL     1      38.863   2.975  15.647  0.00  0.00    +0.000 OA
ATOM      5  N   UNL     1      38.497   5.328  15.746  0.00  0.00    +0.000 N 
ATOM      6  C   UNL     1      37.442   6.150  15.289  0.00  0.00    +0.000 C 
ATOM      7  O   UNL     1      37.326   7.394  15.383  0.00  0.00    +0.000 OA
ENDROOT
BRANCH   1   8
ATOM      8  S   UNL     1      34.891   5.795  13.894  0.00  0.00    +0.000 S 
BRANCH   8  13
ATOM      9  C   UNL     1      35.631   7.028   7.968  0.00  0.00    +0.000 C 
ATOM     10  C   UNL     1      35.458   6.720   9.417  0.00  0.00    +0.000 A 
ATOM     11  C   UNL     1      36.293   5.844  10.078  0.00  0.00    +0.000 A 
ATOM     12  C   UNL     1      36.117   5.572  11.421  0.00  0.00    +0.000 A 
ATOM     13  C   UNL     1      35.107   6.156  12.160  0.00  0.00    +0.000 A 
ATOM     14  C   UNL     1      34.274   7.035  11.485  0.00  0.00    +0.000 A 
ATOM     15  C   UNL     1      34.446   7.310  10.144  0.00  0.00    +0.000 A 
ENDBRANCH   8  13
ENDBRANCH   1   8
BRANCH   2  16
ATOM     16  N   UNL     1      36.180   2.933  14.220  0.00  0.00    +0.000 NA
BRANCH  16  17
ATOM     17  C   UNL     1      35.818   1.842  15.044  0.00  0.00    +0.000 A 
ATOM     18  C   UNL     1      35.032   1.968  16.170  0.00  0.00    +0.000 A 
ATOM     19  C   UNL     1      34.696   0.881  16.953  0.00  0.00    +0.000 A 
ATOM     20  C   UNL     1      35.156  -0.390  16.610  0.00  0.00    +0.000 A 
ATOM     21  C   UNL     1      34.805  -1.585  17.444  0.00  0.00    +0.000 C 
ATOM     22  C   UNL     1      35.939  -0.487  15.479  0.00  0.00    +0.000 A 
ATOM     23  C   UNL     1      36.277   0.587  14.697  0.00  0.00    +0.000 A 
ATOM     24  C   UNL     1      37.128   0.355  13.502  0.00  0.00    +0.000 C 
ENDBRANCH  16  17
ENDBRANCH   2  16
BRANCH   5  25
ATOM     25  C   UNL     1      39.686   5.751  16.429  0.00  0.00    +0.000 C 
BRANCH  25  26
ATOM     26  C   UNL     1      39.477   5.884  17.922  0.00  0.00    +0.000 C 
BRANCH  26  27
ATOM     27  C   UNL     1      40.806   6.215  18.533  0.00  0.00    +0.000 A 
ATOM     28  C   UNL     1      40.964   6.256  19.912  0.00  0.00    +0.000 A 
ATOM     29  C   UNL     1      42.202   6.563  20.439  0.00  0.00    +0.000 A 
ATOM     30  C   UNL     1      43.263   6.827  19.592  0.00  0.00    +0.000 A 
ATOM     31  C   UNL     1      43.108   6.787  18.225  0.00  0.00    +0.000 A 
ATOM     32  C   UNL     1      41.875   6.481  17.716  0.00  0.00    +0.000 A 
ENDBRANCH  26  27
ENDBRANCH  25  26
ENDBRANCH   5  25
TORSDOF 7
ENDMDL
MODEL 6
REMARK VINA RESULT:      -7.9      1.958      6.298
REMARK  Name = 
REMARK  7 active torsions:
REMARK  status: ('A' for Active; 'I' for Inactive)
REMARK    1  A    between atoms: C_5  and  S_6
REMARK    2  A    between atoms: S_6  and  C_7
REMARK    3  A    between atoms: C_8  and  N_9
REMARK    4  A    between atoms: N_9  and  C_10
REMARK    5  A    between atoms: N_20  and  C_21
REMARK    6  A    between atoms: C_21  and  C_22
REMARK    7  A    between atoms: C_22  and  C_23
REMARK                            x       y       z     vdW  Elec       q    Type
REMARK                         _______ _______ _______ _____ _____    ______ ____
ROOT
ATOM      1  C   UNL     1      36.231   3.546  15.741  0.00  0.00    +0.000 C 
ATOM      2  C   UNL     1      36.514   4.356  14.740  0.00  0.00    +0.000 C 
ATOM      3  C   UNL     1      37.767   5.045  14.944  0.00  0.00    +0.000 C 
ATOM      4  O   UNL     1      38.344   5.894  14.185  0.00  0.00    +0.000 OA
ATOM      5  N   UNL     1      38.276   4.601  16.186  0.00  0.00    +0.000 N 
ATOM      6  C   UNL     1      37.337   3.673  16.692  0.00  0.00    +0.000 C 
ATOM      7  O   UNL     1      37.379   3.030  17.766  0.00  0.00    +0.000 OA
ENDROOT
BRANCH   1   8
ATOM      8  S   UNL     1      34.775   2.532  15.848  0.00  0.00    +0.000 S 
BRANCH   8  13
ATOM      9  C   UNL     1      36.226  -3.341  16.620  0.00  0.00    +0.000 C 
ATOM     10  C   UNL     1      35.865  -1.905  16.439  0.00  0.00    +0.000 A 
ATOM     11  C   UNL     1      34.983  -1.265  17.284  0.00  0.00    +0.000 A 
ATOM     12  C   UNL     1      34.662   0.066  17.101  0.00  0.00    +0.000 A 
ATOM     13  C   UNL     1      35.200   0.814  16.073  0.00  0.00    +0.000 A 
ATOM     14  C   UNL     1      36.085   0.161  15.229  0.00  0.00    +0.000 A 
ATOM     15  C   UNL     1      36.409  -1.168  15.408  0.00  0.00    +0.000 A 
ENDBRANCH   8  13
ENDBRANCH   1   8
BRANCH   2  16
ATOM     16  N   UNL     1      35.690   4.538  13.590  0.00  0.00    +0.000 NA
BRANCH  16  17
ATOM     17  C   UNL     1      35.297   5.819  13.139  0.00  0.00    +0.000 A 
ATOM     18  C   UNL     1      34.595   6.717  13.915  0.00  0.00    +0.000 A 
ATOM     19  C   UNL     1      34.226   7.961  13.444  0.00  0.00    +0.000 A 
ATOM     20  C   UNL     1      34.565   8.339  12.145  0.00  0.00    +0.000 A 
ATOM     21  C   UNL     1      34.175   9.684  11.610  0.00  0.00    +0.000 C 
ATOM     22  C   UNL     1      35.266   7.422  11.390  0.00  0.00    +0.000 A 
ATOM     23  C   UNL     1      35.636   6.185  11.851  0.00  0.00    +0.000 A 
ATOM     24  C   UNL     1      36.390   5.284  10.942  0.00  0.00    +0.000 C 
ENDBRANCH  16  17
ENDBRANCH   2  16
BRANCH   5  25
ATOM     25  C   UNL     1      39.503   5.012  16.807  0.00  0.00    +0.000 C 
BRANCH  25  26
ATOM     26  C   UNL     1      39.272   5.929  17.989  0.00  0.00    +0.000 C 
BRANCH  26  27
ATOM     27  C   UNL     1      40.614   6.244  18.580  0.00  0.00    +0.000 A 
ATOM     28  C   UNL     1      41.718   6.460  17.766  0.00  0.00    +0.000 A 
ATOM     29  C   UNL     1      42.936   6.748  18.345  0.00  0.00    +0.000 A 
ATOM     30  C   UNL     1      43.043   6.817  19.722  0.00  0.00    +0.000 A 
ATOM     31  C   UNL     1      41.950   6.604  20.532  0.00  0.00    +0.000 A 
ATOM     32  C   UNL     1      40.748   6.319  19.944  0.00  0.00    +0.000 A 
ENDBRANCH  26  27
ENDBRANCH  25  26
ENDBRANCH   5  25
TORSDOF 7
ENDMDL
MODEL 7
REMARK VINA RESULT:      -7.9      2.185      7.361
REMARK  Name = 
REMARK  7 active torsions:
REMARK  status: ('A' for Active; 'I' for Inactive)
REMARK    1  A    between atoms: C_5  and  S_6
REMARK    2  A    between atoms: S_6  and  C_7
REMARK    3  A    between atoms: C_8  and  N_9
REMARK    4  A    between atoms: N_9  and  C_10
REMARK    5  A    between atoms: N_20  and  C_21
REMARK    6  A    between atoms: C_21  and  C_22
REMARK    7  A    between atoms: C_22  and  C_23
REMARK                            x       y       z     vdW  Elec       q    Type
REMARK                         _______ _______ _______ _____ _____    ______ ____
ROOT
ATOM      1  C   UNL     1      36.402   5.448  14.405  0.00  0.00    +0.000 C 
ATOM      2  C   UNL     1      36.774   4.202  14.620  0.00  0.00    +0.000 C 
ATOM      3  C   UNL     1      38.010   4.132  15.366  0.00  0.00    +0.000 C 
ATOM      4  O   UNL     1      38.653   3.097  15.748  0.00  0.00    +0.000 OA
ATOM      5  N   UNL     1      38.408   5.464  15.617  0.00  0.00    +0.000 N 
ATOM      6  C   UNL     1      37.425   6.291  15.028  0.00  0.00    +0.000 C 
ATOM      7  O   UNL     1      37.371   7.543  15.006  0.00  0.00    +0.000 OA
ENDROOT
BRANCH   1   8
ATOM      8  S   UNL     1      34.938   5.934  13.523  0.00  0.00    +0.000 S 
BRANCH   8  13
ATOM      9  C   UNL     1      33.744  11.862  14.315  0.00  0.00    +0.000 C 
ATOM     10  C   UNL     1      34.032  10.410  14.130  0.00  0.00    +0.000 A 
ATOM     11  C   UNL     1      33.698   9.475  15.087  0.00  0.00    +0.000 A 
ATOM     12  C   UNL     1      33.972   8.135  14.898  0.00  0.00    +0.000 A 
ATOM     13  C   UNL     1      34.589   7.668  13.754  0.00  0.00    +0.000 A 
ATOM     14  C   UNL     1      34.921   8.616  12.798  0.00  0.00    +0.000 A 
ATOM     15  C   UNL     1      34.649   9.956  12.983  0.00  0.00    +0.000 A 
ENDBRANCH   8  13
ENDBRANCH   1   8
BRANCH   2  16
ATOM     16  N   UNL     1      36.053   3.055  14.176  0.00  0.00    +0.000 NA
BRANCH  16  17
ATOM     17  C   UNL     1      35.745   1.977  15.038  0.00  0.00    +0.000 A 
ATOM     18  C   UNL     1      34.999   2.113  16.190  0.00  0.00    +0.000 A 
ATOM     19  C   UNL     1      34.716   1.039  17.010  0.00  0.00    +0.000 A 
ATOM     20  C   UNL     1      35.190  -0.230  16.679  0.00  0.00    +0.000 A 
ATOM     21  C   UNL     1      34.897  -1.412  17.554  0.00  0.00    +0.000 C 
ATOM     22  C   UNL     1      35.934  -0.338  15.522  0.00  0.00    +0.000 A 
ATOM     23  C   UNL     1      36.219   0.724  14.703  0.00  0.00    +0.000 A 
ATOM     24  C   UNL     1      37.031   0.481  13.483  0.00  0.00    +0.000 C 
ENDBRANCH  16  17
ENDBRANCH   2  16
BRANCH   5  25
ATOM     25  C   UNL     1      39.580   5.890  16.328  0.00  0.00    +0.000 C 
BRANCH  25  26
ATOM     26  C   UNL     1      39.297   6.171  17.789  0.00  0.00    +0.000 C 
BRANCH  26  27
ATOM     27  C   UNL     1      40.619   6.333  18.478  0.00  0.00    +0.000 A 
ATOM     28  C   UNL     1      40.717   6.245  19.860  0.00  0.00    +0.000 A 
ATOM     29  C   UNL     1      41.949   6.399  20.460  0.00  0.00    +0.000 A 
ATOM     30  C   UNL     1      43.067   6.639  19.682  0.00  0.00    +0.000 A 
ATOM     31  C   UNL     1      42.973   6.727  18.311  0.00  0.00    +0.000 A 
ATOM     32  C   UNL     1      41.744   6.572  17.729  0.00  0.00    +0.000 A 
ENDBRANCH  26  27
ENDBRANCH  25  26
ENDBRANCH   5  25
TORSDOF 7
ENDMDL
MODEL 8
REMARK VINA RESULT:      -7.7      2.523      8.061
REMARK  Name = 
REMARK  7 active torsions:
REMARK  status: ('A' for Active; 'I' for Inactive)
REMARK    1  A    between atoms: C_5  and  S_6
REMARK    2  A    between atoms: S_6  and  C_7
REMARK    3  A    between atoms: C_8  and  N_9
REMARK    4  A    between atoms: N_9  and  C_10
REMARK    5  A    between atoms: N_20  and  C_21
REMARK    6  A    between atoms: C_21  and  C_22
REMARK    7  A    between atoms: C_22  and  C_23
REMARK                            x       y       z     vdW  Elec       q    Type
REMARK                         _______ _______ _______ _____ _____    ______ ____
ROOT
ATOM      1  C   UNL     1      38.696   3.152  14.131  0.00  0.00    +0.000 C 
ATOM      2  C   UNL     1      37.848   2.484  14.889  0.00  0.00    +0.000 C 
ATOM      3  C   UNL     1      37.539   3.199  16.106  0.00  0.00    +0.000 C 
ATOM      4  O   UNL     1      36.763   2.852  17.058  0.00  0.00    +0.000 OA
ATOM      5  N   UNL     1      38.273   4.405  16.066  0.00  0.00    +0.000 N 
ATOM      6  C   UNL     1      38.995   4.392  14.850  0.00  0.00    +0.000 C 
ATOM      7  O   UNL     1      39.777   5.261  14.398  0.00  0.00    +0.000 OA
ENDROOT
BRANCH   1   8
ATOM      8  S   UNL     1      39.311   2.595  12.559  0.00  0.00    +0.000 S 
BRANCH   8  13
ATOM      9  C   UNL     1      35.437   3.971   8.054  0.00  0.00    +0.000 C 
ATOM     10  C   UNL     1      36.385   3.624   9.153  0.00  0.00    +0.000 A 
ATOM     11  C   UNL     1      36.875   2.346   9.313  0.00  0.00    +0.000 A 
ATOM     12  C   UNL     1      37.753   2.045  10.337  0.00  0.00    +0.000 A 
ATOM     13  C   UNL     1      38.177   2.998  11.242  0.00  0.00    +0.000 A 
ATOM     14  C   UNL     1      37.678   4.280  11.071  0.00  0.00    +0.000 A 
ATOM     15  C   UNL     1      36.802   4.585  10.050  0.00  0.00    +0.000 A 
ENDBRANCH   8  13
ENDBRANCH   1   8
BRANCH   2  16
ATOM     16  N   UNL     1      37.298   1.211  14.557  0.00  0.00    +0.000 NA
BRANCH  16  17
ATOM     17  C   UNL     1      37.731   0.017  15.178  0.00  0.00    +0.000 A 
ATOM     18  C   UNL     1      38.999  -0.503  15.025  0.00  0.00    +0.000 A 
ATOM     19  C   UNL     1      39.390  -1.672  15.647  0.00  0.00    +0.000 A 
ATOM     20  C   UNL     1      38.490  -2.362  16.458  0.00  0.00    +0.000 A 
ATOM     21  C   UNL     1      38.892  -3.633  17.143  0.00  0.00    +0.000 C 
ATOM     22  C   UNL     1      37.229  -1.819  16.594  0.00  0.00    +0.000 A 
ATOM     23  C   UNL     1      36.833  -0.659  15.980  0.00  0.00    +0.000 A 
ATOM     24  C   UNL     1      35.447  -0.175  16.204  0.00  0.00    +0.000 C 
ENDBRANCH  16  17
ENDBRANCH   2  16
BRANCH   5  25
ATOM     25  C   UNL     1      38.283   5.438  17.062  0.00  0.00    +0.000 C 
BRANCH  25  26
ATOM     26  C   UNL     1      38.893   4.974  18.368  0.00  0.00    +0.000 C 
BRANCH  26  27
ATOM     27  C   UNL     1      40.058   5.871  18.663  0.00  0.00    +0.000 A 
ATOM     28  C   UNL     1      40.193   6.476  19.905  0.00  0.00    +0.000 A 
ATOM     29  C   UNL     1      41.278   7.295  20.141  0.00  0.00    +0.000 A 
ATOM     30  C   UNL     1      42.212   7.503  19.143  0.00  0.00    +0.000 A 
ATOM     31  C   UNL     1      42.080   6.904  17.910  0.00  0.00    +0.000 A 
ATOM     32  C   UNL     1      40.999   6.095  17.689  0.00  0.00    +0.000 A 
ENDBRANCH  26  27
ENDBRANCH  25  26
ENDBRANCH   5  25
TORSDOF 7
ENDMDL
MODEL 9
REMARK VINA RESULT:      -7.7      3.345      4.997
REMARK  Name = 
REMARK  7 active torsions:
REMARK  status: ('A' for Active; 'I' for Inactive)
REMARK    1  A    between atoms: C_5  and  S_6
REMARK    2  A    between atoms: S_6  and  C_7
REMARK    3  A    between atoms: C_8  and  N_9
REMARK    4  A    between atoms: N_9  and  C_10
REMARK    5  A    between atoms: N_20  and  C_21
REMARK    6  A    between atoms: C_21  and  C_22
REMARK    7  A    between atoms: C_22  and  C_23
REMARK                            x       y       z     vdW  Elec       q    Type
REMARK                         _______ _______ _______ _____ _____    ______ ____
ROOT
ATOM      1  C   UNL     1      39.554   4.922  14.100  0.00  0.00    +0.000 C 
ATOM      2  C   UNL     1      38.520   4.576  14.841  0.00  0.00    +0.000 C 
ATOM      3  C   UNL     1      38.263   3.156  14.776  0.00  0.00    +0.000 C 
ATOM      4  O   UNL     1      37.351   2.483  15.362  0.00  0.00    +0.000 OA
ATOM      5  N   UNL     1      39.239   2.607  13.913  0.00  0.00    +0.000 N 
ATOM      6  C   UNL     1      40.045   3.687  13.485  0.00  0.00    +0.000 C 
ATOM      7  O   UNL     1      41.031   3.665  12.713  0.00  0.00    +0.000 OA
ENDROOT
BRANCH   1   8
ATOM      8  S   UNL     1      40.172   6.579  13.926  0.00  0.00    +0.000 S 
BRANCH   8  13
ATOM      9  C   UNL     1      43.220   8.331  18.909  0.00  0.00    +0.000 C 
ATOM     10  C   UNL     1      42.477   7.893  17.692  0.00  0.00    +0.000 A 
ATOM     11  C   UNL     1      42.497   6.583  17.261  0.00  0.00    +0.000 A 
ATOM     12  C   UNL     1      41.802   6.197  16.131  0.00  0.00    +0.000 A 
ATOM     13  C   UNL     1      41.063   7.092  15.384  0.00  0.00    +0.000 A 
ATOM     14  C   UNL     1      41.051   8.407  15.826  0.00  0.00    +0.000 A 
ATOM     15  C   UNL     1      41.742   8.797  16.954  0.00  0.00    +0.000 A 
ENDBRANCH   8  13
ENDBRANCH   1   8
BRANCH   2  16
ATOM     16  N   UNL     1      37.742   5.485  15.617  0.00  0.00    +0.000 NA
BRANCH  16  17
ATOM     17  C   UNL     1      38.191   5.994  16.858  0.00  0.00    +0.000 A 
ATOM     18  C   UNL     1      38.830   5.226  17.808  0.00  0.00    +0.000 A 
ATOM     19  C   UNL     1      39.257   5.755  19.010  0.00  0.00    +0.000 A 
ATOM     20  C   UNL     1      39.045   7.104  19.289  0.00  0.00    +0.000 A 
ATOM     21  C   UNL     1      39.499   7.701  20.587  0.00  0.00    +0.000 C 
ATOM     22  C   UNL     1      38.403   7.849  18.321  0.00  0.00    +0.000 A 
ATOM     23  C   UNL     1      37.977   7.331  17.125  0.00  0.00    +0.000 A 
ATOM     24  C   UNL     1      37.298   8.236  16.162  0.00  0.00    +0.000 C 
ENDBRANCH  16  17
ENDBRANCH   2  16
BRANCH   5  25
ATOM     25  C   UNL     1      39.380   1.227  13.546  0.00  0.00    +0.000 C 
BRANCH  25  26
ATOM     26  C   UNL     1      40.564   0.568  14.222  0.00  0.00    +0.000 C 
BRANCH  26  27
ATOM     27  C   UNL     1      40.079  -0.717  14.823  0.00  0.00    +0.000 A 
ATOM     28  C   UNL     1      38.830  -0.794  15.424  0.00  0.00    +0.000 A 
ATOM     29  C   UNL     1      38.416  -1.993  15.966  0.00  0.00    +0.000 A 
ATOM     30  C   UNL     1      39.247  -3.097  15.906  0.00  0.00    +0.000 A 
ATOM     31  C   UNL     1      40.486  -3.023  15.311  0.00  0.00    +0.000 A 
ATOM     32  C   UNL     1      40.884  -1.828  14.778  0.00  0.00    +0.000 A 
ENDBRANCH  26  27
ENDBRANCH  25  26
ENDBRANCH   5  25
TORSDOF 7
ENDMDL
MODEL 10
REMARK VINA RESULT:      -7.6      2.940      6.222
REMARK  Name = 
REMARK  7 active torsions:
REMARK  status: ('A' for Active; 'I' for Inactive)
REMARK    1  A    between atoms: C_5  and  S_6
REMARK    2  A    between atoms: S_6  and  C_7
REMARK    3  A    between atoms: C_8  and  N_9
REMARK    4  A    between atoms: N_9  and  C_10
REMARK    5  A    between atoms: N_20  and  C_21
REMARK    6  A    between atoms: C_21  and  C_22
REMARK    7  A    between atoms: C_22  and  C_23
REMARK                            x       y       z     vdW  Elec       q    Type
REMARK                         _______ _______ _______ _____ _____    ______ ____
ROOT
ATOM      1  C   UNL     1      37.776   6.986  15.927  0.00  0.00    +0.000 C 
ATOM      2  C   UNL     1      38.063   6.140  16.896  0.00  0.00    +0.000 C 
ATOM      3  C   UNL     1      37.926   4.766  16.468  0.00  0.00    +0.000 C 
ATOM      4  O   UNL     1      38.123   3.699  17.139  0.00  0.00    +0.000 OA
ATOM      5  N   UNL     1      37.520   4.802  15.115  0.00  0.00    +0.000 N 
ATOM      6  C   UNL     1      37.422   6.168  14.765  0.00  0.00    +0.000 C 
ATOM      7  O   UNL     1      37.094   6.668  13.664  0.00  0.00    +0.000 OA
ENDROOT
BRANCH   1   8
ATOM      8  S   UNL     1      37.830   8.756  16.074  0.00  0.00    +0.000 S 
BRANCH   8  13
ATOM      9  C   UNL     1      43.431  10.683  17.524  0.00  0.00    +0.000 C 
ATOM     10  C   UNL     1      42.065  10.207  17.161  0.00  0.00    +0.000 A 
ATOM     11  C   UNL     1      41.840   9.421  16.050  0.00  0.00    +0.000 A 
ATOM     12  C   UNL     1      40.567   8.990  15.731  0.00  0.00    +0.000 A 
ATOM     13  C   UNL     1      39.468   9.320  16.498  0.00  0.00    +0.000 A 
ATOM     14  C   UNL     1      39.705  10.111  17.613  0.00  0.00    +0.000 A 
ATOM     15  C   UNL     1      40.975  10.544  17.935  0.00  0.00    +0.000 A 
ENDBRANCH   8  13
ENDBRANCH   1   8
BRANCH   2  16
ATOM     16  N   UNL     1      38.461   6.522  18.211  0.00  0.00    +0.000 NA
BRANCH  16  17
ATOM     17  C   UNL     1      39.819   6.677  18.573  0.00  0.00    +0.000 A 
ATOM     18  C   UNL     1      40.868   6.219  17.805  0.00  0.00    +0.000 A 
ATOM     19  C   UNL     1      42.184   6.388  18.188  0.00  0.00    +0.000 A 
ATOM     20  C   UNL     1      42.480   7.039  19.384  0.00  0.00    +0.000 A 
ATOM     21  C   UNL     1      43.901   7.234  19.821  0.00  0.00    +0.000 C 
ATOM     22  C   UNL     1      41.412   7.487  20.134  0.00  0.00    +0.000 A 
ATOM     23  C   UNL     1      40.103   7.323  19.760  0.00  0.00    +0.000 A 
ATOM     24  C   UNL     1      39.039   7.850  20.653  0.00  0.00    +0.000 C 
ENDBRANCH  16  17
ENDBRANCH   2  16
BRANCH   5  25
ATOM     25  C   UNL     1      37.259   3.674  14.268  0.00  0.00    +0.000 C 
BRANCH  25  26
ATOM     26  C   UNL     1      35.796   3.286  14.257  0.00  0.00    +0.000 C 
BRANCH  26  27
ATOM     27  C   UNL     1      35.655   2.041  15.080  0.00  0.00    +0.000 A 
ATOM     28  C   UNL     1      34.964   2.059  16.285  0.00  0.00    +0.000 A 
ATOM     29  C   UNL     1      34.854   0.895  17.016  0.00  0.00    +0.000 A 
ATOM     30  C   UNL     1      35.431  -0.270  16.543  0.00  0.00    +0.000 A 
ATOM     31  C   UNL     1      36.116  -0.291  15.350  0.00  0.00    +0.000 A 
ATOM     32  C   UNL     1      36.218   0.871  14.635  0.00  0.00    +0.000 A 
ENDBRANCH  26  27
ENDBRANCH  25  26
ENDBRANCH   5  25
TORSDOF 7
ENDMDL
