MODEL 1
REMARK VINA RESULT:      -7.9      0.000      0.000
REMARK  Name = 
REMARK  9 active torsions:
REMARK  status: ('A' for Active; 'I' for Inactive)
REMARK    1  A    between atoms: C_2  and  C_3
REMARK    2  A    between atoms: C_3  and  C_4
REMARK    3  A    between atoms: C_4  and  C_5
REMARK    4  A    between atoms: C_5  and  O_6
REMARK    5  A    between atoms: O_6  and  C_7
REMARK    6  A    between atoms: C_7  and  C_9
REMARK    7  A    between atoms: N_12  and  C_13
REMARK    8  A    between atoms: C_13  and  C_14
REMARK    9  A    between atoms: C_19  and  O_20
REMARK                            x       y       z     vdW  Elec       q    Type
REMARK                         _______ _______ _______ _____ _____    ______ ____
ROOT
ATOM      1  C   UNL     1      36.189  -0.263  16.548  0.00  0.00    +0.000 A 
ATOM      2  C   UNL     1      35.804   1.062  16.351  0.00  0.00    +0.000 A 
ATOM      3  N   UNL     1      34.547   1.551  16.812  0.00  0.00    +0.000 NA
ATOM      4  N   UNL     1      36.757   1.704  15.683  0.00  0.00    +0.000 N 
ATOM      5  C   UNL     1      37.755   0.785  15.451  0.00  0.00    +0.000 A 
ATOM      6  N   UNL     1      38.923   0.939  14.816  0.00  0.00    +0.000 NA
ATOM      7  C   UNL     1      39.743  -0.146  14.721  0.00  0.00    +0.000 A 
ATOM      8  C   UNL     1      40.966  -0.050  14.074  0.00  0.00    +0.000 A 
ATOM      9  C   UNL     1      41.807  -1.134  13.966  0.00  0.00    +0.000 A 
ATOM     10  C   UNL     1      41.478  -2.363  14.493  0.00  0.00    +0.000 A 
ATOM     11  C   UNL     1      40.266  -2.475  15.140  0.00  0.00    +0.000 A 
ATOM     12  C   UNL     1      39.414  -1.375  15.249  0.00  0.00    +0.000 A 
ATOM     13  N   UNL     1      38.219  -1.502  15.889  0.00  0.00    +0.000 NA
ATOM     14  C   UNL     1      37.409  -0.430  15.982  0.00  0.00    +0.000 A 
ENDROOT
BRANCH   1  15
ATOM     15  C   UNL     1      35.429  -1.295  17.240  0.00  0.00    +0.000 C 
ATOM     16  O   UNL     1      35.907  -1.808  18.281  0.00  0.00    +0.000 OA
BRANCH  15  17
ATOM     17  O   UNL     1      34.198  -1.741  16.800  0.00  0.00    +0.000 OA
BRANCH  17  18
ATOM     18  C   UNL     1      33.086  -1.627  17.660  0.00  0.00    +0.000 C 
BRANCH  18  19
ATOM     19  C   UNL     1      32.070  -2.666  17.208  0.00  0.00    +0.000 C 
BRANCH  19  20
ATOM     20  C   UNL     1      30.729  -2.231  17.811  0.00  0.00    +0.000 C 
BRANCH  20  22
ATOM     21  C   UNL     1      28.948  -2.957  19.361  0.00  0.00    +0.000 C 
ATOM     22  C   UNL     1      30.337  -3.311  18.812  0.00  0.00    +0.000 C 
ENDBRANCH  20  22
ENDBRANCH  19  20
ENDBRANCH  18  19
ENDBRANCH  17  18
ENDBRANCH  15  17
ENDBRANCH   1  15
BRANCH   4  23
ATOM     23  C   UNL     1      36.815   3.079  15.276  0.00  0.00    +0.000 C 
BRANCH  23  24
ATOM     24  C   UNL     1      37.800   3.908  15.977  0.00  0.00    +0.000 A 
ATOM     25  C   UNL     1      37.736   4.035  17.362  0.00  0.00    +0.000 A 
ATOM     26  C   UNL     1      38.619   4.820  18.068  0.00  0.00    +0.000 A 
ATOM     27  C   UNL     1      39.594   5.497  17.368  0.00  0.00    +0.000 A 
ATOM     28  C   UNL     1      39.664   5.376  16.007  0.00  0.00    +0.000 A 
ATOM     29  C   UNL     1      38.768   4.582  15.311  0.00  0.00    +0.000 A 
BRANCH  29  30
ATOM     30  O   UNL     1      38.949   4.544  13.941  0.00  0.00    +0.000 OA
ATOM     31  C   UNL     1      39.126   5.682  13.129  0.00  0.00    +0.000 C 
ENDBRANCH  29  30
ENDBRANCH  23  24
ENDBRANCH   4  23
TORSDOF 9
ENDMDL
MODEL 2
REMARK VINA RESULT:      -7.8      2.325      7.302
REMARK  Name = 
REMARK  9 active torsions:
REMARK  status: ('A' for Active; 'I' for Inactive)
REMARK    1  A    between atoms: C_2  and  C_3
REMARK    2  A    between atoms: C_3  and  C_4
REMARK    3  A    between atoms: C_4  and  C_5
REMARK    4  A    between atoms: C_5  and  O_6
REMARK    5  A    between atoms: O_6  and  C_7
REMARK    6  A    between atoms: C_7  and  C_9
REMARK    7  A    between atoms: N_12  and  C_13
REMARK    8  A    between atoms: C_13  and  C_14
REMARK    9  A    between atoms: C_19  and  O_20
REMARK                            x       y       z     vdW  Elec       q    Type
REMARK                         _______ _______ _______ _____ _____    ______ ____
ROOT
ATOM      1  C   UNL     1      36.500   0.873  15.898  0.00  0.00    +0.000 A 
ATOM      2  C   UNL     1      35.751  -0.079  16.586  0.00  0.00    +0.000 A 
ATOM      3  N   UNL     1      34.459   0.222  17.109  0.00  0.00    +0.000 NA
ATOM      4  N   UNL     1      36.442  -1.212  16.666  0.00  0.00    +0.000 N 
ATOM      5  C   UNL     1      37.639  -0.982  16.027  0.00  0.00    +0.000 A 
ATOM      6  N   UNL     1      38.676  -1.806  15.839  0.00  0.00    +0.000 NA
ATOM      7  C   UNL     1      39.758  -1.323  15.165  0.00  0.00    +0.000 A 
ATOM      8  C   UNL     1      40.864  -2.130  14.940  0.00  0.00    +0.000 A 
ATOM      9  C   UNL     1      41.967  -1.661  14.263  0.00  0.00    +0.000 A 
ATOM     10  C   UNL     1      42.027  -0.374  13.777  0.00  0.00    +0.000 A 
ATOM     11  C   UNL     1      40.936   0.440  13.992  0.00  0.00    +0.000 A 
ATOM     12  C   UNL     1      39.818  -0.037  14.679  0.00  0.00    +0.000 A 
ATOM     13  N   UNL     1      38.749   0.780  14.886  0.00  0.00    +0.000 NA
ATOM     14  C   UNL     1      37.680   0.303  15.552  0.00  0.00    +0.000 A 
ENDROOT
BRANCH   1  15
ATOM     15  C   UNL     1      36.099   2.240  15.593  0.00  0.00    +0.000 C 
ATOM     16  O   UNL     1      35.293   2.442  14.652  0.00  0.00    +0.000 OA
BRANCH  15  17
ATOM     17  O   UNL     1      36.568   3.333  16.295  0.00  0.00    +0.000 OA
BRANCH  17  18
ATOM     18  C   UNL     1      37.313   4.314  15.610  0.00  0.00    +0.000 C 
BRANCH  18  19
ATOM     19  C   UNL     1      38.694   4.345  16.249  0.00  0.00    +0.000 C 
BRANCH  19  20
ATOM     20  C   UNL     1      38.463   4.675  17.729  0.00  0.00    +0.000 C 
BRANCH  20  22
ATOM     21  C   UNL     1      39.211   6.422  19.306  0.00  0.00    +0.000 C 
ATOM     22  C   UNL     1      39.672   5.481  18.184  0.00  0.00    +0.000 C 
ENDBRANCH  20  22
ENDBRANCH  19  20
ENDBRANCH  18  19
ENDBRANCH  17  18
ENDBRANCH  15  17
ENDBRANCH   1  15
BRANCH   4  23
ATOM     23  C   UNL     1      36.071  -2.465  17.258  0.00  0.00    +0.000 C 
BRANCH  23  24
ATOM     24  C   UNL     1      35.425  -3.425  16.359  0.00  0.00    +0.000 A 
ATOM     25  C   UNL     1      34.096  -3.241  15.989  0.00  0.00    +0.000 A 
ATOM     26  C   UNL     1      33.434  -4.124  15.168  0.00  0.00    +0.000 A 
ATOM     27  C   UNL     1      34.121  -5.224  14.703  0.00  0.00    +0.000 A 
ATOM     28  C   UNL     1      35.428  -5.412  15.062  0.00  0.00    +0.000 A 
ATOM     29  C   UNL     1      36.080  -4.514  15.888  0.00  0.00    +0.000 A 
BRANCH  29  30
ATOM     30  O   UNL     1      37.399  -4.818  16.172  0.00  0.00    +0.000 OA
ATOM     31  C   UNL     1      37.811  -5.706  17.186  0.00  0.00    +0.000 C 
ENDBRANCH  29  30
ENDBRANCH  23  24
ENDBRANCH   4  23
TORSDOF 9
ENDMDL
MODEL 3
REMARK VINA RESULT:      -7.6      2.515      7.419
REMARK  Name = 
REMARK  9 active torsions:
REMARK  status: ('A' for Active; 'I' for Inactive)
REMARK    1  A    between atoms: C_2  and  C_3
REMARK    2  A    between atoms: C_3  and  C_4
REMARK    3  A    between atoms: C_4  and  C_5
REMARK    4  A    between atoms: C_5  and  O_6
REMARK    5  A    between atoms: O_6  and  C_7
REMARK    6  A    between atoms: C_7  and  C_9
REMARK    7  A    between atoms: N_12  and  C_13
REMARK    8  A    between atoms: C_13  and  C_14
REMARK    9  A    between atoms: C_19  and  O_20
REMARK                            x       y       z     vdW  Elec       q    Type
REMARK                         _______ _______ _______ _____ _____    ______ ____
ROOT
ATOM      1  C   UNL     1      37.865   2.384  15.292  0.00  0.00    +0.000 A 
ATOM      2  C   UNL     1      38.849   2.104  14.346  0.00  0.00    +0.000 A 
ATOM      3  N   UNL     1      39.744   3.111  13.880  0.00  0.00    +0.000 NA
ATOM      4  N   UNL     1      38.766   0.827  13.986  0.00  0.00    +0.000 N 
ATOM      5  C   UNL     1      37.723   0.289  14.704  0.00  0.00    +0.000 A 
ATOM      6  N   UNL     1      37.239  -0.958  14.697  0.00  0.00    +0.000 NA
ATOM      7  C   UNL     1      36.183  -1.235  15.514  0.00  0.00    +0.000 A 
ATOM      8  C   UNL     1      35.637  -2.510  15.550  0.00  0.00    +0.000 A 
ATOM      9  C   UNL     1      34.570  -2.809  16.366  0.00  0.00    +0.000 A 
ATOM     10  C   UNL     1      33.994  -1.863  17.185  0.00  0.00    +0.000 A 
ATOM     11  C   UNL     1      34.526  -0.592  17.161  0.00  0.00    +0.000 A 
ATOM     12  C   UNL     1      35.608  -0.289  16.333  0.00  0.00    +0.000 A 
ATOM     13  N   UNL     1      36.121   0.972  16.319  0.00  0.00    +0.000 NA
ATOM     14  C   UNL     1      37.164   1.245  15.512  0.00  0.00    +0.000 A 
ENDROOT
BRANCH   1  15
ATOM     15  C   UNL     1      37.623   3.665  15.943  0.00  0.00    +0.000 C 
ATOM     16  O   UNL     1      36.873   4.500  15.381  0.00  0.00    +0.000 OA
BRANCH  15  17
ATOM     17  O   UNL     1      38.184   4.007  17.157  0.00  0.00    +0.000 OA
BRANCH  17  18
ATOM     18  C   UNL     1      39.044   5.123  17.220  0.00  0.00    +0.000 C 
BRANCH  18  19
ATOM     19  C   UNL     1      39.089   5.563  18.676  0.00  0.00    +0.000 C 
BRANCH  19  20
ATOM     20  C   UNL     1      40.495   6.136  18.897  0.00  0.00    +0.000 C 
BRANCH  20  22
ATOM     21  C   UNL     1      39.168   7.613  20.364  0.00  0.00    +0.000 C 
ATOM     22  C   UNL     1      40.474   6.815  20.260  0.00  0.00    +0.000 C 
ENDBRANCH  20  22
ENDBRANCH  19  20
ENDBRANCH  18  19
ENDBRANCH  17  18
ENDBRANCH  15  17
ENDBRANCH   1  15
BRANCH   4  23
ATOM     23  C   UNL     1      39.578   0.087  13.064  0.00  0.00    +0.000 C 
BRANCH  23  24
ATOM     24  C   UNL     1      40.922  -0.257  13.537  0.00  0.00    +0.000 A 
ATOM     25  C   UNL     1      41.969   0.643  13.363  0.00  0.00    +0.000 A 
ATOM     26  C   UNL     1      43.254   0.361  13.765  0.00  0.00    +0.000 A 
ATOM     27  C   UNL     1      43.499  -0.858  14.359  0.00  0.00    +0.000 A 
ATOM     28  C   UNL     1      42.475  -1.749  14.534  0.00  0.00    +0.000 A 
ATOM     29  C   UNL     1      41.188  -1.449  14.124  0.00  0.00    +0.000 A 
BRANCH  29  30
ATOM     30  O   UNL     1      40.246  -2.433  14.361  0.00  0.00    +0.000 OA
ATOM     31  C   UNL     1      39.891  -2.904  15.641  0.00  0.00    +0.000 C 
ENDBRANCH  29  30
ENDBRANCH  23  24
ENDBRANCH   4  23
TORSDOF 9
ENDMDL
MODEL 4
REMARK VINA RESULT:      -7.5      2.393      3.000
REMARK  Name = 
REMARK  9 active torsions:
REMARK  status: ('A' for Active; 'I' for Inactive)
REMARK    1  A    between atoms: C_2  and  C_3
REMARK    2  A    between atoms: C_3  and  C_4
REMARK    3  A    between atoms: C_4  and  C_5
REMARK    4  A    between atoms: C_5  and  O_6
REMARK    5  A    between atoms: O_6  and  C_7
REMARK    6  A    between atoms: C_7  and  C_9
REMARK    7  A    between atoms: N_12  and  C_13
REMARK    8  A    between atoms: C_13  and  C_14
REMARK    9  A    between atoms: C_19  and  O_20
REMARK                            x       y       z     vdW  Elec       q    Type
REMARK                         _______ _______ _______ _____ _____    ______ ____
ROOT
ATOM      1  C   UNL     1      36.594   0.486  16.116  0.00  0.00    +0.000 A 
ATOM      2  C   UNL     1      36.354   1.854  16.006  0.00  0.00    +0.000 A 
ATOM      3  N   UNL     1      35.122   2.432  16.429  0.00  0.00    +0.000 NA
ATOM      4  N   UNL     1      37.407   2.445  15.450  0.00  0.00    +0.000 N 
ATOM      5  C   UNL     1      38.325   1.449  15.203  0.00  0.00    +0.000 A 
ATOM      6  N   UNL     1      39.542   1.531  14.654  0.00  0.00    +0.000 NA
ATOM      7  C   UNL     1      40.257   0.378  14.519  0.00  0.00    +0.000 A 
ATOM      8  C   UNL     1      41.525   0.398  13.955  0.00  0.00    +0.000 A 
ATOM      9  C   UNL     1      42.262  -0.754  13.809  0.00  0.00    +0.000 A 
ATOM     10  C   UNL     1      41.782  -1.980  14.213  0.00  0.00    +0.000 A 
ATOM     11  C   UNL     1      40.524  -2.017  14.775  0.00  0.00    +0.000 A 
ATOM     12  C   UNL     1      39.776  -0.847  14.923  0.00  0.00    +0.000 A 
ATOM     13  N   UNL     1      38.535  -0.900  15.479  0.00  0.00    +0.000 NA
ATOM     14  C   UNL     1      37.828   0.239  15.612  0.00  0.00    +0.000 A 
ENDROOT
BRANCH   1  15
ATOM     15  C   UNL     1      35.693  -0.513  16.674  0.00  0.00    +0.000 C 
ATOM     16  O   UNL     1      35.215  -1.392  15.916  0.00  0.00    +0.000 OA
BRANCH  15  17
ATOM     17  O   UNL     1      35.338  -0.540  18.008  0.00  0.00    +0.000 OA
BRANCH  17  18
ATOM     18  C   UNL     1      36.346  -0.400  18.984  0.00  0.00    +0.000 C 
BRANCH  18  19
ATOM     19  C   UNL     1      36.836  -1.802  19.315  0.00  0.00    +0.000 C 
BRANCH  19  20
ATOM     20  C   UNL     1      38.289  -1.865  18.824  0.00  0.00    +0.000 C 
BRANCH  20  22
ATOM     21  C   UNL     1      37.623  -3.703  17.316  0.00  0.00    +0.000 C 
ATOM     22  C   UNL     1      38.560  -3.321  18.469  0.00  0.00    +0.000 C 
ENDBRANCH  20  22
ENDBRANCH  19  20
ENDBRANCH  18  19
ENDBRANCH  17  18
ENDBRANCH  15  17
ENDBRANCH   1  15
BRANCH   4  23
ATOM     23  C   UNL     1      37.625   3.834  15.161  0.00  0.00    +0.000 C 
BRANCH  23  24
ATOM     24  C   UNL     1      38.504   4.545  16.093  0.00  0.00    +0.000 A 
ATOM     25  C   UNL     1      38.234   4.517  17.458  0.00  0.00    +0.000 A 
ATOM     26  C   UNL     1      39.012   5.187  18.374  0.00  0.00    +0.000 A 
ATOM     27  C   UNL     1      40.091   5.908  17.910  0.00  0.00    +0.000 A 
ATOM     28  C   UNL     1      40.364   5.940  16.570  0.00  0.00    +0.000 A 
ATOM     29  C   UNL     1      39.572   5.260  15.662  0.00  0.00    +0.000 A 
BRANCH  29  30
ATOM     30  O   UNL     1      39.957   5.372  14.338  0.00  0.00    +0.000 OA
ATOM     31  C   UNL     1      40.031   6.588  13.631  0.00  0.00    +0.000 C 
ENDBRANCH  29  30
ENDBRANCH  23  24
ENDBRANCH   4  23
TORSDOF 9
ENDMDL
MODEL 5
REMARK VINA RESULT:      -7.4      2.069      2.783
REMARK  Name = 
REMARK  9 active torsions:
REMARK  status: ('A' for Active; 'I' for Inactive)
REMARK    1  A    between atoms: C_2  and  C_3
REMARK    2  A    between atoms: C_3  and  C_4
REMARK    3  A    between atoms: C_4  and  C_5
REMARK    4  A    between atoms: C_5  and  O_6
REMARK    5  A    between atoms: O_6  and  C_7
REMARK    6  A    between atoms: C_7  and  C_9
REMARK    7  A    between atoms: N_12  and  C_13
REMARK    8  A    between atoms: C_13  and  C_14
REMARK    9  A    between atoms: C_19  and  O_20
REMARK                            x       y       z     vdW  Elec       q    Type
REMARK                         _______ _______ _______ _____ _____    ______ ____
ROOT
ATOM      1  C   UNL     1      36.074   0.148  16.403  0.00  0.00    +0.000 A 
ATOM      2  C   UNL     1      35.734   1.477  16.162  0.00  0.00    +0.000 A 
ATOM      3  N   UNL     1      34.475   2.011  16.566  0.00  0.00    +0.000 NA
ATOM      4  N   UNL     1      36.728   2.078  15.514  0.00  0.00    +0.000 N 
ATOM      5  C   UNL     1      37.707   1.126  15.339  0.00  0.00    +0.000 A 
ATOM      6  N   UNL     1      38.900   1.233  14.743  0.00  0.00    +0.000 NA
ATOM      7  C   UNL     1      39.692   0.124  14.703  0.00  0.00    +0.000 A 
ATOM      8  C   UNL     1      40.939   0.171  14.098  0.00  0.00    +0.000 A 
ATOM      9  C   UNL     1      41.752  -0.937  14.045  0.00  0.00    +0.000 A 
ATOM     10  C   UNL     1      41.372  -2.144  14.588  0.00  0.00    +0.000 A 
ATOM     11  C   UNL     1      40.135  -2.208  15.193  0.00  0.00    +0.000 A 
ATOM     12  C   UNL     1      39.310  -1.082  15.246  0.00  0.00    +0.000 A 
ATOM     13  N   UNL     1      38.091  -1.161  15.846  0.00  0.00    +0.000 NA
ATOM     14  C   UNL     1      37.308  -0.066  15.886  0.00  0.00    +0.000 A 
ENDROOT
BRANCH   1  15
ATOM     15  C   UNL     1      35.262  -0.847  17.091  0.00  0.00    +0.000 C 
ATOM     16  O   UNL     1      35.244  -0.855  18.346  0.00  0.00    +0.000 OA
BRANCH  15  17
ATOM     17  O   UNL     1      34.504  -1.788  16.422  0.00  0.00    +0.000 OA
BRANCH  17  18
ATOM     18  C   UNL     1      34.961  -3.122  16.375  0.00  0.00    +0.000 C 
BRANCH  18  19
ATOM     19  C   UNL     1      35.381  -3.393  14.938  0.00  0.00    +0.000 C 
BRANCH  19  20
ATOM     20  C   UNL     1      36.661  -4.235  15.027  0.00  0.00    +0.000 C 
BRANCH  20  22
ATOM     21  C   UNL     1      38.116  -4.806  16.939  0.00  0.00    +0.000 C 
ATOM     22  C   UNL     1      36.673  -4.854  16.419  0.00  0.00    +0.000 C 
ENDBRANCH  20  22
ENDBRANCH  19  20
ENDBRANCH  18  19
ENDBRANCH  17  18
ENDBRANCH  15  17
ENDBRANCH   1  15
BRANCH   4  23
ATOM     23  C   UNL     1      36.838   3.440  15.078  0.00  0.00    +0.000 C 
BRANCH  23  24
ATOM     24  C   UNL     1      37.523   4.348  16.001  0.00  0.00    +0.000 A 
ATOM     25  C   UNL     1      37.929   3.889  17.251  0.00  0.00    +0.000 A 
ATOM     26  C   UNL     1      38.553   4.705  18.166  0.00  0.00    +0.000 A 
ATOM     27  C   UNL     1      38.778   6.020  17.821  0.00  0.00    +0.000 A 
ATOM     28  C   UNL     1      38.383   6.479  16.594  0.00  0.00    +0.000 A 
ATOM     29  C   UNL     1      37.756   5.645  15.685  0.00  0.00    +0.000 A 
BRANCH  29  30
ATOM     30  O   UNL     1      37.410   6.232  14.482  0.00  0.00    +0.000 OA
ATOM     31  C   UNL     1      36.351   7.148  14.317  0.00  0.00    +0.000 C 
ENDBRANCH  29  30
ENDBRANCH  23  24
ENDBRANCH   4  23
TORSDOF 9
ENDMDL
MODEL 6
REMARK VINA RESULT:      -7.3      2.648      6.868
REMARK  Name = 
REMARK  9 active torsions:
REMARK  status: ('A' for Active; 'I' for Inactive)
REMARK    1  A    between atoms: C_2  and  C_3
REMARK    2  A    between atoms: C_3  and  C_4
REMARK    3  A    between atoms: C_4  and  C_5
REMARK    4  A    between atoms: C_5  and  O_6
REMARK    5  A    between atoms: O_6  and  C_7
REMARK    6  A    between atoms: C_7  and  C_9
REMARK    7  A    between atoms: N_12  and  C_13
REMARK    8  A    between atoms: C_13  and  C_14
REMARK    9  A    between atoms: C_19  and  O_20
REMARK                            x       y       z     vdW  Elec       q    Type
REMARK                         _______ _______ _______ _____ _____    ______ ____
ROOT
ATOM      1  C   UNL     1      37.510   1.705  15.007  0.00  0.00    +0.000 A 
ATOM      2  C   UNL     1      36.594   0.801  15.540  0.00  0.00    +0.000 A 
ATOM      3  N   UNL     1      35.292   1.211  15.950  0.00  0.00    +0.000 NA
ATOM      4  N   UNL     1      37.149  -0.405  15.604  0.00  0.00    +0.000 N 
ATOM      5  C   UNL     1      38.427  -0.271  15.110  0.00  0.00    +0.000 A 
ATOM      6  N   UNL     1      39.385  -1.193  14.967  0.00  0.00    +0.000 NA
ATOM      7  C   UNL     1      40.580  -0.793  14.446  0.00  0.00    +0.000 A 
ATOM      8  C   UNL     1      41.613  -1.702  14.274  0.00  0.00    +0.000 A 
ATOM      9  C   UNL     1      42.827  -1.318  13.752  0.00  0.00    +0.000 A 
ATOM     10  C   UNL     1      43.076  -0.017  13.374  0.00  0.00    +0.000 A 
ATOM     11  C   UNL     1      42.059   0.899  13.538  0.00  0.00    +0.000 A 
ATOM     12  C   UNL     1      40.828   0.508  14.068  0.00  0.00    +0.000 A 
ATOM     13  N   UNL     1      39.834   1.425  14.226  0.00  0.00    +0.000 NA
ATOM     14  C   UNL     1      38.654   1.029  14.741  0.00  0.00    +0.000 A 
ENDROOT
BRANCH   1  15
ATOM     15  C   UNL     1      37.291   3.126  14.768  0.00  0.00    +0.000 C 
ATOM     16  O   UNL     1      37.223   3.539  13.585  0.00  0.00    +0.000 OA
BRANCH  15  17
ATOM     17  O   UNL     1      37.155   4.045  15.789  0.00  0.00    +0.000 OA
BRANCH  17  18
ATOM     18  C   UNL     1      38.280   4.802  16.179  0.00  0.00    +0.000 C 
BRANCH  18  19
ATOM     19  C   UNL     1      38.465   4.578  17.672  0.00  0.00    +0.000 C 
BRANCH  19  20
ATOM     20  C   UNL     1      38.755   5.960  18.270  0.00  0.00    +0.000 C 
BRANCH  20  22
ATOM     21  C   UNL     1      40.467   6.418  19.991  0.00  0.00    +0.000 C 
ATOM     22  C   UNL     1      40.256   6.013  18.526  0.00  0.00    +0.000 C 
ENDBRANCH  20  22
ENDBRANCH  19  20
ENDBRANCH  18  19
ENDBRANCH  17  18
ENDBRANCH  15  17
ENDBRANCH   1  15
BRANCH   4  23
ATOM     23  C   UNL     1      36.585  -1.644  16.058  0.00  0.00    +0.000 C 
BRANCH  23  24
ATOM     24  C   UNL     1      37.318  -2.318  17.133  0.00  0.00    +0.000 A 
ATOM     25  C   UNL     1      37.871  -3.576  16.911  0.00  0.00    +0.000 A 
ATOM     26  C   UNL     1      38.547  -4.265  17.892  0.00  0.00    +0.000 A 
ATOM     27  C   UNL     1      38.673  -3.677  19.132  0.00  0.00    +0.000 A 
ATOM     28  C   UNL     1      38.133  -2.441  19.358  0.00  0.00    +0.000 A 
ATOM     29  C   UNL     1      37.456  -1.761  18.361  0.00  0.00    +0.000 A 
BRANCH  29  30
ATOM     30  O   UNL     1      36.962  -0.521  18.718  0.00  0.00    +0.000 OA
ATOM     31  C   UNL     1      35.673  -0.298  19.244  0.00  0.00    +0.000 C 
ENDBRANCH  29  30
ENDBRANCH  23  24
ENDBRANCH   4  23
TORSDOF 9
ENDMDL
MODEL 7
REMARK VINA RESULT:      -7.2      2.899      7.168
REMARK  Name = 
REMARK  9 active torsions:
REMARK  status: ('A' for Active; 'I' for Inactive)
REMARK    1  A    between atoms: C_2  and  C_3
REMARK    2  A    between atoms: C_3  and  C_4
REMARK    3  A    between atoms: C_4  and  C_5
REMARK    4  A    between atoms: C_5  and  O_6
REMARK    5  A    between atoms: O_6  and  C_7
REMARK    6  A    between atoms: C_7  and  C_9
REMARK    7  A    between atoms: N_12  and  C_13
REMARK    8  A    between atoms: C_13  and  C_14
REMARK    9  A    between atoms: C_19  and  O_20
REMARK                            x       y       z     vdW  Elec       q    Type
REMARK                         _______ _______ _______ _____ _____    ______ ____
ROOT
ATOM      1  C   UNL     1      36.549   0.687  16.027  0.00  0.00    +0.000 A 
ATOM      2  C   UNL     1      35.770  -0.261  16.687  0.00  0.00    +0.000 A 
ATOM      3  N   UNL     1      34.493   0.068  17.228  0.00  0.00    +0.000 NA
ATOM      4  N   UNL     1      36.421  -1.419  16.724  0.00  0.00    +0.000 N 
ATOM      5  C   UNL     1      37.622  -1.210  16.086  0.00  0.00    +0.000 A 
ATOM      6  N   UNL     1      38.628  -2.064  15.863  0.00  0.00    +0.000 NA
ATOM      7  C   UNL     1      39.723  -1.597  15.199  0.00  0.00    +0.000 A 
ATOM      8  C   UNL     1      40.798  -2.434  14.940  0.00  0.00    +0.000 A 
ATOM      9  C   UNL     1      41.913  -1.982  14.272  0.00  0.00    +0.000 A 
ATOM     10  C   UNL     1      42.018  -0.682  13.830  0.00  0.00    +0.000 A 
ATOM     11  C   UNL     1      40.957   0.162  14.079  0.00  0.00    +0.000 A 
ATOM     12  C   UNL     1      39.826  -0.297  14.756  0.00  0.00    +0.000 A 
ATOM     13  N   UNL     1      38.788   0.549  14.997  0.00  0.00    +0.000 NA
ATOM     14  C   UNL     1      37.706   0.088  15.654  0.00  0.00    +0.000 A 
ENDROOT
BRANCH   1  15
ATOM     15  C   UNL     1      36.196   2.078  15.771  0.00  0.00    +0.000 C 
ATOM     16  O   UNL     1      36.324   2.917  16.694  0.00  0.00    +0.000 OA
BRANCH  15  17
ATOM     17  O   UNL     1      35.723   2.518  14.550  0.00  0.00    +0.000 OA
BRANCH  17  18
ATOM     18  C   UNL     1      35.371   3.876  14.406  0.00  0.00    +0.000 C 
BRANCH  18  19
ATOM     19  C   UNL     1      36.211   4.430  13.265  0.00  0.00    +0.000 C 
BRANCH  19  20
ATOM     20  C   UNL     1      35.565   5.768  12.880  0.00  0.00    +0.000 C 
BRANCH  20  22
ATOM     21  C   UNL     1      33.532   7.056  13.434  0.00  0.00    +0.000 C 
ATOM     22  C   UNL     1      34.607   6.124  14.010  0.00  0.00    +0.000 C 
ENDBRANCH  20  22
ENDBRANCH  19  20
ENDBRANCH  18  19
ENDBRANCH  17  18
ENDBRANCH  15  17
ENDBRANCH   1  15
BRANCH   4  23
ATOM     23  C   UNL     1      36.008  -2.678  17.276  0.00  0.00    +0.000 C 
BRANCH  23  24
ATOM     24  C   UNL     1      35.380  -3.608  16.334  0.00  0.00    +0.000 A 
ATOM     25  C   UNL     1      34.103  -3.344  15.847  0.00  0.00    +0.000 A 
ATOM     26  C   UNL     1      33.457  -4.196  14.981  0.00  0.00    +0.000 A 
ATOM     27  C   UNL     1      34.108  -5.346  14.589  0.00  0.00    +0.000 A 
ATOM     28  C   UNL     1      35.364  -5.612  15.062  0.00  0.00    +0.000 A 
ATOM     29  C   UNL     1      36.000  -4.745  15.933  0.00  0.00    +0.000 A 
BRANCH  29  30
ATOM     30  O   UNL     1      37.267  -5.128  16.333  0.00  0.00    +0.000 OA
ATOM     31  C   UNL     1      37.535  -6.198  17.211  0.00  0.00    +0.000 C 
ENDBRANCH  29  30
ENDBRANCH  23  24
ENDBRANCH   4  23
TORSDOF 9
ENDMDL
MODEL 8
REMARK VINA RESULT:      -7.2      3.332      6.496
REMARK  Name = 
REMARK  9 active torsions:
REMARK  status: ('A' for Active; 'I' for Inactive)
REMARK    1  A    between atoms: C_2  and  C_3
REMARK    2  A    between atoms: C_3  and  C_4
REMARK    3  A    between atoms: C_4  and  C_5
REMARK    4  A    between atoms: C_5  and  O_6
REMARK    5  A    between atoms: O_6  and  C_7
REMARK    6  A    between atoms: C_7  and  C_9
REMARK    7  A    between atoms: N_12  and  C_13
REMARK    8  A    between atoms: C_13  and  C_14
REMARK    9  A    between atoms: C_19  and  O_20
REMARK                            x       y       z     vdW  Elec       q    Type
REMARK                         _______ _______ _______ _____ _____    ______ ____
ROOT
ATOM      1  C   UNL     1      36.370   0.722  15.870  0.00  0.00    +0.000 A 
ATOM      2  C   UNL     1      36.527   0.467  14.509  0.00  0.00    +0.000 A 
ATOM      3  N   UNL     1      36.048   1.373  13.519  0.00  0.00    +0.000 NA
ATOM      4  N   UNL     1      37.138  -0.703  14.347  0.00  0.00    +0.000 N 
ATOM      5  C   UNL     1      37.371  -1.198  15.610  0.00  0.00    +0.000 A 
ATOM      6  N   UNL     1      37.956  -2.343  15.981  0.00  0.00    +0.000 NA
ATOM      7  C   UNL     1      38.062  -2.599  17.316  0.00  0.00    +0.000 A 
ATOM      8  C   UNL     1      38.658  -3.769  17.762  0.00  0.00    +0.000 A 
ATOM      9  C   UNL     1      38.774  -4.047  19.105  0.00  0.00    +0.000 A 
ATOM     10  C   UNL     1      38.307  -3.181  20.069  0.00  0.00    +0.000 A 
ATOM     11  C   UNL     1      37.712  -2.013  19.641  0.00  0.00    +0.000 A 
ATOM     12  C   UNL     1      37.595  -1.732  18.279  0.00  0.00    +0.000 A 
ATOM     13  N   UNL     1      37.004  -0.576  17.871  0.00  0.00    +0.000 NA
ATOM     14  C   UNL     1      36.899  -0.323  16.553  0.00  0.00    +0.000 A 
ENDROOT
BRANCH   1  15
ATOM     15  C   UNL     1      35.754   1.898  16.469  0.00  0.00    +0.000 C 
ATOM     16  O   UNL     1      34.507   1.924  16.614  0.00  0.00    +0.000 OA
BRANCH  15  17
ATOM     17  O   UNL     1      36.481   2.995  16.887  0.00  0.00    +0.000 OA
BRANCH  17  18
ATOM     18  C   UNL     1      36.959   3.905  15.921  0.00  0.00    +0.000 C 
BRANCH  18  19
ATOM     19  C   UNL     1      38.477   3.814  15.942  0.00  0.00    +0.000 C 
BRANCH  19  20
ATOM     20  C   UNL     1      38.949   4.370  14.593  0.00  0.00    +0.000 C 
BRANCH  20  22
ATOM     21  C   UNL     1      39.804   2.058  14.444  0.00  0.00    +0.000 C 
ATOM     22  C   UNL     1      39.097   3.173  13.662  0.00  0.00    +0.000 C 
ENDBRANCH  20  22
ENDBRANCH  19  20
ENDBRANCH  18  19
ENDBRANCH  17  18
ENDBRANCH  15  17
ENDBRANCH   1  15
BRANCH   4  23
ATOM     23  C   UNL     1      37.530  -1.365  13.135  0.00  0.00    +0.000 C 
BRANCH  23  24
ATOM     24  C   UNL     1      38.701  -0.804  12.456  0.00  0.00    +0.000 A 
ATOM     25  C   UNL     1      38.532   0.162  11.469  0.00  0.00    +0.000 A 
ATOM     26  C   UNL     1      39.595   0.704  10.783  0.00  0.00    +0.000 A 
ATOM     27  C   UNL     1      40.864   0.265  11.093  0.00  0.00    +0.000 A 
ATOM     28  C   UNL     1      41.038  -0.683  12.063  0.00  0.00    +0.000 A 
ATOM     29  C   UNL     1      39.959  -1.218  12.745  0.00  0.00    +0.000 A 
BRANCH  29  30
ATOM     30  O   UNL     1      40.271  -2.166  13.702  0.00  0.00    +0.000 OA
ATOM     31  C   UNL     1      41.333  -2.049  14.622  0.00  0.00    +0.000 C 
ENDBRANCH  29  30
ENDBRANCH  23  24
ENDBRANCH   4  23
TORSDOF 9
ENDMDL
MODEL 9
REMARK VINA RESULT:      -7.2      3.098      6.002
REMARK  Name = 
REMARK  9 active torsions:
REMARK  status: ('A' for Active; 'I' for Inactive)
REMARK    1  A    between atoms: C_2  and  C_3
REMARK    2  A    between atoms: C_3  and  C_4
REMARK    3  A    between atoms: C_4  and  C_5
REMARK    4  A    between atoms: C_5  and  O_6
REMARK    5  A    between atoms: O_6  and  C_7
REMARK    6  A    between atoms: C_7  and  C_9
REMARK    7  A    between atoms: N_12  and  C_13
REMARK    8  A    between atoms: C_13  and  C_14
REMARK    9  A    between atoms: C_19  and  O_20
REMARK                            x       y       z     vdW  Elec       q    Type
REMARK                         _______ _______ _______ _____ _____    ______ ____
ROOT
ATOM      1  C   UNL     1      38.017  -2.082  16.512  0.00  0.00    +0.000 A 
ATOM      2  C   UNL     1      39.255  -2.211  15.886  0.00  0.00    +0.000 A 
ATOM      3  N   UNL     1      40.066  -3.369  16.065  0.00  0.00    +0.000 NA
ATOM      4  N   UNL     1      39.507  -1.117  15.174  0.00  0.00    +0.000 N 
ATOM      5  C   UNL     1      38.425  -0.284  15.348  0.00  0.00    +0.000 A 
ATOM      6  N   UNL     1      38.199   0.934  14.842  0.00  0.00    +0.000 NA
ATOM      7  C   UNL     1      37.031   1.554  15.176  0.00  0.00    +0.000 A 
ATOM      8  C   UNL     1      36.740   2.818  14.684  0.00  0.00    +0.000 A 
ATOM      9  C   UNL     1      35.568   3.461  15.010  0.00  0.00    +0.000 A 
ATOM     10  C   UNL     1      34.629   2.885  15.836  0.00  0.00    +0.000 A 
ATOM     11  C   UNL     1      34.903   1.629  16.333  0.00  0.00    +0.000 A 
ATOM     12  C   UNL     1      36.092   0.977  16.002  0.00  0.00    +0.000 A 
ATOM     13  N   UNL     1      36.350  -0.263  16.501  0.00  0.00    +0.000 NA
ATOM     14  C   UNL     1      37.503  -0.875  16.172  0.00  0.00    +0.000 A 
ENDROOT
BRANCH   1  15
ATOM     15  C   UNL     1      37.374  -3.062  17.377  0.00  0.00    +0.000 C 
ATOM     16  O   UNL     1      37.904  -3.341  18.480  0.00  0.00    +0.000 OA
BRANCH  15  17
ATOM     17  O   UNL     1      36.199  -3.704  17.038  0.00  0.00    +0.000 OA
BRANCH  17  18
ATOM     18  C   UNL     1      36.104  -4.329  15.777  0.00  0.00    +0.000 C 
BRANCH  18  19
ATOM     19  C   UNL     1      35.015  -3.599  15.004  0.00  0.00    +0.000 C 
BRANCH  19  20
ATOM     20  C   UNL     1      33.831  -4.571  14.930  0.00  0.00    +0.000 C 
BRANCH  20  22
ATOM     21  C   UNL     1      33.533  -6.976  15.406  0.00  0.00    +0.000 C 
ATOM     22  C   UNL     1      34.423  -5.953  14.686  0.00  0.00    +0.000 C 
ENDBRANCH  20  22
ENDBRANCH  19  20
ENDBRANCH  18  19
ENDBRANCH  17  18
ENDBRANCH  15  17
ENDBRANCH   1  15
BRANCH   4  23
ATOM     23  C   UNL     1      40.640  -0.807  14.350  0.00  0.00    +0.000 C 
BRANCH  23  24
ATOM     24  C   UNL     1      40.843  -1.687  13.195  0.00  0.00    +0.000 A 
ATOM     25  C   UNL     1      41.921  -2.568  13.178  0.00  0.00    +0.000 A 
ATOM     26  C   UNL     1      42.173  -3.398  12.110  0.00  0.00    +0.000 A 
ATOM     27  C   UNL     1      41.323  -3.344  11.027  0.00  0.00    +0.000 A 
ATOM     28  C   UNL     1      40.261  -2.482  11.037  0.00  0.00    +0.000 A 
ATOM     29  C   UNL     1      40.020  -1.654  12.119  0.00  0.00    +0.000 A 
BRANCH  29  30
ATOM     30  O   UNL     1      38.914  -0.832  12.004  0.00  0.00    +0.000 OA
ATOM     31  C   UNL     1      38.847   0.301  11.169  0.00  0.00    +0.000 C 
ENDBRANCH  29  30
ENDBRANCH  23  24
ENDBRANCH   4  23
TORSDOF 9
ENDMDL
MODEL 10
REMARK VINA RESULT:      -7.1      2.964      7.449
REMARK  Name = 
REMARK  9 active torsions:
REMARK  status: ('A' for Active; 'I' for Inactive)
REMARK    1  A    between atoms: C_2  and  C_3
REMARK    2  A    between atoms: C_3  and  C_4
REMARK    3  A    between atoms: C_4  and  C_5
REMARK    4  A    between atoms: C_5  and  O_6
REMARK    5  A    between atoms: O_6  and  C_7
REMARK    6  A    between atoms: C_7  and  C_9
REMARK    7  A    between atoms: N_12  and  C_13
REMARK    8  A    between atoms: C_13  and  C_14
REMARK    9  A    between atoms: C_19  and  O_20
REMARK                            x       y       z     vdW  Elec       q    Type
REMARK                         _______ _______ _______ _____ _____    ______ ____
ROOT
ATOM      1  C   UNL     1      38.242   2.614  13.040  0.00  0.00    +0.000 A 
ATOM      2  C   UNL     1      37.223   1.685  13.233  0.00  0.00    +0.000 A 
ATOM      3  N   UNL     1      36.748   0.865  12.169  0.00  0.00    +0.000 NA
ATOM      4  N   UNL     1      36.809   1.739  14.496  0.00  0.00    +0.000 N 
ATOM      5  C   UNL     1      37.567   2.710  15.111  0.00  0.00    +0.000 A 
ATOM      6  N   UNL     1      37.532   3.141  16.377  0.00  0.00    +0.000 NA
ATOM      7  C   UNL     1      38.402   4.128  16.736  0.00  0.00    +0.000 A 
ATOM      8  C   UNL     1      38.413   4.618  18.034  0.00  0.00    +0.000 A 
ATOM      9  C   UNL     1      39.281   5.614  18.416  0.00  0.00    +0.000 A 
ATOM     10  C   UNL     1      40.180   6.173  17.534  0.00  0.00    +0.000 A 
ATOM     11  C   UNL     1      40.181   5.697  16.240  0.00  0.00    +0.000 A 
ATOM     12  C   UNL     1      39.300   4.685  15.854  0.00  0.00    +0.000 A 
ATOM     13  N   UNL     1      39.312   4.227  14.572  0.00  0.00    +0.000 NA
ATOM     14  C   UNL     1      38.453   3.252  14.217  0.00  0.00    +0.000 A 
ENDROOT
BRANCH   1  15
ATOM     15  C   UNL     1      38.967   2.865  11.801  0.00  0.00    +0.000 C 
ATOM     16  O   UNL     1      38.696   3.895  11.136  0.00  0.00    +0.000 OA
BRANCH  15  17
ATOM     17  O   UNL     1      39.945   2.018  11.320  0.00  0.00    +0.000 OA
BRANCH  17  18
ATOM     18  C   UNL     1      41.075   1.756  12.122  0.00  0.00    +0.000 C 
BRANCH  18  19
ATOM     19  C   UNL     1      40.986   0.298  12.546  0.00  0.00    +0.000 C 
BRANCH  19  20
ATOM     20  C   UNL     1      41.156   0.293  14.071  0.00  0.00    +0.000 C 
BRANCH  20  22
ATOM     21  C   UNL     1      40.245  -1.746  15.124  0.00  0.00    +0.000 C 
ATOM     22  C   UNL     1      39.891  -0.332  14.644  0.00  0.00    +0.000 C 
ENDBRANCH  20  22
ENDBRANCH  19  20
ENDBRANCH  18  19
ENDBRANCH  17  18
ENDBRANCH  15  17
ENDBRANCH   1  15
BRANCH   4  23
ATOM     23  C   UNL     1      35.802   0.961  15.158  0.00  0.00    +0.000 C 
BRANCH  23  24
ATOM     24  C   UNL     1      36.232  -0.355  15.638  0.00  0.00    +0.000 A 
ATOM     25  C   UNL     1      36.331  -1.419  14.746  0.00  0.00    +0.000 A 
ATOM     26  C   UNL     1      36.706  -2.681  15.148  0.00  0.00    +0.000 A 
ATOM     27  C   UNL     1      36.989  -2.885  16.481  0.00  0.00    +0.000 A 
ATOM     28  C   UNL     1      36.895  -1.844  17.364  0.00  0.00    +0.000 A 
ATOM     29  C   UNL     1      36.517  -0.580  16.944  0.00  0.00    +0.000 A 
BRANCH  29  30
ATOM     30  O   UNL     1      36.463   0.383  17.934  0.00  0.00    +0.000 OA
ATOM     31  C   UNL     1      36.575   0.115  19.313  0.00  0.00    +0.000 C 
ENDBRANCH  29  30
ENDBRANCH  23  24
ENDBRANCH   4  23
TORSDOF 9
ENDMDL
