MODEL 1
REMARK VINA RESULT:      -7.9      0.000      0.000
REMARK  Name = 
REMARK  3 active torsions:
REMARK  status: ('A' for Active; 'I' for Inactive)
REMARK    1  A    between atoms: C_5  and  C_6
REMARK    2  A    between atoms: N_8  and  C_9
REMARK    3  A    between atoms: C_14  and  N_15
REMARK                            x       y       z     vdW  Elec       q    Type
REMARK                         _______ _______ _______ _____ _____    ______ ____
ROOT
ATOM      1  C   UNL     1      16.007  11.903  36.848  0.00  0.00    +0.000 C 
ATOM      2  O   UNL     1      16.393  13.097  36.807  0.00  0.00    +0.000 OA
ATOM      3  N   UNL     1      15.195  11.423  35.810  0.00  0.00    +0.000 NA
ENDROOT
BRANCH   1   8
ATOM      4  C   UNL     1      17.479   8.439  41.136  0.00  0.00    +0.000 C 
ATOM      5  C   UNL     1      17.151   9.345  39.994  0.00  0.00    +0.000 A 
ATOM      6  C   UNL     1      18.091   9.759  39.077  0.00  0.00    +0.000 A 
ATOM      7  C   UNL     1      17.683  10.596  38.059  0.00  0.00    +0.000 A 
ATOM      8  C   UNL     1      16.381  11.028  37.931  0.00  0.00    +0.000 A 
ATOM      9  C   UNL     1      15.432  10.622  38.841  0.00  0.00    +0.000 A 
ATOM     10  C   UNL     1      13.997  11.064  38.745  0.00  0.00    +0.000 C 
ATOM     11  C   UNL     1      15.845   9.782  39.859  0.00  0.00    +0.000 A 
ENDBRANCH   1   8
BRANCH   3  12
ATOM     12  C   UNL     1      14.786  12.239  34.701  0.00  0.00    +0.000 A 
ATOM     13  C   UNL     1      13.990  13.334  34.960  0.00  0.00    +0.000 A 
ATOM     14  C   UNL     1      13.586  14.129  33.904  0.00  0.00    +0.000 A 
ATOM     15  C   UNL     1      13.996  13.798  32.625  0.00  0.00    +0.000 A 
ATOM     16  F   UNL     1      13.575  14.612  31.605  0.00  0.00    +0.000 F 
ATOM     17  C   UNL     1      14.793  12.704  32.351  0.00  0.00    +0.000 A 
ATOM     18  C   UNL     1      15.186  11.922  33.425  0.00  0.00    +0.000 A 
BRANCH  17  19
ATOM     19  N   UNL     1      15.201  12.388  31.018  0.00  0.00    +0.000 N 
ATOM     20  O   UNL     1      14.503  11.611  30.322  0.00  0.00    +0.000 OA
ATOM     21  O   UNL     1      16.358  12.952  30.532  0.00  0.00    +0.000 OA
ENDBRANCH  17  19
ENDBRANCH   3  12
TORSDOF 3
ENDMDL
MODEL 2
REMARK VINA RESULT:      -7.1      3.984      7.936
REMARK  Name = 
REMARK  3 active torsions:
REMARK  status: ('A' for Active; 'I' for Inactive)
REMARK    1  A    between atoms: C_5  and  C_6
REMARK    2  A    between atoms: N_8  and  C_9
REMARK    3  A    between atoms: C_14  and  N_15
REMARK                            x       y       z     vdW  Elec       q    Type
REMARK                         _______ _______ _______ _____ _____    ______ ____
ROOT
ATOM      1  C   UNL     1      16.958  10.232  35.100  0.00  0.00    +0.000 C 
ATOM      2  O   UNL     1      17.042   8.980  35.144  0.00  0.00    +0.000 OA
ATOM      3  N   UNL     1      17.494  10.980  36.159  0.00  0.00    +0.000 NA
ENDROOT
BRANCH   1   8
ATOM      4  C   UNL     1      14.465  12.901  30.716  0.00  0.00    +0.000 C 
ATOM      5  C   UNL     1      15.154  12.174  31.825  0.00  0.00    +0.000 A 
ATOM      6  C   UNL     1      16.176  11.276  31.606  0.00  0.00    +0.000 A 
ATOM      7  C   UNL     1      16.745  10.658  32.700  0.00  0.00    +0.000 A 
ATOM      8  C   UNL     1      16.329  10.906  33.991  0.00  0.00    +0.000 A 
ATOM      9  C   UNL     1      15.309  11.799  34.222  0.00  0.00    +0.000 A 
ATOM     10  C   UNL     1      14.819  12.104  35.613  0.00  0.00    +0.000 C 
ATOM     11  C   UNL     1      14.742  12.416  33.123  0.00  0.00    +0.000 A 
ENDBRANCH   1   8
BRANCH   3  12
ATOM     12  C   UNL     1      18.134  10.376  37.294  0.00  0.00    +0.000 A 
ATOM     13  C   UNL     1      19.504  10.232  37.265  0.00  0.00    +0.000 A 
ATOM     14  C   UNL     1      20.137   9.651  38.349  0.00  0.00    +0.000 A 
ATOM     15  C   UNL     1      19.371   9.237  39.424  0.00  0.00    +0.000 A 
ATOM     16  F   UNL     1      20.036   8.667  40.479  0.00  0.00    +0.000 F 
ATOM     17  C   UNL     1      17.997   9.375  39.466  0.00  0.00    +0.000 A 
ATOM     18  C   UNL     1      17.386   9.960  38.368  0.00  0.00    +0.000 A 
BRANCH  17  19
ATOM     19  N   UNL     1      17.234   8.938  40.592  0.00  0.00    +0.000 N 
ATOM     20  O   UNL     1      16.738   9.786  41.374  0.00  0.00    +0.000 OA
ATOM     21  O   UNL     1      17.064   7.587  40.789  0.00  0.00    +0.000 OA
ENDBRANCH  17  19
ENDBRANCH   3  12
TORSDOF 3
ENDMDL
MODEL 3
REMARK VINA RESULT:      -6.8     18.501     19.956
REMARK  Name = 
REMARK  3 active torsions:
REMARK  status: ('A' for Active; 'I' for Inactive)
REMARK    1  A    between atoms: C_5  and  C_6
REMARK    2  A    between atoms: N_8  and  C_9
REMARK    3  A    between atoms: C_14  and  N_15
REMARK                            x       y       z     vdW  Elec       q    Type
REMARK                         _______ _______ _______ _____ _____    ______ ____
ROOT
ATOM      1  C   UNL     1      28.412  23.715  27.334  0.00  0.00    +0.000 C 
ATOM      2  O   UNL     1      28.016  24.895  27.173  0.00  0.00    +0.000 OA
ATOM      3  N   UNL     1      28.376  22.839  26.239  0.00  0.00    +0.000 NA
ENDROOT
BRANCH   1   8
ATOM      4  C   UNL     1      30.334  21.881  32.384  0.00  0.00    +0.000 C 
ATOM      5  C   UNL     1      29.888  22.369  31.043  0.00  0.00    +0.000 A 
ATOM      6  C   UNL     1      30.770  22.765  30.063  0.00  0.00    +0.000 A 
ATOM      7  C   UNL     1      30.254  23.201  28.860  0.00  0.00    +0.000 A 
ATOM      8  C   UNL     1      28.900  23.252  28.610  0.00  0.00    +0.000 A 
ATOM      9  C   UNL     1      28.008  22.859  29.581  0.00  0.00    +0.000 A 
ATOM     10  C   UNL     1      26.520  22.896  29.357  0.00  0.00    +0.000 C 
ATOM     11  C   UNL     1      28.530  22.424  30.784  0.00  0.00    +0.000 A 
ENDBRANCH   1   8
BRANCH   3  12
ATOM     12  C   UNL     1      27.904  23.232  24.941  0.00  0.00    +0.000 A 
ATOM     13  C   UNL     1      26.590  22.966  24.621  0.00  0.00    +0.000 A 
ATOM     14  C   UNL     1      26.119  23.338  23.375  0.00  0.00    +0.000 A 
ATOM     15  C   UNL     1      26.984  23.965  22.496  0.00  0.00    +0.000 A 
ATOM     16  F   UNL     1      26.478  24.319  21.271  0.00  0.00    +0.000 F 
ATOM     17  C   UNL     1      28.303  24.238  22.804  0.00  0.00    +0.000 A 
ATOM     18  C   UNL     1      28.752  23.856  24.058  0.00  0.00    +0.000 A 
BRANCH  17  19
ATOM     19  N   UNL     1      29.171  24.888  21.874  0.00  0.00    +0.000 N 
ATOM     20  O   UNL     1      29.742  24.215  20.981  0.00  0.00    +0.000 OA
ATOM     21  O   UNL     1      29.357  26.247  21.985  0.00  0.00    +0.000 OA
ENDBRANCH  17  19
ENDBRANCH   3  12
TORSDOF 3
ENDMDL
MODEL 4
REMARK VINA RESULT:      -6.7     18.204     19.489
REMARK  Name = 
REMARK  3 active torsions:
REMARK  status: ('A' for Active; 'I' for Inactive)
REMARK    1  A    between atoms: C_5  and  C_6
REMARK    2  A    between atoms: N_8  and  C_9
REMARK    3  A    between atoms: C_14  and  N_15
REMARK                            x       y       z     vdW  Elec       q    Type
REMARK                         _______ _______ _______ _____ _____    ______ ____
ROOT
ATOM      1  C   UNL     1      29.482  23.288  27.886  0.00  0.00    +0.000 C 
ATOM      2  O   UNL     1      29.445  24.513  27.614  0.00  0.00    +0.000 OA
ATOM      3  N   UNL     1      29.174  22.366  26.874  0.00  0.00    +0.000 NA
ENDROOT
BRANCH   1   8
ATOM      4  C   UNL     1      30.858  21.434  33.103  0.00  0.00    +0.000 C 
ATOM      5  C   UNL     1      30.556  21.913  31.720  0.00  0.00    +0.000 A 
ATOM      6  C   UNL     1      31.520  22.031  30.744  0.00  0.00    +0.000 A 
ATOM      7  C   UNL     1      31.135  22.484  29.500  0.00  0.00    +0.000 A 
ATOM      8  C   UNL     1      29.831  22.819  29.204  0.00  0.00    +0.000 A 
ATOM      9  C   UNL     1      28.859  22.707  30.170  0.00  0.00    +0.000 A 
ATOM     10  C   UNL     1      27.421  23.060  29.896  0.00  0.00    +0.000 C 
ATOM     11  C   UNL     1      29.249  22.253  31.415  0.00  0.00    +0.000 A 
ENDBRANCH   1   8
BRANCH   3  12
ATOM     12  C   UNL     1      28.819  22.762  25.540  0.00  0.00    +0.000 A 
ATOM     13  C   UNL     1      29.836  22.991  24.639  0.00  0.00    +0.000 A 
ATOM     14  C   UNL     1      29.511  23.374  23.351  0.00  0.00    +0.000 A 
ATOM     15  C   UNL     1      28.177  23.511  23.012  0.00  0.00    +0.000 A 
ATOM     16  F   UNL     1      27.897  23.891  21.725  0.00  0.00    +0.000 F 
ATOM     17  C   UNL     1      27.148  23.284  23.905  0.00  0.00    +0.000 A 
ATOM     18  C   UNL     1      27.497  22.901  25.190  0.00  0.00    +0.000 A 
BRANCH  17  19
ATOM     19  N   UNL     1      25.778  23.433  23.524  0.00  0.00    +0.000 N 
ATOM     20  O   UNL     1      25.032  24.204  24.177  0.00  0.00    +0.000 OA
ATOM     21  O   UNL     1      25.314  22.721  22.443  0.00  0.00    +0.000 OA
ENDBRANCH  17  19
ENDBRANCH   3  12
TORSDOF 3
ENDMDL
MODEL 5
REMARK VINA RESULT:      -6.7     18.554     19.315
REMARK  Name = 
REMARK  3 active torsions:
REMARK  status: ('A' for Active; 'I' for Inactive)
REMARK    1  A    between atoms: C_5  and  C_6
REMARK    2  A    between atoms: N_8  and  C_9
REMARK    3  A    between atoms: C_14  and  N_15
REMARK                            x       y       z     vdW  Elec       q    Type
REMARK                         _______ _______ _______ _____ _____    ______ ____
ROOT
ATOM      1  C   UNL     1      29.533  23.274  28.053  0.00  0.00    +0.000 C 
ATOM      2  O   UNL     1      29.645  24.468  27.682  0.00  0.00    +0.000 OA
ATOM      3  N   UNL     1      28.427  22.533  27.610  0.00  0.00    +0.000 NA
ENDROOT
BRANCH   1   8
ATOM      4  C   UNL     1      33.398  20.842  31.474  0.00  0.00    +0.000 C 
ATOM      5  C   UNL     1      32.421  21.464  30.530  0.00  0.00    +0.000 A 
ATOM      6  C   UNL     1      32.614  21.493  29.167  0.00  0.00    +0.000 A 
ATOM      7  C   UNL     1      31.649  22.093  28.385  0.00  0.00    +0.000 A 
ATOM      8  C   UNL     1      30.511  22.659  28.916  0.00  0.00    +0.000 A 
ATOM      9  C   UNL     1      30.306  22.637  30.276  0.00  0.00    +0.000 A 
ATOM     10  C   UNL     1      29.078  23.241  30.906  0.00  0.00    +0.000 C 
ATOM     11  C   UNL     1      31.274  22.035  31.056  0.00  0.00    +0.000 A 
ENDBRANCH   1   8
BRANCH   3  12
ATOM     12  C   UNL     1      27.416  23.081  26.750  0.00  0.00    +0.000 A 
ATOM     13  C   UNL     1      26.410  23.826  27.325  0.00  0.00    +0.000 A 
ATOM     14  C   UNL     1      25.428  24.361  26.511  0.00  0.00    +0.000 A 
ATOM     15  C   UNL     1      25.492  24.130  25.149  0.00  0.00    +0.000 A 
ATOM     16  F   UNL     1      24.500  24.677  24.377  0.00  0.00    +0.000 F 
ATOM     17  C   UNL     1      26.495  23.384  24.560  0.00  0.00    +0.000 A 
ATOM     18  C   UNL     1      27.467  22.859  25.395  0.00  0.00    +0.000 A 
BRANCH  17  19
ATOM     19  N   UNL     1      26.534  23.164  23.148  0.00  0.00    +0.000 N 
ATOM     20  O   UNL     1      27.609  23.332  22.522  0.00  0.00    +0.000 OA
ATOM     21  O   UNL     1      25.381  22.768  22.511  0.00  0.00    +0.000 OA
ENDBRANCH  17  19
ENDBRANCH   3  12
TORSDOF 3
ENDMDL
MODEL 6
REMARK VINA RESULT:      -6.6     21.040     23.116
REMARK  Name = 
REMARK  3 active torsions:
REMARK  status: ('A' for Active; 'I' for Inactive)
REMARK    1  A    between atoms: C_5  and  C_6
REMARK    2  A    between atoms: N_8  and  C_9
REMARK    3  A    between atoms: C_14  and  N_15
REMARK                            x       y       z     vdW  Elec       q    Type
REMARK                         _______ _______ _______ _____ _____    ______ ____
ROOT
ATOM      1  C   UNL     1      33.289  -0.177  34.838  0.00  0.00    +0.000 C 
ATOM      2  O   UNL     1      32.203  -0.651  35.252  0.00  0.00    +0.000 OA
ATOM      3  N   UNL     1      34.296  -1.064  34.428  0.00  0.00    +0.000 NA
ENDROOT
BRANCH   1   8
ATOM      4  C   UNL     1      34.187   5.452  34.604  0.00  0.00    +0.000 C 
ATOM      5  C   UNL     1      33.939   3.979  34.606  0.00  0.00    +0.000 A 
ATOM      6  C   UNL     1      33.566   3.283  33.477  0.00  0.00    +0.000 A 
ATOM      7  C   UNL     1      33.362   1.924  33.588  0.00  0.00    +0.000 A 
ATOM      8  C   UNL     1      33.516   1.245  34.777  0.00  0.00    +0.000 A 
ATOM      9  C   UNL     1      33.887   1.928  35.912  0.00  0.00    +0.000 A 
ATOM     10  C   UNL     1      34.068   1.233  37.235  0.00  0.00    +0.000 C 
ATOM     11  C   UNL     1      34.091   3.290  35.797  0.00  0.00    +0.000 A 
ENDBRANCH   1   8
BRANCH   3  12
ATOM     12  C   UNL     1      34.139  -2.491  34.461  0.00  0.00    +0.000 A 
ATOM     13  C   UNL     1      34.528  -3.160  35.601  0.00  0.00    +0.000 A 
ATOM     14  C   UNL     1      34.384  -4.534  35.650  0.00  0.00    +0.000 A 
ATOM     15  C   UNL     1      33.853  -5.188  34.553  0.00  0.00    +0.000 A 
ATOM     16  F   UNL     1      33.726  -6.551  34.641  0.00  0.00    +0.000 F 
ATOM     17  C   UNL     1      33.459  -4.530  33.404  0.00  0.00    +0.000 A 
ATOM     18  C   UNL     1      33.613  -3.153  33.378  0.00  0.00    +0.000 A 
BRANCH  17  19
ATOM     19  N   UNL     1      32.913  -5.234  32.287  0.00  0.00    +0.000 N 
ATOM     20  O   UNL     1      31.843  -5.878  32.420  0.00  0.00    +0.000 OA
ATOM     21  O   UNL     1      33.582  -5.186  31.086  0.00  0.00    +0.000 OA
ENDBRANCH  17  19
ENDBRANCH   3  12
TORSDOF 3
ENDMDL
MODEL 7
REMARK VINA RESULT:      -6.5     20.177     21.401
REMARK  Name = 
REMARK  3 active torsions:
REMARK  status: ('A' for Active; 'I' for Inactive)
REMARK    1  A    between atoms: C_5  and  C_6
REMARK    2  A    between atoms: N_8  and  C_9
REMARK    3  A    between atoms: C_14  and  N_15
REMARK                            x       y       z     vdW  Elec       q    Type
REMARK                         _______ _______ _______ _____ _____    ______ ____
ROOT
ATOM      1  C   UNL     1      30.451  23.854  26.379  0.00  0.00    +0.000 C 
ATOM      2  O   UNL     1      29.712  24.842  26.608  0.00  0.00    +0.000 OA
ATOM      3  N   UNL     1      30.359  23.220  25.131  0.00  0.00    +0.000 NA
ENDROOT
BRANCH   1   8
ATOM      4  C   UNL     1      34.140  21.924  30.280  0.00  0.00    +0.000 C 
ATOM      5  C   UNL     1      33.134  22.387  29.277  0.00  0.00    +0.000 A 
ATOM      6  C   UNL     1      31.898  21.797  29.132  0.00  0.00    +0.000 A 
ATOM      7  C   UNL     1      31.044  22.301  28.174  0.00  0.00    +0.000 A 
ATOM      8  C   UNL     1      31.382  23.365  27.366  0.00  0.00    +0.000 A 
ATOM      9  C   UNL     1      32.613  23.963  27.500  0.00  0.00    +0.000 A 
ATOM     10  C   UNL     1      33.029  25.128  26.641  0.00  0.00    +0.000 C 
ATOM     11  C   UNL     1      33.466  23.455  28.461  0.00  0.00    +0.000 A 
ENDBRANCH   1   8
BRANCH   3  12
ATOM     12  C   UNL     1      29.455  23.654  24.102  0.00  0.00    +0.000 A 
ATOM     13  C   UNL     1      29.966  24.397  23.061  0.00  0.00    +0.000 A 
ATOM     14  C   UNL     1      29.110  24.824  22.062  0.00  0.00    +0.000 A 
ATOM     15  C   UNL     1      27.771  24.486  22.143  0.00  0.00    +0.000 A 
ATOM     16  F   UNL     1      26.955  24.927  21.133  0.00  0.00    +0.000 F 
ATOM     17  C   UNL     1      27.245  23.741  23.181  0.00  0.00    +0.000 A 
ATOM     18  C   UNL     1      28.122  23.326  24.170  0.00  0.00    +0.000 A 
BRANCH  17  19
ATOM     19  N   UNL     1      25.857  23.408  23.236  0.00  0.00    +0.000 N 
ATOM     20  O   UNL     1      25.164  23.789  24.212  0.00  0.00    +0.000 OA
ATOM     21  O   UNL     1      25.314  22.673  22.208  0.00  0.00    +0.000 OA
ENDBRANCH  17  19
ENDBRANCH   3  12
TORSDOF 3
ENDMDL
MODEL 8
REMARK VINA RESULT:      -6.5     22.260     24.314
REMARK  Name = 
REMARK  3 active torsions:
REMARK  status: ('A' for Active; 'I' for Inactive)
REMARK    1  A    between atoms: C_5  and  C_6
REMARK    2  A    between atoms: N_8  and  C_9
REMARK    3  A    between atoms: C_14  and  N_15
REMARK                            x       y       z     vdW  Elec       q    Type
REMARK                         _______ _______ _______ _____ _____    ______ ____
ROOT
ATOM      1  C   UNL     1      29.495  24.753  22.137  0.00  0.00    +0.000 C 
ATOM      2  O   UNL     1      29.577  24.171  21.027  0.00  0.00    +0.000 OA
ATOM      3  N   UNL     1      29.219  26.128  22.156  0.00  0.00    +0.000 NA
ENDROOT
BRANCH   1   8
ATOM      4  C   UNL     1      30.203  21.929  27.044  0.00  0.00    +0.000 C 
ATOM      5  C   UNL     1      30.077  22.681  25.759  0.00  0.00    +0.000 A 
ATOM      6  C   UNL     1      31.147  23.290  25.143  0.00  0.00    +0.000 A 
ATOM      7  C   UNL     1      30.922  23.960  23.958  0.00  0.00    +0.000 A 
ATOM      8  C   UNL     1      29.675  24.039  23.377  0.00  0.00    +0.000 A 
ATOM      9  C   UNL     1      28.598  23.436  23.982  0.00  0.00    +0.000 A 
ATOM     10  C   UNL     1      27.216  23.493  23.387  0.00  0.00    +0.000 C 
ATOM     11  C   UNL     1      28.828  22.765  25.169  0.00  0.00    +0.000 A 
ENDBRANCH   1   8
BRANCH   3  12
ATOM     12  C   UNL     1      29.027  26.901  20.960  0.00  0.00    +0.000 A 
ATOM     13  C   UNL     1      27.868  27.638  20.843  0.00  0.00    +0.000 A 
ATOM     14  C   UNL     1      27.667  28.387  19.699  0.00  0.00    +0.000 A 
ATOM     15  C   UNL     1      28.637  28.371  18.713  0.00  0.00    +0.000 A 
ATOM     16  F   UNL     1      28.400  29.127  17.593  0.00  0.00    +0.000 F 
ATOM     17  C   UNL     1      29.802  27.637  18.817  0.00  0.00    +0.000 A 
ATOM     18  C   UNL     1      29.982  26.894  19.973  0.00  0.00    +0.000 A 
BRANCH  17  19
ATOM     19  N   UNL     1      30.786  27.641  17.780  0.00  0.00    +0.000 N 
ATOM     20  O   UNL     1      31.929  28.108  18.010  0.00  0.00    +0.000 OA
ATOM     21  O   UNL     1      30.449  27.129  16.549  0.00  0.00    +0.000 OA
ENDBRANCH  17  19
ENDBRANCH   3  12
TORSDOF 3
ENDMDL
MODEL 9
REMARK VINA RESULT:      -6.5     20.856     22.872
REMARK  Name = 
REMARK  3 active torsions:
REMARK  status: ('A' for Active; 'I' for Inactive)
REMARK    1  A    between atoms: C_5  and  C_6
REMARK    2  A    between atoms: N_8  and  C_9
REMARK    3  A    between atoms: C_14  and  N_15
REMARK                            x       y       z     vdW  Elec       q    Type
REMARK                         _______ _______ _______ _____ _____    ______ ____
ROOT
ATOM      1  C   UNL     1      33.927  -0.011  34.980  0.00  0.00    +0.000 C 
ATOM      2  O   UNL     1      34.911  -0.658  35.417  0.00  0.00    +0.000 OA
ATOM      3  N   UNL     1      32.835  -0.720  34.458  0.00  0.00    +0.000 NA
ENDROOT
BRANCH   1   8
ATOM      4  C   UNL     1      33.826   5.693  35.079  0.00  0.00    +0.000 C 
ATOM      5  C   UNL     1      33.853   4.199  35.114  0.00  0.00    +0.000 A 
ATOM      6  C   UNL     1      33.895   3.481  36.288  0.00  0.00    +0.000 A 
ATOM      7  C   UNL     1      33.919   2.104  36.209  0.00  0.00    +0.000 A 
ATOM      8  C   UNL     1      33.901   1.430  35.007  0.00  0.00    +0.000 A 
ATOM      9  C   UNL     1      33.860   2.136  33.827  0.00  0.00    +0.000 A 
ATOM     10  C   UNL     1      33.839   1.447  32.488  0.00  0.00    +0.000 C 
ATOM     11  C   UNL     1      33.837   3.515  33.911  0.00  0.00    +0.000 A 
ENDBRANCH   1   8
BRANCH   3  12
ATOM     12  C   UNL     1      32.792  -2.154  34.401  0.00  0.00    +0.000 A 
ATOM     13  C   UNL     1      32.122  -2.824  35.402  0.00  0.00    +0.000 A 
ATOM     14  C   UNL     1      32.072  -4.205  35.363  0.00  0.00    +0.000 A 
ATOM     15  C   UNL     1      32.695  -4.865  34.319  0.00  0.00    +0.000 A 
ATOM     16  F   UNL     1      32.623  -6.235  34.316  0.00  0.00    +0.000 F 
ATOM     17  C   UNL     1      33.371  -4.207  33.310  0.00  0.00    +0.000 A 
ATOM     18  C   UNL     1      33.408  -2.823  33.371  0.00  0.00    +0.000 A 
BRANCH  17  19
ATOM     19  N   UNL     1      34.005  -4.918  32.245  0.00  0.00    +0.000 N 
ATOM     20  O   UNL     1      33.508  -4.884  31.092  0.00  0.00    +0.000 OA
ATOM     21  O   UNL     1      35.154  -5.625  32.516  0.00  0.00    +0.000 OA
ENDBRANCH  17  19
ENDBRANCH   3  12
TORSDOF 3
ENDMDL
MODEL 10
REMARK VINA RESULT:      -6.5     17.957     19.167
REMARK  Name = 
REMARK  3 active torsions:
REMARK  status: ('A' for Active; 'I' for Inactive)
REMARK    1  A    between atoms: C_5  and  C_6
REMARK    2  A    between atoms: N_8  and  C_9
REMARK    3  A    between atoms: C_14  and  N_15
REMARK                            x       y       z     vdW  Elec       q    Type
REMARK                         _______ _______ _______ _____ _____    ______ ____
ROOT
ATOM      1  C   UNL     1      25.357  25.676  27.772  0.00  0.00    +0.000 C 
ATOM      2  O   UNL     1      26.098  26.510  27.198  0.00  0.00    +0.000 OA
ATOM      3  N   UNL     1      25.414  24.334  27.367  0.00  0.00    +0.000 NA
ENDROOT
BRANCH   1   8
ATOM      4  C   UNL     1      21.798  27.232  31.952  0.00  0.00    +0.000 C 
ATOM      5  C   UNL     1      22.773  26.813  30.899  0.00  0.00    +0.000 A 
ATOM      6  C   UNL     1      24.053  26.399  31.191  0.00  0.00    +0.000 A 
ATOM      7  C   UNL     1      24.874  26.034  30.143  0.00  0.00    +0.000 A 
ATOM      8  C   UNL     1      24.459  26.069  28.830  0.00  0.00    +0.000 A 
ATOM      9  C   UNL     1      23.182  26.481  28.525  0.00  0.00    +0.000 A 
ATOM     10  C   UNL     1      22.681  26.536  27.107  0.00  0.00    +0.000 C 
ATOM     11  C   UNL     1      22.364  26.846  29.577  0.00  0.00    +0.000 A 
ENDBRANCH   1   8
BRANCH   3  12
ATOM     12  C   UNL     1      26.285  23.873  26.322  0.00  0.00    +0.000 A 
ATOM     13  C   UNL     1      27.533  23.409  26.675  0.00  0.00    +0.000 A 
ATOM     14  C   UNL     1      28.385  22.962  25.681  0.00  0.00    +0.000 A 
ATOM     15  C   UNL     1      27.951  22.994  24.368  0.00  0.00    +0.000 A 
ATOM     16  F   UNL     1      28.825  22.542  23.413  0.00  0.00    +0.000 F 
ATOM     17  C   UNL     1      26.703  23.456  24.000  0.00  0.00    +0.000 A 
ATOM     18  C   UNL     1      25.868  23.900  25.013  0.00  0.00    +0.000 A 
BRANCH  17  19
ATOM     19  N   UNL     1      26.284  23.477  22.634  0.00  0.00    +0.000 N 
ATOM     20  O   UNL     1      25.336  22.742  22.263  0.00  0.00    +0.000 OA
ATOM     21  O   UNL     1      26.939  24.310  21.756  0.00  0.00    +0.000 OA
ENDBRANCH  17  19
ENDBRANCH   3  12
TORSDOF 3
ENDMDL
