MODEL 1
REMARK VINA RESULT:      -7.3      0.000      0.000
REMARK  Name = 
REMARK  8 active torsions:
REMARK  status: ('A' for Active; 'I' for Inactive)
REMARK    1  A    between atoms: C_2  and  O_3
REMARK    2  A    between atoms: O_3  and  C_4
REMARK    3  A    between atoms: C_7  and  N_8
REMARK    4  A    between atoms: C_11  and  C_12
REMARK    5  A    between atoms: C_12  and  O_14
REMARK    6  A    between atoms: O_14  and  C_15
REMARK    7  A    between atoms: C_15  and  C_16
REMARK    8  A    between atoms: C_16  and  C_18
REMARK                            x       y       z     vdW  Elec       q    Type
REMARK                         _______ _______ _______ _____ _____    ______ ____
ROOT
ATOM      1  N   UNL     1      35.817  -2.659  15.965  0.00  0.00    +0.000 N 
ATOM      2  C   UNL     1      35.338  -1.707  16.778  0.00  0.00    +0.000 A 
ATOM      3  N   UNL     1      34.095  -1.780  17.444  0.00  0.00    +0.000 NA
ATOM      4  C   UNL     1      36.238  -0.651  16.865  0.00  0.00    +0.000 A 
ATOM      5  C   UNL     1      37.290  -1.019  16.057  0.00  0.00    +0.000 A 
ATOM      6  N   UNL     1      38.449  -0.387  15.756  0.00  0.00    +0.000 NA
ATOM      7  C   UNL     1      39.351  -0.930  14.934  0.00  0.00    +0.000 A 
ATOM      8  C   UNL     1      40.537  -0.264  14.638  0.00  0.00    +0.000 A 
ATOM      9  C   UNL     1      41.454  -0.856  13.779  0.00  0.00    +0.000 A 
ATOM     10  C   UNL     1      41.177  -2.098  13.232  0.00  0.00    +0.000 A 
ATOM     11  C   UNL     1      40.001  -2.744  13.535  0.00  0.00    +0.000 A 
ATOM     12  C   UNL     1      39.092  -2.154  14.387  0.00  0.00    +0.000 A 
ATOM     13  N   UNL     1      37.944  -2.787  14.680  0.00  0.00    +0.000 NA
ATOM     14  C   UNL     1      37.033  -2.244  15.508  0.00  0.00    +0.000 A 
ENDROOT
BRANCH   1  18
ATOM     15  C   UNL     1      34.168  -6.366  14.792  0.00  0.00    +0.000 A 
ATOM     16  C   UNL     1      35.142  -6.305  15.782  0.00  0.00    +0.000 A 
ATOM     17  C   UNL     1      35.676  -5.082  16.159  0.00  0.00    +0.000 A 
ATOM     18  C   UNL     1      35.265  -3.903  15.573  0.00  0.00    +0.000 A 
ATOM     19  C   UNL     1      34.289  -4.004  14.586  0.00  0.00    +0.000 A 
ATOM     20  C   UNL     1      33.755  -5.205  14.206  0.00  0.00    +0.000 A 
BRANCH  15  21
ATOM     21  O   UNL     1      33.681  -7.615  14.466  0.00  0.00    +0.000 OA
BRANCH  21  23
ATOM     22  C   UNL     1      33.104  -8.519  12.320  0.00  0.00    +0.000 C 
ATOM     23  C   UNL     1      34.198  -8.351  13.373  0.00  0.00    +0.000 C 
ENDBRANCH  21  23
ENDBRANCH  15  21
ENDBRANCH   1  18
BRANCH   4  24
ATOM     24  C   UNL     1      36.096   0.586  17.649  0.00  0.00    +0.000 C 
ATOM     25  O   UNL     1      36.558   0.569  18.804  0.00  0.00    +0.000 OA
BRANCH  24  26
ATOM     26  O   UNL     1      35.516   1.717  17.222  0.00  0.00    +0.000 OA
BRANCH  26  27
ATOM     27  C   UNL     1      35.672   2.669  16.361  0.00  0.00    +0.000 C 
BRANCH  27  28
ATOM     28  C   UNL     1      35.222   2.479  14.832  0.00  0.00    +0.000 C 
ATOM     29  C   UNL     1      35.112   4.063  14.477  0.00  0.00    +0.000 C 
BRANCH  28  30
ATOM     30  C   UNL     1      36.713   2.313  14.147  0.00  0.00    +0.000 C 
ATOM     31  C   UNL     1      36.473   1.142  13.227  0.00  0.00    +0.000 C 
ENDBRANCH  28  30
ENDBRANCH  27  28
ENDBRANCH  26  27
ENDBRANCH  24  26
ENDBRANCH   4  24
TORSDOF 8
ENDMDL
MODEL 2
REMARK VINA RESULT:      -6.9      2.259      7.478
REMARK  Name = 
REMARK  8 active torsions:
REMARK  status: ('A' for Active; 'I' for Inactive)
REMARK    1  A    between atoms: C_2  and  O_3
REMARK    2  A    between atoms: O_3  and  C_4
REMARK    3  A    between atoms: C_7  and  N_8
REMARK    4  A    between atoms: C_11  and  C_12
REMARK    5  A    between atoms: C_12  and  O_14
REMARK    6  A    between atoms: O_14  and  C_15
REMARK    7  A    between atoms: C_15  and  C_16
REMARK    8  A    between atoms: C_16  and  C_18
REMARK                            x       y       z     vdW  Elec       q    Type
REMARK                         _______ _______ _______ _____ _____    ______ ____
ROOT
ATOM      1  N   UNL     1      36.587   1.858  15.676  0.00  0.00    +0.000 N 
ATOM      2  C   UNL     1      35.714   1.168  16.423  0.00  0.00    +0.000 A 
ATOM      3  N   UNL     1      34.482   1.681  16.887  0.00  0.00    +0.000 NA
ATOM      4  C   UNL     1      36.197  -0.111  16.669  0.00  0.00    +0.000 A 
ATOM      5  C   UNL     1      37.415  -0.156  16.027  0.00  0.00    +0.000 A 
ATOM      6  N   UNL     1      38.333  -1.146  15.922  0.00  0.00    +0.000 NA
ATOM      7  C   UNL     1      39.469  -0.978  15.239  0.00  0.00    +0.000 A 
ATOM      8  C   UNL     1      40.401  -2.008  15.143  0.00  0.00    +0.000 A 
ATOM      9  C   UNL     1      41.572  -1.801  14.426  0.00  0.00    +0.000 A 
ATOM     10  C   UNL     1      41.795  -0.577  13.818  0.00  0.00    +0.000 A 
ATOM     11  C   UNL     1      40.865   0.431  13.922  0.00  0.00    +0.000 A 
ATOM     12  C   UNL     1      39.703   0.224  14.635  0.00  0.00    +0.000 A 
ATOM     13  N   UNL     1      38.797   1.210  14.735  0.00  0.00    +0.000 NA
ATOM     14  C   UNL     1      37.651   1.045  15.421  0.00  0.00    +0.000 A 
ENDROOT
BRANCH   1  18
ATOM     15  C   UNL     1      36.429   5.811  14.195  0.00  0.00    +0.000 A 
ATOM     16  C   UNL     1      35.611   4.821  13.662  0.00  0.00    +0.000 A 
ATOM     17  C   UNL     1      35.671   3.527  14.156  0.00  0.00    +0.000 A 
ATOM     18  C   UNL     1      36.532   3.183  15.178  0.00  0.00    +0.000 A 
ATOM     19  C   UNL     1      37.335   4.200  15.686  0.00  0.00    +0.000 A 
ATOM     20  C   UNL     1      37.284   5.481  15.207  0.00  0.00    +0.000 A 
BRANCH  15  21
ATOM     21  O   UNL     1      36.317   7.076  13.656  0.00  0.00    +0.000 OA
BRANCH  21  23
ATOM     22  C   UNL     1      34.210   8.134  14.096  0.00  0.00    +0.000 C 
ATOM     23  C   UNL     1      35.123   7.516  13.039  0.00  0.00    +0.000 C 
ENDBRANCH  21  23
ENDBRANCH  15  21
ENDBRANCH   1  18
BRANCH   4  24
ATOM     24  C   UNL     1      35.550  -1.181  17.445  0.00  0.00    +0.000 C 
ATOM     25  O   UNL     1      35.945  -1.338  18.614  0.00  0.00    +0.000 OA
BRANCH  24  26
ATOM     26  O   UNL     1      34.579  -1.991  16.998  0.00  0.00    +0.000 OA
BRANCH  26  27
ATOM     27  C   UNL     1      34.396  -3.028  16.246  0.00  0.00    +0.000 C 
BRANCH  27  28
ATOM     28  C   UNL     1      35.387  -3.344  15.025  0.00  0.00    +0.000 C 
ATOM     29  C   UNL     1      36.378  -4.338  15.849  0.00  0.00    +0.000 C 
BRANCH  28  30
ATOM     30  C   UNL     1      34.544  -4.579  14.326  0.00  0.00    +0.000 C 
ATOM     31  C   UNL     1      33.209  -4.433  15.014  0.00  0.00    +0.000 C 
ENDBRANCH  28  30
ENDBRANCH  27  28
ENDBRANCH  26  27
ENDBRANCH  24  26
ENDBRANCH   4  24
TORSDOF 8
ENDMDL
MODEL 3
REMARK VINA RESULT:      -6.8      3.582      6.618
REMARK  Name = 
REMARK  8 active torsions:
REMARK  status: ('A' for Active; 'I' for Inactive)
REMARK    1  A    between atoms: C_2  and  O_3
REMARK    2  A    between atoms: O_3  and  C_4
REMARK    3  A    between atoms: C_7  and  N_8
REMARK    4  A    between atoms: C_11  and  C_12
REMARK    5  A    between atoms: C_12  and  O_14
REMARK    6  A    between atoms: O_14  and  C_15
REMARK    7  A    between atoms: C_15  and  C_16
REMARK    8  A    between atoms: C_16  and  C_18
REMARK                            x       y       z     vdW  Elec       q    Type
REMARK                         _______ _______ _______ _____ _____    ______ ____
ROOT
ATOM      1  N   UNL     1      39.275   0.110  13.933  0.00  0.00    +0.000 N 
ATOM      2  C   UNL     1      39.567   1.414  14.034  0.00  0.00    +0.000 A 
ATOM      3  N   UNL     1      40.655   2.040  13.385  0.00  0.00    +0.000 NA
ATOM      4  C   UNL     1      38.651   2.050  14.863  0.00  0.00    +0.000 A 
ATOM      5  C   UNL     1      37.786   1.054  15.259  0.00  0.00    +0.000 A 
ATOM      6  N   UNL     1      36.699   1.084  16.065  0.00  0.00    +0.000 NA
ATOM      7  C   UNL     1      35.987  -0.016  16.323  0.00  0.00    +0.000 A 
ATOM      8  C   UNL     1      34.872   0.035  17.155  0.00  0.00    +0.000 A 
ATOM      9  C   UNL     1      34.154  -1.127  17.403  0.00  0.00    +0.000 A 
ATOM     10  C   UNL     1      34.554  -2.318  16.818  0.00  0.00    +0.000 A 
ATOM     11  C   UNL     1      35.658  -2.353  15.998  0.00  0.00    +0.000 A 
ATOM     12  C   UNL     1      36.370  -1.198  15.754  0.00  0.00    +0.000 A 
ATOM     13  N   UNL     1      37.447  -1.235  14.953  0.00  0.00    +0.000 NA
ATOM     14  C   UNL     1      38.167  -0.129  14.691  0.00  0.00    +0.000 A 
ENDROOT
BRANCH   1  18
ATOM     15  C   UNL     1      41.185  -2.983  11.783  0.00  0.00    +0.000 A 
ATOM     16  C   UNL     1      40.095  -2.311  11.240  0.00  0.00    +0.000 A 
ATOM     17  C   UNL     1      39.476  -1.297  11.956  0.00  0.00    +0.000 A 
ATOM     18  C   UNL     1      39.915  -0.927  13.210  0.00  0.00    +0.000 A 
ATOM     19  C   UNL     1      41.007  -1.621  13.720  0.00  0.00    +0.000 A 
ATOM     20  C   UNL     1      41.626  -2.624  13.024  0.00  0.00    +0.000 A 
BRANCH  15  21
ATOM     21  O   UNL     1      41.752  -3.981  11.017  0.00  0.00    +0.000 OA
BRANCH  21  23
ATOM     22  C   UNL     1      43.963  -4.696  10.421  0.00  0.00    +0.000 C 
ATOM     23  C   UNL     1      42.826  -3.718  10.134  0.00  0.00    +0.000 C 
ENDBRANCH  21  23
ENDBRANCH  15  21
ENDBRANCH   1  18
BRANCH   4  24
ATOM     24  C   UNL     1      38.614   3.474  15.235  0.00  0.00    +0.000 C 
ATOM     25  O   UNL     1      38.411   4.284  14.314  0.00  0.00    +0.000 OA
BRANCH  24  26
ATOM     26  O   UNL     1      38.780   3.960  16.473  0.00  0.00    +0.000 OA
BRANCH  26  27
ATOM     27  C   UNL     1      38.461   4.975  17.210  0.00  0.00    +0.000 C 
BRANCH  27  28
ATOM     28  C   UNL     1      39.350   5.378  18.484  0.00  0.00    +0.000 C 
ATOM     29  C   UNL     1      40.574   6.048  17.646  0.00  0.00    +0.000 C 
BRANCH  28  30
ATOM     30  C   UNL     1      38.647   6.828  18.836  0.00  0.00    +0.000 C 
ATOM     31  C   UNL     1      39.382   7.198  20.101  0.00  0.00    +0.000 C 
ENDBRANCH  28  30
ENDBRANCH  27  28
ENDBRANCH  26  27
ENDBRANCH  24  26
ENDBRANCH   4  24
TORSDOF 8
ENDMDL
MODEL 4
REMARK VINA RESULT:      -6.7      2.779      6.780
REMARK  Name = 
REMARK  8 active torsions:
REMARK  status: ('A' for Active; 'I' for Inactive)
REMARK    1  A    between atoms: C_2  and  O_3
REMARK    2  A    between atoms: O_3  and  C_4
REMARK    3  A    between atoms: C_7  and  N_8
REMARK    4  A    between atoms: C_11  and  C_12
REMARK    5  A    between atoms: C_12  and  O_14
REMARK    6  A    between atoms: O_14  and  C_15
REMARK    7  A    between atoms: C_15  and  C_16
REMARK    8  A    between atoms: C_16  and  C_18
REMARK                            x       y       z     vdW  Elec       q    Type
REMARK                         _______ _______ _______ _____ _____    ______ ____
ROOT
ATOM      1  N   UNL     1      39.735  -1.700  15.062  0.00  0.00    +0.000 N 
ATOM      2  C   UNL     1      39.227  -2.379  16.099  0.00  0.00    +0.000 A 
ATOM      3  N   UNL     1      39.750  -3.597  16.588  0.00  0.00    +0.000 NA
ATOM      4  C   UNL     1      38.122  -1.713  16.616  0.00  0.00    +0.000 A 
ATOM      5  C   UNL     1      37.990  -0.590  15.830  0.00  0.00    +0.000 A 
ATOM      6  N   UNL     1      37.094   0.425  15.865  0.00  0.00    +0.000 NA
ATOM      7  C   UNL     1      37.146   1.436  14.994  0.00  0.00    +0.000 A 
ATOM      8  C   UNL     1      36.216   2.470  15.046  0.00  0.00    +0.000 A 
ATOM      9  C   UNL     1      36.298   3.507  14.126  0.00  0.00    +0.000 A 
ATOM     10  C   UNL     1      37.303   3.498  13.172  0.00  0.00    +0.000 A 
ATOM     11  C   UNL     1      38.215   2.470  13.133  0.00  0.00    +0.000 A 
ATOM     12  C   UNL     1      38.132   1.441  14.048  0.00  0.00    +0.000 A 
ATOM     13  N   UNL     1      39.024   0.438  14.007  0.00  0.00    +0.000 NA
ATOM     14  C   UNL     1      38.975  -0.583  14.882  0.00  0.00    +0.000 A 
ENDROOT
BRANCH   1  18
ATOM     15  C   UNL     1      43.042  -2.541  12.572  0.00  0.00    +0.000 A 
ATOM     16  C   UNL     1      43.166  -1.661  13.642  0.00  0.00    +0.000 A 
ATOM     17  C   UNL     1      42.073  -1.392  14.453  0.00  0.00    +0.000 A 
ATOM     18  C   UNL     1      40.845  -1.981  14.228  0.00  0.00    +0.000 A 
ATOM     19  C   UNL     1      40.760  -2.856  13.149  0.00  0.00    +0.000 A 
ATOM     20  C   UNL     1      41.832  -3.128  12.342  0.00  0.00    +0.000 A 
BRANCH  15  21
ATOM     21  O   UNL     1      44.169  -2.762  11.807  0.00  0.00    +0.000 OA
BRANCH  21  23
ATOM     22  C   UNL     1      45.808  -4.134  12.894  0.00  0.00    +0.000 C 
ATOM     23  C   UNL     1      45.465  -2.740  12.374  0.00  0.00    +0.000 C 
ENDBRANCH  21  23
ENDBRANCH  15  21
ENDBRANCH   1  18
BRANCH   4  24
ATOM     24  C   UNL     1      37.279  -2.119  17.752  0.00  0.00    +0.000 C 
ATOM     25  O   UNL     1      37.746  -1.925  18.889  0.00  0.00    +0.000 OA
BRANCH  24  26
ATOM     26  O   UNL     1      36.062  -2.674  17.661  0.00  0.00    +0.000 OA
BRANCH  26  27
ATOM     27  C   UNL     1      35.019  -2.701  16.896  0.00  0.00    +0.000 C 
BRANCH  27  28
ATOM     28  C   UNL     1      35.108  -3.285  15.404  0.00  0.00    +0.000 C 
ATOM     29  C   UNL     1      35.857  -4.675  15.797  0.00  0.00    +0.000 C 
BRANCH  28  30
ATOM     30  C   UNL     1      33.616  -3.982  15.314  0.00  0.00    +0.000 C 
ATOM     31  C   UNL     1      33.814  -4.926  14.154  0.00  0.00    +0.000 C 
ENDBRANCH  28  30
ENDBRANCH  27  28
ENDBRANCH  26  27
ENDBRANCH  24  26
ENDBRANCH   4  24
TORSDOF 8
ENDMDL
MODEL 5
REMARK VINA RESULT:      -6.7      3.622      6.714
REMARK  Name = 
REMARK  8 active torsions:
REMARK  status: ('A' for Active; 'I' for Inactive)
REMARK    1  A    between atoms: C_2  and  O_3
REMARK    2  A    between atoms: O_3  and  C_4
REMARK    3  A    between atoms: C_7  and  N_8
REMARK    4  A    between atoms: C_11  and  C_12
REMARK    5  A    between atoms: C_12  and  O_14
REMARK    6  A    between atoms: O_14  and  C_15
REMARK    7  A    between atoms: C_15  and  C_16
REMARK    8  A    between atoms: C_16  and  C_18
REMARK                            x       y       z     vdW  Elec       q    Type
REMARK                         _______ _______ _______ _____ _____    ______ ____
ROOT
ATOM      1  N   UNL     1      38.968   1.100  14.223  0.00  0.00    +0.000 N 
ATOM      2  C   UNL     1      39.007   2.414  14.481  0.00  0.00    +0.000 A 
ATOM      3  N   UNL     1      39.971   3.302  13.951  0.00  0.00    +0.000 NA
ATOM      4  C   UNL     1      37.972   2.768  15.338  0.00  0.00    +0.000 A 
ATOM      5  C   UNL     1      37.303   1.591  15.584  0.00  0.00    +0.000 A 
ATOM      6  N   UNL     1      36.214   1.325  16.344  0.00  0.00    +0.000 NA
ATOM      7  C   UNL     1      35.716   0.089  16.448  0.00  0.00    +0.000 A 
ATOM      8  C   UNL     1      34.596  -0.165  17.234  0.00  0.00    +0.000 A 
ATOM      9  C   UNL     1      34.104  -1.460  17.320  0.00  0.00    +0.000 A 
ATOM     10  C   UNL     1      34.732  -2.479  16.623  0.00  0.00    +0.000 A 
ATOM     11  C   UNL     1      35.838  -2.213  15.850  0.00  0.00    +0.000 A 
ATOM     12  C   UNL     1      36.325  -0.926  15.766  0.00  0.00    +0.000 A 
ATOM     13  N   UNL     1      37.406  -0.669  15.010  0.00  0.00    +0.000 NA
ATOM     14  C   UNL     1      37.910   0.574  14.903  0.00  0.00    +0.000 A 
ENDROOT
BRANCH   1  18
ATOM     15  C   UNL     1      41.459  -1.309  11.809  0.00  0.00    +0.000 A 
ATOM     16  C   UNL     1      41.798  -1.040  13.130  0.00  0.00    +0.000 A 
ATOM     17  C   UNL     1      40.972  -0.248  13.913  0.00  0.00    +0.000 A 
ATOM     18  C   UNL     1      39.804   0.291  13.415  0.00  0.00    +0.000 A 
ATOM     19  C   UNL     1      39.498   0.000  12.089  0.00  0.00    +0.000 A 
ATOM     20  C   UNL     1      40.305  -0.781  11.307  0.00  0.00    +0.000 A 
BRANCH  15  21
ATOM     21  O   UNL     1      42.326  -2.104  11.087  0.00  0.00    +0.000 OA
BRANCH  21  23
ATOM     22  C   UNL     1      41.585  -3.930   9.719  0.00  0.00    +0.000 C 
ATOM     23  C   UNL     1      42.190  -3.512  11.058  0.00  0.00    +0.000 C 
ENDBRANCH  21  23
ENDBRANCH  15  21
ENDBRANCH   1  18
BRANCH   4  24
ATOM     24  C   UNL     1      37.662   4.107  15.865  0.00  0.00    +0.000 C 
ATOM     25  O   UNL     1      37.186   4.926  15.059  0.00  0.00    +0.000 OA
BRANCH  24  26
ATOM     26  O   UNL     1      37.848   4.509  17.131  0.00  0.00    +0.000 OA
BRANCH  26  27
ATOM     27  C   UNL     1      38.789   4.754  17.984  0.00  0.00    +0.000 C 
BRANCH  27  28
ATOM     28  C   UNL     1      39.534   6.175  18.002  0.00  0.00    +0.000 C 
ATOM     29  C   UNL     1      38.233   7.056  18.429  0.00  0.00    +0.000 C 
BRANCH  28  30
ATOM     30  C   UNL     1      40.142   6.124  19.535  0.00  0.00    +0.000 C 
ATOM     31  C   UNL     1      39.396   7.268  20.173  0.00  0.00    +0.000 C 
ENDBRANCH  28  30
ENDBRANCH  27  28
ENDBRANCH  26  27
ENDBRANCH  24  26
ENDBRANCH   4  24
TORSDOF 8
ENDMDL
MODEL 6
REMARK VINA RESULT:      -6.5      4.055      6.127
REMARK  Name = 
REMARK  8 active torsions:
REMARK  status: ('A' for Active; 'I' for Inactive)
REMARK    1  A    between atoms: C_2  and  O_3
REMARK    2  A    between atoms: O_3  and  C_4
REMARK    3  A    between atoms: C_7  and  N_8
REMARK    4  A    between atoms: C_11  and  C_12
REMARK    5  A    between atoms: C_12  and  O_14
REMARK    6  A    between atoms: O_14  and  C_15
REMARK    7  A    between atoms: C_15  and  C_16
REMARK    8  A    between atoms: C_16  and  C_18
REMARK                            x       y       z     vdW  Elec       q    Type
REMARK                         _______ _______ _______ _____ _____    ______ ____
ROOT
ATOM      1  N   UNL     1      38.562  -0.276  14.065  0.00  0.00    +0.000 N 
ATOM      2  C   UNL     1      37.833   0.811  13.779  0.00  0.00    +0.000 A 
ATOM      3  N   UNL     1      37.876   1.497  12.545  0.00  0.00    +0.000 NA
ATOM      4  C   UNL     1      37.039   1.158  14.866  0.00  0.00    +0.000 A 
ATOM      5  C   UNL     1      37.330   0.217  15.828  0.00  0.00    +0.000 A 
ATOM      6  N   UNL     1      36.860   0.052  17.087  0.00  0.00    +0.000 NA
ATOM      7  C   UNL     1      37.282  -0.946  17.868  0.00  0.00    +0.000 A 
ATOM      8  C   UNL     1      36.787  -1.098  19.160  0.00  0.00    +0.000 A 
ATOM      9  C   UNL     1      37.247  -2.146  19.946  0.00  0.00    +0.000 A 
ATOM     10  C   UNL     1      38.189  -3.024  19.434  0.00  0.00    +0.000 A 
ATOM     11  C   UNL     1      38.669  -2.861  18.155  0.00  0.00    +0.000 A 
ATOM     12  C   UNL     1      38.211  -1.819  17.377  0.00  0.00    +0.000 A 
ATOM     13  N   UNL     1      38.682  -1.662  16.129  0.00  0.00    +0.000 NA
ATOM     14  C   UNL     1      38.259  -0.658  15.339  0.00  0.00    +0.000 A 
ENDROOT
BRANCH   1  18
ATOM     15  C   UNL     1      41.362  -2.407  11.729  0.00  0.00    +0.000 A 
ATOM     16  C   UNL     1      41.786  -1.466  12.660  0.00  0.00    +0.000 A 
ATOM     17  C   UNL     1      40.858  -0.772  13.421  0.00  0.00    +0.000 A 
ATOM     18  C   UNL     1      39.502  -0.990  13.283  0.00  0.00    +0.000 A 
ATOM     19  C   UNL     1      39.116  -1.940  12.342  0.00  0.00    +0.000 A 
ATOM     20  C   UNL     1      40.023  -2.630  11.585  0.00  0.00    +0.000 A 
BRANCH  15  21
ATOM     21  O   UNL     1      42.339  -3.060  11.005  0.00  0.00    +0.000 OA
BRANCH  21  23
ATOM     22  C   UNL     1      44.402  -3.938  11.856  0.00  0.00    +0.000 C 
ATOM     23  C   UNL     1      43.711  -2.759  11.174  0.00  0.00    +0.000 C 
ENDBRANCH  21  23
ENDBRANCH  15  21
ENDBRANCH   1  18
BRANCH   4  24
ATOM     24  C   UNL     1      36.096   2.284  14.965  0.00  0.00    +0.000 C 
ATOM     25  O   UNL     1      34.926   2.063  14.604  0.00  0.00    +0.000 OA
BRANCH  24  26
ATOM     26  O   UNL     1      36.393   3.513  15.408  0.00  0.00    +0.000 OA
BRANCH  26  27
ATOM     27  C   UNL     1      37.336   4.398  15.374  0.00  0.00    +0.000 C 
BRANCH  27  28
ATOM     28  C   UNL     1      38.617   4.273  16.333  0.00  0.00    +0.000 C 
ATOM     29  C   UNL     1      39.645   5.087  15.368  0.00  0.00    +0.000 C 
BRANCH  28  30
ATOM     30  C   UNL     1      38.330   5.570  17.311  0.00  0.00    +0.000 C 
ATOM     31  C   UNL     1      39.088   5.162  18.550  0.00  0.00    +0.000 C 
ENDBRANCH  28  30
ENDBRANCH  27  28
ENDBRANCH  26  27
ENDBRANCH  24  26
ENDBRANCH   4  24
TORSDOF 8
ENDMDL
MODEL 7
REMARK VINA RESULT:      -6.5      4.167      6.906
REMARK  Name = 
REMARK  8 active torsions:
REMARK  status: ('A' for Active; 'I' for Inactive)
REMARK    1  A    between atoms: C_2  and  O_3
REMARK    2  A    between atoms: O_3  and  C_4
REMARK    3  A    between atoms: C_7  and  N_8
REMARK    4  A    between atoms: C_11  and  C_12
REMARK    5  A    between atoms: C_12  and  O_14
REMARK    6  A    between atoms: O_14  and  C_15
REMARK    7  A    between atoms: C_15  and  C_16
REMARK    8  A    between atoms: C_16  and  C_18
REMARK                            x       y       z     vdW  Elec       q    Type
REMARK                         _______ _______ _______ _____ _____    ______ ____
ROOT
ATOM      1  N   UNL     1      37.606   2.167  14.451  0.00  0.00    +0.000 N 
ATOM      2  C   UNL     1      37.322   2.580  13.208  0.00  0.00    +0.000 A 
ATOM      3  N   UNL     1      36.988   1.720  12.139  0.00  0.00    +0.000 NA
ATOM      4  C   UNL     1      37.405   3.966  13.131  0.00  0.00    +0.000 A 
ATOM      5  C   UNL     1      37.757   4.367  14.400  0.00  0.00    +0.000 A 
ATOM      6  N   UNL     1      37.978   5.599  14.918  0.00  0.00    +0.000 NA
ATOM      7  C   UNL     1      38.316   5.771  16.199  0.00  0.00    +0.000 A 
ATOM      8  C   UNL     1      38.540   7.045  16.712  0.00  0.00    +0.000 A 
ATOM      9  C   UNL     1      38.889   7.188  18.048  0.00  0.00    +0.000 A 
ATOM     10  C   UNL     1      39.008   6.065  18.850  0.00  0.00    +0.000 A 
ATOM     11  C   UNL     1      38.783   4.812  18.328  0.00  0.00    +0.000 A 
ATOM     12  C   UNL     1      38.437   4.672  17.001  0.00  0.00    +0.000 A 
ATOM     13  N   UNL     1      38.218   3.447  16.495  0.00  0.00    +0.000 NA
ATOM     14  C   UNL     1      37.879   3.270  15.205  0.00  0.00    +0.000 A 
ENDROOT
BRANCH   1  18
ATOM     15  C   UNL     1      37.727  -1.719  16.100  0.00  0.00    +0.000 A 
ATOM     16  C   UNL     1      38.839  -1.188  15.456  0.00  0.00    +0.000 A 
ATOM     17  C   UNL     1      38.788   0.089  14.918  0.00  0.00    +0.000 A 
ATOM     18  C   UNL     1      37.649   0.864  15.004  0.00  0.00    +0.000 A 
ATOM     19  C   UNL     1      36.557   0.298  15.655  0.00  0.00    +0.000 A 
ATOM     20  C   UNL     1      36.596  -0.961  16.189  0.00  0.00    +0.000 A 
BRANCH  15  21
ATOM     21  O   UNL     1      37.848  -2.996  16.611  0.00  0.00    +0.000 OA
BRANCH  21  23
ATOM     22  C   UNL     1      38.449  -2.644  18.906  0.00  0.00    +0.000 C 
ATOM     23  C   UNL     1      38.823  -3.314  17.585  0.00  0.00    +0.000 C 
ENDBRANCH  21  23
ENDBRANCH  15  21
ENDBRANCH   1  18
BRANCH   4  24
ATOM     24  C   UNL     1      37.170   4.814  11.952  0.00  0.00    +0.000 C 
ATOM     25  O   UNL     1      38.128   4.965  11.173  0.00  0.00    +0.000 OA
BRANCH  24  26
ATOM     26  O   UNL     1      36.017   5.431  11.653  0.00  0.00    +0.000 OA
BRANCH  26  27
ATOM     27  C   UNL     1      35.190   6.307  12.123  0.00  0.00    +0.000 C 
BRANCH  27  28
ATOM     28  C   UNL     1      35.721   7.662  12.798  0.00  0.00    +0.000 C 
ATOM     29  C   UNL     1      34.543   8.626  12.222  0.00  0.00    +0.000 C 
BRANCH  28  30
ATOM     30  C   UNL     1      35.018   7.500  14.282  0.00  0.00    +0.000 C 
ATOM     31  C   UNL     1      33.647   7.005  13.892  0.00  0.00    +0.000 C 
ENDBRANCH  28  30
ENDBRANCH  27  28
ENDBRANCH  26  27
ENDBRANCH  24  26
ENDBRANCH   4  24
TORSDOF 8
ENDMDL
MODEL 8
REMARK VINA RESULT:      -6.3      4.600      9.778
REMARK  Name = 
REMARK  8 active torsions:
REMARK  status: ('A' for Active; 'I' for Inactive)
REMARK    1  A    between atoms: C_2  and  O_3
REMARK    2  A    between atoms: O_3  and  C_4
REMARK    3  A    between atoms: C_7  and  N_8
REMARK    4  A    between atoms: C_11  and  C_12
REMARK    5  A    between atoms: C_12  and  O_14
REMARK    6  A    between atoms: O_14  and  C_15
REMARK    7  A    between atoms: C_15  and  C_16
REMARK    8  A    between atoms: C_16  and  C_18
REMARK                            x       y       z     vdW  Elec       q    Type
REMARK                         _______ _______ _______ _____ _____    ______ ____
ROOT
ATOM      1  N   UNL     1      38.166   4.600  16.087  0.00  0.00    +0.000 N 
ATOM      2  C   UNL     1      38.458   4.737  14.787  0.00  0.00    +0.000 A 
ATOM      3  N   UNL     1      39.143   5.843  14.237  0.00  0.00    +0.000 NA
ATOM      4  C   UNL     1      37.992   3.642  14.070  0.00  0.00    +0.000 A 
ATOM      5  C   UNL     1      37.399   2.832  15.013  0.00  0.00    +0.000 A 
ATOM      6  N   UNL     1      36.778   1.634  14.898  0.00  0.00    +0.000 NA
ATOM      7  C   UNL     1      36.263   1.007  15.959  0.00  0.00    +0.000 A 
ATOM      8  C   UNL     1      35.628  -0.224  15.821  0.00  0.00    +0.000 A 
ATOM      9  C   UNL     1      35.104  -0.850  16.944  0.00  0.00    +0.000 A 
ATOM     10  C   UNL     1      35.221  -0.242  18.184  0.00  0.00    +0.000 A 
ATOM     11  C   UNL     1      35.852   0.974  18.305  0.00  0.00    +0.000 A 
ATOM     12  C   UNL     1      36.371   1.594  17.188  0.00  0.00    +0.000 A 
ATOM     13  N   UNL     1      36.987   2.781  17.310  0.00  0.00    +0.000 NA
ATOM     14  C   UNL     1      37.506   3.416  16.243  0.00  0.00    +0.000 A 
ENDROOT
BRANCH   1  18
ATOM     15  C   UNL     1      38.963   7.131  19.372  0.00  0.00    +0.000 A 
ATOM     16  C   UNL     1      39.573   5.886  19.273  0.00  0.00    +0.000 A 
ATOM     17  C   UNL     1      39.304   5.063  18.190  0.00  0.00    +0.000 A 
ATOM     18  C   UNL     1      38.435   5.447  17.189  0.00  0.00    +0.000 A 
ATOM     19  C   UNL     1      37.844   6.700  17.323  0.00  0.00    +0.000 A 
ATOM     20  C   UNL     1      38.102   7.521  18.388  0.00  0.00    +0.000 A 
BRANCH  15  21
ATOM     21  O   UNL     1      39.277   7.898  20.476  0.00  0.00    +0.000 OA
BRANCH  21  23
ATOM     22  C   UNL     1      38.530  10.084  21.122  0.00  0.00    +0.000 C 
ATOM     23  C   UNL     1      39.579   9.275  20.360  0.00  0.00    +0.000 C 
ENDBRANCH  21  23
ENDBRANCH  15  21
ENDBRANCH   1  18
BRANCH   4  24
ATOM     24  C   UNL     1      38.107   3.401  12.622  0.00  0.00    +0.000 C 
ATOM     25  O   UNL     1      37.391   4.101  11.883  0.00  0.00    +0.000 OA
BRANCH  24  26
ATOM     26  O   UNL     1      38.912   2.499  12.043  0.00  0.00    +0.000 OA
BRANCH  26  27
ATOM     27  C   UNL     1      39.204   1.239  12.074  0.00  0.00    +0.000 C 
BRANCH  27  28
ATOM     28  C   UNL     1      40.652   0.742  12.556  0.00  0.00    +0.000 C 
ATOM     29  C   UNL     1      41.412   2.165  12.344  0.00  0.00    +0.000 C 
BRANCH  28  30
ATOM     30  C   UNL     1      40.466   0.954  14.181  0.00  0.00    +0.000 C 
ATOM     31  C   UNL     1      39.736  -0.313  14.550  0.00  0.00    +0.000 C 
ENDBRANCH  28  30
ENDBRANCH  27  28
ENDBRANCH  26  27
ENDBRANCH  24  26
ENDBRANCH   4  24
TORSDOF 8
ENDMDL
MODEL 9
REMARK VINA RESULT:      -6.3     28.893     30.561
REMARK  Name = 
REMARK  8 active torsions:
REMARK  status: ('A' for Active; 'I' for Inactive)
REMARK    1  A    between atoms: C_2  and  O_3
REMARK    2  A    between atoms: O_3  and  C_4
REMARK    3  A    between atoms: C_7  and  N_8
REMARK    4  A    between atoms: C_11  and  C_12
REMARK    5  A    between atoms: C_12  and  O_14
REMARK    6  A    between atoms: O_14  and  C_15
REMARK    7  A    between atoms: C_15  and  C_16
REMARK    8  A    between atoms: C_16  and  C_18
REMARK                            x       y       z     vdW  Elec       q    Type
REMARK                         _______ _______ _______ _____ _____    ______ ____
ROOT
ATOM      1  N   UNL     1      26.215  15.243  37.891  0.00  0.00    +0.000 N 
ATOM      2  C   UNL     1      25.492  14.654  38.852  0.00  0.00    +0.000 A 
ATOM      3  N   UNL     1      24.082  14.567  38.849  0.00  0.00    +0.000 NA
ATOM      4  C   UNL     1      26.326  14.147  39.841  0.00  0.00    +0.000 A 
ATOM      5  C   UNL     1      27.599  14.464  39.422  0.00  0.00    +0.000 A 
ATOM      6  N   UNL     1      28.809  14.223  39.980  0.00  0.00    +0.000 NA
ATOM      7  C   UNL     1      29.942  14.624  39.397  0.00  0.00    +0.000 A 
ATOM      8  C   UNL     1      31.177  14.367  39.986  0.00  0.00    +0.000 A 
ATOM      9  C   UNL     1      32.336  14.797  39.354  0.00  0.00    +0.000 A 
ATOM     10  C   UNL     1      32.248  15.473  38.148  0.00  0.00    +0.000 A 
ATOM     11  C   UNL     1      31.020  15.719  37.578  0.00  0.00    +0.000 A 
ATOM     12  C   UNL     1      29.871  15.292  38.207  0.00  0.00    +0.000 A 
ATOM     13  N   UNL     1      28.674  15.534  37.648  0.00  0.00    +0.000 NA
ATOM     14  C   UNL     1      27.531  15.132  38.232  0.00  0.00    +0.000 A 
ENDROOT
BRANCH   1  18
ATOM     15  C   UNL     1      25.015  17.183  34.337  0.00  0.00    +0.000 A 
ATOM     16  C   UNL     1      25.443  15.861  34.312  0.00  0.00    +0.000 A 
ATOM     17  C   UNL     1      25.835  15.234  35.485  0.00  0.00    +0.000 A 
ATOM     18  C   UNL     1      25.812  15.892  36.698  0.00  0.00    +0.000 A 
ATOM     19  C   UNL     1      25.378  17.214  36.683  0.00  0.00    +0.000 A 
ATOM     20  C   UNL     1      24.989  17.843  35.532  0.00  0.00    +0.000 A 
BRANCH  15  21
ATOM     21  O   UNL     1      24.640  17.745  33.133  0.00  0.00    +0.000 OA
BRANCH  21  23
ATOM     22  C   UNL     1      23.234  19.308  31.979  0.00  0.00    +0.000 C 
ATOM     23  C   UNL     1      24.334  19.122  33.021  0.00  0.00    +0.000 C 
ENDBRANCH  21  23
ENDBRANCH  15  21
ENDBRANCH   1  18
BRANCH   4  24
ATOM     24  C   UNL     1      25.936  13.430  41.066  0.00  0.00    +0.000 C 
ATOM     25  O   UNL     1      25.580  14.129  42.031  0.00  0.00    +0.000 OA
BRANCH  24  26
ATOM     26  O   UNL     1      25.931  12.098  41.222  0.00  0.00    +0.000 OA
BRANCH  26  27
ATOM     27  C   UNL     1      26.608  11.144  41.774  0.00  0.00    +0.000 C 
BRANCH  27  28
ATOM     28  C   UNL     1      27.175   9.924  40.900  0.00  0.00    +0.000 C 
ATOM     29  C   UNL     1      28.619  10.597  40.566  0.00  0.00    +0.000 C 
BRANCH  28  30
ATOM     30  C   UNL     1      27.767   8.988  42.123  0.00  0.00    +0.000 C 
ATOM     31  C   UNL     1      26.847   7.796  42.037  0.00  0.00    +0.000 C 
ENDBRANCH  28  30
ENDBRANCH  27  28
ENDBRANCH  26  27
ENDBRANCH  24  26
ENDBRANCH   4  24
TORSDOF 8
ENDMDL
MODEL 10
REMARK VINA RESULT:      -6.3      5.429     10.774
REMARK  Name = 
REMARK  8 active torsions:
REMARK  status: ('A' for Active; 'I' for Inactive)
REMARK    1  A    between atoms: C_2  and  O_3
REMARK    2  A    between atoms: O_3  and  C_4
REMARK    3  A    between atoms: C_7  and  N_8
REMARK    4  A    between atoms: C_11  and  C_12
REMARK    5  A    between atoms: C_12  and  O_14
REMARK    6  A    between atoms: O_14  and  C_15
REMARK    7  A    between atoms: C_15  and  C_16
REMARK    8  A    between atoms: C_16  and  C_18
REMARK                            x       y       z     vdW  Elec       q    Type
REMARK                         _______ _______ _______ _____ _____    ______ ____
ROOT
ATOM      1  N   UNL     1      38.459   5.541  16.135  0.00  0.00    +0.000 N 
ATOM      2  C   UNL     1      38.253   4.387  15.487  0.00  0.00    +0.000 A 
ATOM      3  N   UNL     1      38.969   3.194  15.736  0.00  0.00    +0.000 NA
ATOM      4  C   UNL     1      37.243   4.537  14.544  0.00  0.00    +0.000 A 
ATOM      5  C   UNL     1      36.849   5.851  14.659  0.00  0.00    +0.000 A 
ATOM      6  N   UNL     1      35.905   6.562  13.999  0.00  0.00    +0.000 NA
ATOM      7  C   UNL     1      35.678   7.850  14.270  0.00  0.00    +0.000 A 
ATOM      8  C   UNL     1      34.703   8.564  13.579  0.00  0.00    +0.000 A 
ATOM      9  C   UNL     1      34.493   9.901  13.886  0.00  0.00    +0.000 A 
ATOM     10  C   UNL     1      35.254  10.505  14.874  0.00  0.00    +0.000 A 
ATOM     11  C   UNL     1      36.214   9.787  15.548  0.00  0.00    +0.000 A 
ATOM     12  C   UNL     1      36.421   8.459  15.241  0.00  0.00    +0.000 A 
ATOM     13  N   UNL     1      37.360   7.761  15.901  0.00  0.00    +0.000 NA
ATOM     14  C   UNL     1      37.591   6.463  15.630  0.00  0.00    +0.000 A 
ENDROOT
BRANCH   1  18
ATOM     15  C   UNL     1      41.184   6.528  19.207  0.00  0.00    +0.000 A 
ATOM     16  C   UNL     1      39.868   6.196  19.507  0.00  0.00    +0.000 A 
ATOM     17  C   UNL     1      38.982   5.873  18.490  0.00  0.00    +0.000 A 
ATOM     18  C   UNL     1      39.372   5.871  17.167  0.00  0.00    +0.000 A 
ATOM     19  C   UNL     1      40.696   6.209  16.905  0.00  0.00    +0.000 A 
ATOM     20  C   UNL     1      41.579   6.529  17.901  0.00  0.00    +0.000 A 
BRANCH  15  21
ATOM     21  O   UNL     1      42.011   6.839  20.267  0.00  0.00    +0.000 OA
BRANCH  21  23
ATOM     22  C   UNL     1      43.754   5.854  21.588  0.00  0.00    +0.000 C 
ATOM     23  C   UNL     1      43.386   6.505  20.257  0.00  0.00    +0.000 C 
ENDBRANCH  21  23
ENDBRANCH  15  21
ENDBRANCH   1  18
BRANCH   4  24
ATOM     24  C   UNL     1      36.713   3.516  13.626  0.00  0.00    +0.000 C 
ATOM     25  O   UNL     1      37.245   3.447  12.503  0.00  0.00    +0.000 OA
BRANCH  24  26
ATOM     26  O   UNL     1      35.714   2.665  13.899  0.00  0.00    +0.000 OA
BRANCH  26  27
ATOM     27  C   UNL     1      35.175   2.025  14.886  0.00  0.00    +0.000 C 
BRANCH  27  28
ATOM     28  C   UNL     1      36.083   1.286  15.983  0.00  0.00    +0.000 C 
ATOM     29  C   UNL     1      34.855   0.766  16.915  0.00  0.00    +0.000 C 
BRANCH  28  30
ATOM     30  C   UNL     1      36.270  -0.165  15.222  0.00  0.00    +0.000 C 
ATOM     31  C   UNL     1      37.750  -0.145  14.933  0.00  0.00    +0.000 C 
ENDBRANCH  28  30
ENDBRANCH  27  28
ENDBRANCH  26  27
ENDBRANCH  24  26
ENDBRANCH   4  24
TORSDOF 8
ENDMDL
