MODEL 1
REMARK VINA RESULT:      -5.9      0.000      0.000
REMARK  Name = 
REMARK  5 active torsions:
REMARK  status: ('A' for Active; 'I' for Inactive)
REMARK    1  A    between atoms: C_2  and  C_3
REMARK    2  A    between atoms: C_3  and  C_4
REMARK    3  A    between atoms: C_4  and  C_5
REMARK    4  A    between atoms: C_5  and  C_6
REMARK    5  A    between atoms: N_12  and  C_13
REMARK                            x       y       z     vdW  Elec       q    Type
REMARK                         _______ _______ _______ _____ _____    ______ ____
ROOT
ATOM      1  C   UNL     1      29.044  23.398  22.711  0.00  0.00    +0.000 C 
ATOM      2  C   UNL     1      29.339  24.783  21.946  0.00  0.00    +0.000 C 
ATOM      3  O   UNL     1      29.622  24.570  20.736  0.00  0.00    +0.000 OA
ATOM      4  N   UNL     1      29.261  25.969  22.615  0.00  0.00    +0.000 NA
ATOM      5  C   UNL     1      28.346  26.162  23.685  0.00  0.00    +0.000 C 
ATOM      6  S   UNL     1      28.240  27.564  24.485  0.00  0.00    +0.000 S 
ATOM      7  N   UNL     1      27.517  25.053  24.024  0.00  0.00    +0.000 N 
ATOM      8  C   UNL     1      27.634  23.864  23.323  0.00  0.00    +0.000 C 
ATOM      9  O   UNL     1      26.679  23.058  23.103  0.00  0.00    +0.000 OA
ENDROOT
BRANCH   7  10
ATOM     10  C   UNL     1      26.528  25.110  25.062  0.00  0.00    +0.000 A 
ATOM     11  C   UNL     1      25.321  25.730  24.865  0.00  0.00    +0.000 A 
ATOM     12  C   UNL     1      24.377  25.739  25.895  0.00  0.00    +0.000 A 
ATOM     13  C   UNL     1      24.661  25.131  27.098  0.00  0.00    +0.000 A 
ATOM     14  C   UNL     1      25.858  24.522  27.278  0.00  0.00    +0.000 A 
ATOM     15  C   UNL     1      26.774  24.519  26.262  0.00  0.00    +0.000 A 
ENDBRANCH   7  10
BRANCH   1  16
ATOM     16  C   UNL     1      29.967  23.750  24.019  0.00  0.00    +0.000 C 
BRANCH  16  17
ATOM     17  C   UNL     1      30.187  22.410  24.676  0.00  0.00    +0.000 C 
BRANCH  17  18
ATOM     18  C   UNL     1      30.920  22.674  26.002  0.00  0.00    +0.000 C 
BRANCH  18  20
ATOM     19  C   UNL     1      29.625  22.853  28.147  0.00  0.00    +0.000 C 
ATOM     20  C   UNL     1      30.116  21.933  27.054  0.00  0.00    +0.000 C 
ENDBRANCH  18  20
ENDBRANCH  17  18
ENDBRANCH  16  17
ENDBRANCH   1  16
TORSDOF 5
ENDMDL
MODEL 2
REMARK VINA RESULT:      -5.8      2.574      5.551
REMARK  Name = 
REMARK  5 active torsions:
REMARK  status: ('A' for Active; 'I' for Inactive)
REMARK    1  A    between atoms: C_2  and  C_3
REMARK    2  A    between atoms: C_3  and  C_4
REMARK    3  A    between atoms: C_4  and  C_5
REMARK    4  A    between atoms: C_5  and  C_6
REMARK    5  A    between atoms: N_12  and  C_13
REMARK                            x       y       z     vdW  Elec       q    Type
REMARK                         _______ _______ _______ _____ _____    ______ ____
ROOT
ATOM      1  C   UNL     1      27.322  24.741  21.819  0.00  0.00    +0.000 C 
ATOM      2  C   UNL     1      26.485  23.638  22.639  0.00  0.00    +0.000 C 
ATOM      3  O   UNL     1      25.708  23.008  21.871  0.00  0.00    +0.000 OA
ATOM      4  N   UNL     1      26.674  23.489  23.981  0.00  0.00    +0.000 NA
ATOM      5  C   UNL     1      27.939  23.725  24.587  0.00  0.00    +0.000 C 
ATOM      6  S   UNL     1      28.179  23.549  26.177  0.00  0.00    +0.000 S 
ATOM      7  N   UNL     1      28.997  24.127  23.719  0.00  0.00    +0.000 N 
ATOM      8  C   UNL     1      28.759  24.273  22.362  0.00  0.00    +0.000 C 
ATOM      9  O   UNL     1      29.615  24.060  21.451  0.00  0.00    +0.000 OA
ENDROOT
BRANCH   7  10
ATOM     10  C   UNL     1      30.332  24.372  24.183  0.00  0.00    +0.000 A 
ATOM     11  C   UNL     1      31.243  23.354  24.306  0.00  0.00    +0.000 A 
ATOM     12  C   UNL     1      32.540  23.643  24.737  0.00  0.00    +0.000 A 
ATOM     13  C   UNL     1      32.897  24.939  25.037  0.00  0.00    +0.000 A 
ATOM     14  C   UNL     1      31.986  25.933  24.910  0.00  0.00    +0.000 A 
ATOM     15  C   UNL     1      30.719  25.640  24.487  0.00  0.00    +0.000 A 
ENDBRANCH   7  10
BRANCH   1  16
ATOM     16  C   UNL     1      27.073  25.951  22.897  0.00  0.00    +0.000 C 
BRANCH  16  17
ATOM     17  C   UNL     1      27.242  27.205  22.077  0.00  0.00    +0.000 C 
BRANCH  17  18
ATOM     18  C   UNL     1      28.554  27.866  22.531  0.00  0.00    +0.000 C 
BRANCH  18  20
ATOM     19  C   UNL     1      29.506  27.368  20.261  0.00  0.00    +0.000 C 
ATOM     20  C   UNL     1      29.167  28.441  21.268  0.00  0.00    +0.000 C 
ENDBRANCH  18  20
ENDBRANCH  17  18
ENDBRANCH  16  17
ENDBRANCH   1  16
TORSDOF 5
ENDMDL
MODEL 3
REMARK VINA RESULT:      -5.6      2.330      5.035
REMARK  Name = 
REMARK  5 active torsions:
REMARK  status: ('A' for Active; 'I' for Inactive)
REMARK    1  A    between atoms: C_2  and  C_3
REMARK    2  A    between atoms: C_3  and  C_4
REMARK    3  A    between atoms: C_4  and  C_5
REMARK    4  A    between atoms: C_5  and  C_6
REMARK    5  A    between atoms: N_12  and  C_13
REMARK                            x       y       z     vdW  Elec       q    Type
REMARK                         _______ _______ _______ _____ _____    ______ ____
ROOT
ATOM      1  C   UNL     1      27.156  23.937  22.705  0.00  0.00    +0.000 C 
ATOM      2  C   UNL     1      25.832  23.277  23.340  0.00  0.00    +0.000 C 
ATOM      3  O   UNL     1      25.162  22.683  22.452  0.00  0.00    +0.000 OA
ATOM      4  N   UNL     1      25.571  23.406  24.672  0.00  0.00    +0.000 NA
ATOM      5  C   UNL     1      26.616  23.477  25.632  0.00  0.00    +0.000 C 
ATOM      6  S   UNL     1      26.322  23.626  27.216  0.00  0.00    +0.000 S 
ATOM      7  N   UNL     1      27.949  23.412  25.131  0.00  0.00    +0.000 N 
ATOM      8  C   UNL     1      28.169  23.289  23.768  0.00  0.00    +0.000 C 
ATOM      9  O   UNL     1      29.151  22.679  23.248  0.00  0.00    +0.000 OA
ENDROOT
BRANCH   7  10
ATOM     10  C   UNL     1      29.103  23.444  25.984  0.00  0.00    +0.000 A 
ATOM     11  C   UNL     1      29.753  24.619  26.262  0.00  0.00    +0.000 A 
ATOM     12  C   UNL     1      30.856  24.607  27.118  0.00  0.00    +0.000 A 
ATOM     13  C   UNL     1      31.287  23.422  27.675  0.00  0.00    +0.000 A 
ATOM     14  C   UNL     1      30.634  22.270  27.391  0.00  0.00    +0.000 A 
ATOM     15  C   UNL     1      29.554  22.293  26.552  0.00  0.00    +0.000 A 
ENDBRANCH   7  10
BRANCH   1  16
ATOM     16  C   UNL     1      26.971  25.388  23.445  0.00  0.00    +0.000 C 
BRANCH  16  17
ATOM     17  C   UNL     1      28.172  26.179  22.990  0.00  0.00    +0.000 C 
BRANCH  17  18
ATOM     18  C   UNL     1      28.014  26.405  21.477  0.00  0.00    +0.000 C 
BRANCH  18  20
ATOM     19  C   UNL     1      29.778  26.971  19.780  0.00  0.00    +0.000 C 
ATOM     20  C   UNL     1      29.355  26.023  20.878  0.00  0.00    +0.000 C 
ENDBRANCH  18  20
ENDBRANCH  17  18
ENDBRANCH  16  17
ENDBRANCH   1  16
TORSDOF 5
ENDMDL
MODEL 4
REMARK VINA RESULT:      -5.5      1.115      1.921
REMARK  Name = 
REMARK  5 active torsions:
REMARK  status: ('A' for Active; 'I' for Inactive)
REMARK    1  A    between atoms: C_2  and  C_3
REMARK    2  A    between atoms: C_3  and  C_4
REMARK    3  A    between atoms: C_4  and  C_5
REMARK    4  A    between atoms: C_5  and  C_6
REMARK    5  A    between atoms: N_12  and  C_13
REMARK                            x       y       z     vdW  Elec       q    Type
REMARK                         _______ _______ _______ _____ _____    ______ ____
ROOT
ATOM      1  C   UNL     1      28.527  23.124  23.289  0.00  0.00    +0.000 C 
ATOM      2  C   UNL     1      29.046  24.415  22.479  0.00  0.00    +0.000 C 
ATOM      3  O   UNL     1      29.451  24.085  21.331  0.00  0.00    +0.000 OA
ATOM      4  N   UNL     1      29.006  25.650  23.055  0.00  0.00    +0.000 NA
ATOM      5  C   UNL     1      27.992  26.006  23.985  0.00  0.00    +0.000 C 
ATOM      6  S   UNL     1      27.930  27.469  24.673  0.00  0.00    +0.000 S 
ATOM      7  N   UNL     1      27.023  25.005  24.288  0.00  0.00    +0.000 N 
ATOM      8  C   UNL     1      27.106  23.759  23.685  0.00  0.00    +0.000 C 
ATOM      9  O   UNL     1      26.111  23.028  23.399  0.00  0.00    +0.000 OA
ENDROOT
BRANCH   7  10
ATOM     10  C   UNL     1      25.927  25.229  25.186  0.00  0.00    +0.000 A 
ATOM     11  C   UNL     1      25.929  24.715  26.457  0.00  0.00    +0.000 A 
ATOM     12  C   UNL     1      24.852  24.981  27.307  0.00  0.00    +0.000 A 
ATOM     13  C   UNL     1      23.799  25.751  26.867  0.00  0.00    +0.000 A 
ATOM     14  C   UNL     1      23.812  26.253  25.609  0.00  0.00    +0.000 A 
ATOM     15  C   UNL     1      24.871  25.987  24.786  0.00  0.00    +0.000 A 
ENDBRANCH   7  10
BRANCH   1  16
ATOM     16  C   UNL     1      29.317  23.491  24.678  0.00  0.00    +0.000 C 
BRANCH  16  17
ATOM     17  C   UNL     1      30.325  22.379  24.824  0.00  0.00    +0.000 C 
BRANCH  17  18
ATOM     18  C   UNL     1      31.557  22.978  25.523  0.00  0.00    +0.000 C 
BRANCH  18  20
ATOM     19  C   UNL     1      33.475  24.512  24.996  0.00  0.00    +0.000 C 
ATOM     20  C   UNL     1      32.203  23.877  24.486  0.00  0.00    +0.000 C 
ENDBRANCH  18  20
ENDBRANCH  17  18
ENDBRANCH  16  17
ENDBRANCH   1  16
TORSDOF 5
ENDMDL
MODEL 5
REMARK VINA RESULT:      -5.4     13.029     14.647
REMARK  Name = 
REMARK  5 active torsions:
REMARK  status: ('A' for Active; 'I' for Inactive)
REMARK    1  A    between atoms: C_2  and  C_3
REMARK    2  A    between atoms: C_3  and  C_4
REMARK    3  A    between atoms: C_4  and  C_5
REMARK    4  A    between atoms: C_5  and  C_6
REMARK    5  A    between atoms: N_12  and  C_13
REMARK                            x       y       z     vdW  Elec       q    Type
REMARK                         _______ _______ _______ _____ _____    ______ ____
ROOT
ATOM      1  C   UNL     1      33.423  19.993  11.002  0.00  0.00    +0.000 C 
ATOM      2  C   UNL     1      33.374  19.973   9.394  0.00  0.00    +0.000 C 
ATOM      3  O   UNL     1      33.871  18.903   8.948  0.00  0.00    +0.000 OA
ATOM      4  N   UNL     1      32.843  21.025   8.709  0.00  0.00    +0.000 NA
ATOM      5  C   UNL     1      31.776  21.799   9.241  0.00  0.00    +0.000 C 
ATOM      6  S   UNL     1      31.134  23.048   8.439  0.00  0.00    +0.000 S 
ATOM      7  N   UNL     1      31.294  21.421  10.529  0.00  0.00    +0.000 N 
ATOM      8  C   UNL     1      31.869  20.349  11.194  0.00  0.00    +0.000 C 
ATOM      9  O   UNL     1      31.250  19.576  11.986  0.00  0.00    +0.000 OA
ENDROOT
BRANCH   7  10
ATOM     10  C   UNL     1      30.206  22.092  11.179  0.00  0.00    +0.000 A 
ATOM     11  C   UNL     1      28.902  21.820  10.853  0.00  0.00    +0.000 A 
ATOM     12  C   UNL     1      27.873  22.477  11.530  0.00  0.00    +0.000 A 
ATOM     13  C   UNL     1      28.168  23.393  12.515  0.00  0.00    +0.000 A 
ATOM     14  C   UNL     1      29.461  23.651  12.827  0.00  0.00    +0.000 A 
ATOM     15  C   UNL     1      30.461  23.001  12.158  0.00  0.00    +0.000 A 
ENDBRANCH   7  10
BRANCH   1  16
ATOM     16  C   UNL     1      34.005  21.521  11.117  0.00  0.00    +0.000 C 
BRANCH  16  17
ATOM     17  C   UNL     1      35.476  21.326  11.384  0.00  0.00    +0.000 C 
BRANCH  17  18
ATOM     18  C   UNL     1      35.613  20.051  12.235  0.00  0.00    +0.000 C 
BRANCH  18  20
ATOM     19  C   UNL     1      36.702  19.919  14.494  0.00  0.00    +0.000 C 
ATOM     20  C   UNL     1      36.891  20.241  13.031  0.00  0.00    +0.000 C 
ENDBRANCH  18  20
ENDBRANCH  17  18
ENDBRANCH  16  17
ENDBRANCH   1  16
TORSDOF 5
ENDMDL
MODEL 6
REMARK VINA RESULT:      -5.3      1.593      2.361
REMARK  Name = 
REMARK  5 active torsions:
REMARK  status: ('A' for Active; 'I' for Inactive)
REMARK    1  A    between atoms: C_2  and  C_3
REMARK    2  A    between atoms: C_3  and  C_4
REMARK    3  A    between atoms: C_4  and  C_5
REMARK    4  A    between atoms: C_5  and  C_6
REMARK    5  A    between atoms: N_12  and  C_13
REMARK                            x       y       z     vdW  Elec       q    Type
REMARK                         _______ _______ _______ _____ _____    ______ ____
ROOT
ATOM      1  C   UNL     1      28.274  23.213  23.916  0.00  0.00    +0.000 C 
ATOM      2  C   UNL     1      27.259  24.058  22.995  0.00  0.00    +0.000 C 
ATOM      3  O   UNL     1      26.967  23.414  21.950  0.00  0.00    +0.000 OA
ATOM      4  N   UNL     1      26.835  25.291  23.392  0.00  0.00    +0.000 NA
ATOM      5  C   UNL     1      26.668  25.616  24.766  0.00  0.00    +0.000 C 
ATOM      6  S   UNL     1      26.162  27.074  25.251  0.00  0.00    +0.000 S 
ATOM      7  N   UNL     1      26.969  24.587  25.706  0.00  0.00    +0.000 N 
ATOM      8  C   UNL     1      27.405  23.350  25.259  0.00  0.00    +0.000 C 
ATOM      9  O   UNL     1      27.171  22.248  25.842  0.00  0.00    +0.000 OA
ENDROOT
BRANCH   7  10
ATOM     10  C   UNL     1      26.821  24.761  27.122  0.00  0.00    +0.000 A 
ATOM     11  C   UNL     1      25.611  24.581  27.741  0.00  0.00    +0.000 A 
ATOM     12  C   UNL     1      25.518  24.734  29.126  0.00  0.00    +0.000 A 
ATOM     13  C   UNL     1      26.634  25.067  29.861  0.00  0.00    +0.000 A 
ATOM     14  C   UNL     1      27.823  25.241  29.236  0.00  0.00    +0.000 A 
ATOM     15  C   UNL     1      27.903  25.087  27.880  0.00  0.00    +0.000 A 
ENDBRANCH   7  10
BRANCH   1  16
ATOM     16  C   UNL     1      29.296  24.463  24.198  0.00  0.00    +0.000 C 
BRANCH  16  17
ATOM     17  C   UNL     1      30.662  23.875  23.948  0.00  0.00    +0.000 C 
BRANCH  17  18
ATOM     18  C   UNL     1      30.738  22.562  24.746  0.00  0.00    +0.000 C 
BRANCH  18  20
ATOM     19  C   UNL     1      30.453  22.125  27.203  0.00  0.00    +0.000 C 
ATOM     20  C   UNL     1      31.129  22.975  26.152  0.00  0.00    +0.000 C 
ENDBRANCH  18  20
ENDBRANCH  17  18
ENDBRANCH  16  17
ENDBRANCH   1  16
TORSDOF 5
ENDMDL
MODEL 7
REMARK VINA RESULT:      -5.3     20.791     22.509
REMARK  Name = 
REMARK  5 active torsions:
REMARK  status: ('A' for Active; 'I' for Inactive)
REMARK    1  A    between atoms: C_2  and  C_3
REMARK    2  A    between atoms: C_3  and  C_4
REMARK    3  A    between atoms: C_4  and  C_5
REMARK    4  A    between atoms: C_5  and  C_6
REMARK    5  A    between atoms: N_12  and  C_13
REMARK                            x       y       z     vdW  Elec       q    Type
REMARK                         _______ _______ _______ _____ _____    ______ ____
ROOT
ATOM      1  C   UNL     1      19.720  10.860  37.498  0.00  0.00    +0.000 C 
ATOM      2  C   UNL     1      20.085  11.983  38.591  0.00  0.00    +0.000 C 
ATOM      3  O   UNL     1      19.987  13.137  38.092  0.00  0.00    +0.000 OA
ATOM      4  N   UNL     1      20.437  11.621  39.858  0.00  0.00    +0.000 NA
ATOM      5  C   UNL     1      19.899  10.461  40.478  0.00  0.00    +0.000 C 
ATOM      6  S   UNL     1      20.305  10.021  41.981  0.00  0.00    +0.000 S 
ATOM      7  N   UNL     1      18.976   9.695  39.707  0.00  0.00    +0.000 N 
ATOM      8  C   UNL     1      18.651  10.095  38.421  0.00  0.00    +0.000 C 
ATOM      9  O   UNL     1      17.526   9.906  37.868  0.00  0.00    +0.000 OA
ENDROOT
BRANCH   7  10
ATOM     10  C   UNL     1      18.332   8.516  40.212  0.00  0.00    +0.000 A 
ATOM     11  C   UNL     1      17.137   8.587  40.882  0.00  0.00    +0.000 A 
ATOM     12  C   UNL     1      16.533   7.412  41.333  0.00  0.00    +0.000 A 
ATOM     13  C   UNL     1      17.135   6.194  41.108  0.00  0.00    +0.000 A 
ATOM     14  C   UNL     1      18.314   6.140  40.443  0.00  0.00    +0.000 A 
ATOM     15  C   UNL     1      18.897   7.297  40.006  0.00  0.00    +0.000 A 
ENDBRANCH   7  10
BRANCH   1  16
ATOM     16  C   UNL     1      21.009   9.903  37.829  0.00  0.00    +0.000 C 
BRANCH  16  17
ATOM     17  C   UNL     1      21.658   9.695  36.484  0.00  0.00    +0.000 C 
BRANCH  17  18
ATOM     18  C   UNL     1      23.097   9.219  36.748  0.00  0.00    +0.000 C 
BRANCH  18  20
ATOM     19  C   UNL     1      24.547  11.258  36.536  0.00  0.00    +0.000 C 
ATOM     20  C   UNL     1      23.966  10.056  35.829  0.00  0.00    +0.000 C 
ENDBRANCH  18  20
ENDBRANCH  17  18
ENDBRANCH  16  17
ENDBRANCH   1  16
TORSDOF 5
ENDMDL
MODEL 8
REMARK VINA RESULT:      -5.1      1.918      2.466
REMARK  Name = 
REMARK  5 active torsions:
REMARK  status: ('A' for Active; 'I' for Inactive)
REMARK    1  A    between atoms: C_2  and  C_3
REMARK    2  A    between atoms: C_3  and  C_4
REMARK    3  A    between atoms: C_4  and  C_5
REMARK    4  A    between atoms: C_5  and  C_6
REMARK    5  A    between atoms: N_12  and  C_13
REMARK                            x       y       z     vdW  Elec       q    Type
REMARK                         _______ _______ _______ _____ _____    ______ ____
ROOT
ATOM      1  C   UNL     1      30.091  24.164  23.464  0.00  0.00    +0.000 C 
ATOM      2  C   UNL     1      29.365  24.854  22.205  0.00  0.00    +0.000 C 
ATOM      3  O   UNL     1      29.698  24.282  21.132  0.00  0.00    +0.000 OA
ATOM      4  N   UNL     1      28.521  25.909  22.391  0.00  0.00    +0.000 NA
ATOM      5  C   UNL     1      27.732  26.033  23.567  0.00  0.00    +0.000 C 
ATOM      6  S   UNL     1      26.724  27.277  23.799  0.00  0.00    +0.000 S 
ATOM      7  N   UNL     1      27.870  25.002  24.541  0.00  0.00    +0.000 N 
ATOM      8  C   UNL     1      28.746  23.951  24.314  0.00  0.00    +0.000 C 
ATOM      9  O   UNL     1      28.578  22.768  24.737  0.00  0.00    +0.000 OA
ENDROOT
BRANCH   7  10
ATOM     10  C   UNL     1      27.118  24.979  25.762  0.00  0.00    +0.000 A 
ATOM     11  C   UNL     1      25.827  24.517  25.797  0.00  0.00    +0.000 A 
ATOM     12  C   UNL     1      25.141  24.488  27.013  0.00  0.00    +0.000 A 
ATOM     13  C   UNL     1      25.757  24.924  28.165  0.00  0.00    +0.000 A 
ATOM     14  C   UNL     1      27.032  25.378  28.115  0.00  0.00    +0.000 A 
ATOM     15  C   UNL     1      27.695  25.401  26.919  0.00  0.00    +0.000 A 
ENDBRANCH   7  10
BRANCH   1  16
ATOM     16  C   UNL     1      30.560  25.573  24.159  0.00  0.00    +0.000 C 
BRANCH  16  17
ATOM     17  C   UNL     1      31.395  25.134  25.335  0.00  0.00    +0.000 C 
BRANCH  17  18
ATOM     18  C   UNL     1      32.499  24.215  24.785  0.00  0.00    +0.000 C 
BRANCH  18  20
ATOM     19  C   UNL     1      34.974  24.267  24.362  0.00  0.00    +0.000 C 
ATOM     20  C   UNL     1      33.773  25.034  24.862  0.00  0.00    +0.000 C 
ENDBRANCH  18  20
ENDBRANCH  17  18
ENDBRANCH  16  17
ENDBRANCH   1  16
TORSDOF 5
ENDMDL
MODEL 9
REMARK VINA RESULT:      -5.1     33.790     35.213
REMARK  Name = 
REMARK  5 active torsions:
REMARK  status: ('A' for Active; 'I' for Inactive)
REMARK    1  A    between atoms: C_2  and  C_3
REMARK    2  A    between atoms: C_3  and  C_4
REMARK    3  A    between atoms: C_4  and  C_5
REMARK    4  A    between atoms: C_5  and  C_6
REMARK    5  A    between atoms: N_12  and  C_13
REMARK                            x       y       z     vdW  Elec       q    Type
REMARK                         _______ _______ _______ _____ _____    ______ ____
ROOT
ATOM      1  C   UNL     1      17.956 -11.008  28.580  0.00  0.00    +0.000 C 
ATOM      2  C   UNL     1      16.365 -11.030  28.339  0.00  0.00    +0.000 C 
ATOM      3  O   UNL     1      15.784 -11.659  29.265  0.00  0.00    +0.000 OA
ATOM      4  N   UNL     1      15.826 -10.416  27.248  0.00  0.00    +0.000 NA
ATOM      5  C   UNL     1      16.411  -9.250  26.683  0.00  0.00    +0.000 C 
ATOM      6  S   UNL     1      15.781  -8.509  25.391  0.00  0.00    +0.000 S 
ATOM      7  N   UNL     1      17.591  -8.758  27.315  0.00  0.00    +0.000 N 
ATOM      8  C   UNL     1      18.109  -9.418  28.419  0.00  0.00    +0.000 C 
ATOM      9  O   UNL     1      18.729  -8.855  29.371  0.00  0.00    +0.000 OA
ENDROOT
BRANCH   7  10
ATOM     10  C   UNL     1      18.274  -7.576  26.874  0.00  0.00    +0.000 A 
ATOM     11  C   UNL     1      17.852  -6.326  27.248  0.00  0.00    +0.000 A 
ATOM     12  C   UNL     1      18.563  -5.204  26.817  0.00  0.00    +0.000 A 
ATOM     13  C   UNL     1      19.676  -5.355  26.021  0.00  0.00    +0.000 A 
ATOM     14  C   UNL     1      20.081  -6.596  25.660  0.00  0.00    +0.000 A 
ATOM     15  C   UNL     1      19.378  -7.688  26.089  0.00  0.00    +0.000 A 
ENDBRANCH   7  10
BRANCH   1  16
ATOM     16  C   UNL     1      18.347 -11.415  27.041  0.00  0.00    +0.000 C 
BRANCH  16  17
ATOM     17  C   UNL     1      19.806 -11.786  27.126  0.00  0.00    +0.000 C 
BRANCH  17  18
ATOM     18  C   UNL     1      20.547 -10.936  26.079  0.00  0.00    +0.000 C 
BRANCH  18  20
ATOM     19  C   UNL     1      22.762  -9.771  25.867  0.00  0.00    +0.000 C 
ATOM     20  C   UNL     1      21.740 -10.355  26.814  0.00  0.00    +0.000 C 
ENDBRANCH  18  20
ENDBRANCH  17  18
ENDBRANCH  16  17
ENDBRANCH   1  16
TORSDOF 5
ENDMDL
MODEL 10
REMARK VINA RESULT:      -5.1     28.889     31.368
REMARK  Name = 
REMARK  5 active torsions:
REMARK  status: ('A' for Active; 'I' for Inactive)
REMARK    1  A    between atoms: C_2  and  C_3
REMARK    2  A    between atoms: C_3  and  C_4
REMARK    3  A    between atoms: C_4  and  C_5
REMARK    4  A    between atoms: C_5  and  C_6
REMARK    5  A    between atoms: N_12  and  C_13
REMARK                            x       y       z     vdW  Elec       q    Type
REMARK                         _______ _______ _______ _____ _____    ______ ____
ROOT
ATOM      1  C   UNL     1      32.241  -4.512  34.176  0.00  0.00    +0.000 C 
ATOM      2  C   UNL     1      33.251  -5.230  35.203  0.00  0.00    +0.000 C 
ATOM      3  O   UNL     1      32.693  -5.412  36.319  0.00  0.00    +0.000 OA
ATOM      4  N   UNL     1      34.516  -5.554  34.811  0.00  0.00    +0.000 NA
ATOM      5  C   UNL     1      34.809  -5.919  33.469  0.00  0.00    +0.000 C 
ATOM      6  S   UNL     1      36.304  -6.309  32.990  0.00  0.00    +0.000 S 
ATOM      7  N   UNL     1      33.715  -5.924  32.555  0.00  0.00    +0.000 N 
ATOM      8  C   UNL     1      32.446  -5.580  32.995  0.00  0.00    +0.000 C 
ATOM      9  O   UNL     1      31.367  -6.055  32.528  0.00  0.00    +0.000 OA
ENDROOT
BRANCH   7  10
ATOM     10  C   UNL     1      33.855  -6.298  31.176  0.00  0.00    +0.000 A 
ATOM     11  C   UNL     1      33.886  -5.355  30.181  0.00  0.00    +0.000 A 
ATOM     12  C   UNL     1      34.050  -5.762  28.855  0.00  0.00    +0.000 A 
ATOM     13  C   UNL     1      34.176  -7.100  28.553  0.00  0.00    +0.000 A 
ATOM     14  C   UNL     1      34.144  -8.020  29.548  0.00  0.00    +0.000 A 
ATOM     15  C   UNL     1      33.984  -7.610  30.842  0.00  0.00    +0.000 A 
ENDBRANCH   7  10
BRANCH   1  16
ATOM     16  C   UNL     1      33.327  -3.402  33.648  0.00  0.00    +0.000 C 
BRANCH  16  17
ATOM     17  C   UNL     1      32.953  -2.148  34.397  0.00  0.00    +0.000 C 
BRANCH  17  18
ATOM     18  C   UNL     1      34.137  -1.175  34.263  0.00  0.00    +0.000 C 
BRANCH  18  20
ATOM     19  C   UNL     1      34.393   0.400  32.323  0.00  0.00    +0.000 C 
ATOM     20  C   UNL     1      33.575   0.035  33.540  0.00  0.00    +0.000 C 
ENDBRANCH  18  20
ENDBRANCH  17  18
ENDBRANCH  16  17
ENDBRANCH   1  16
TORSDOF 5
ENDMDL
