MODEL 1
REMARK VINA RESULT:      -7.1      0.000      0.000
REMARK  Name = 
REMARK  6 active torsions:
REMARK  status: ('A' for Active; 'I' for Inactive)
REMARK    1  A    between atoms: C_8  and  C_9
REMARK    2  A    between atoms: C_15  and  C_16
REMARK    3  A    between atoms: N_22  and  C_23
REMARK    4  A    between atoms: C_23  and  C_24
REMARK    5  A    between atoms: C_24  and  C_26
REMARK    6  A    between atoms: C_26  and  N_27
REMARK                            x       y       z     vdW  Elec       q    Type
REMARK                         _______ _______ _______ _____ _____    ______ ____
ROOT
ATOM      1  C   UNL     1      35.360   6.601  11.994  0.00  0.00    +0.000 C 
ATOM      2  C   UNL     1      35.742   5.405  12.827  0.00  0.00    +0.000 A 
ATOM      3  C   UNL     1      35.273   5.260  14.115  0.00  0.00    +0.000 A 
ATOM      4  C   UNL     1      35.626   4.159  14.880  0.00  0.00    +0.000 A 
ATOM      5  C   UNL     1      36.453   3.169  14.391  0.00  0.00    +0.000 A 
ATOM      6  C   UNL     1      36.918   3.322  13.101  0.00  0.00    +0.000 A 
ATOM      7  C   UNL     1      36.569   4.421  12.330  0.00  0.00    +0.000 A 
ATOM      8  C   UNL     1      37.703   2.206  12.885  0.00  0.00    +0.000 A 
ATOM      9  C   UNL     1      37.716   1.397  14.013  0.00  0.00    +0.000 A 
ATOM     10  N   UNL     1      36.946   2.005  14.921  0.00  0.00    +0.000 N 
ENDROOT
BRANCH   8  11
ATOM     11  C   UNL     1      38.412   1.931  11.645  0.00  0.00    +0.000 A 
ATOM     12  C   UNL     1      39.756   2.183  11.476  0.00  0.00    +0.000 A 
ATOM     13  C   UNL     1      40.374   1.900  10.272  0.00  0.00    +0.000 A 
ATOM     14  C   UNL     1      39.695   1.361   9.199  0.00  0.00    +0.000 A 
ATOM     15  C   UNL     1      38.352   1.107   9.363  0.00  0.00    +0.000 A 
ATOM     16  C   UNL     1      37.726   1.389  10.568  0.00  0.00    +0.000 A 
ENDBRANCH   8  11
BRANCH   9  17
ATOM     17  C   UNL     1      38.443   0.113  14.107  0.00  0.00    +0.000 A 
ATOM     18  C   UNL     1      37.862  -1.037  13.628  0.00  0.00    +0.000 A 
ATOM     19  C   UNL     1      38.533  -2.223  13.697  0.00  0.00    +0.000 A 
ATOM     20  C   UNL     1      39.787  -2.256  14.246  0.00  0.00    +0.000 A 
ATOM     21  C   UNL     1      40.404  -1.140  14.733  0.00  0.00    +0.000 A 
ATOM     22  C   UNL     1      39.706   0.045  14.652  0.00  0.00    +0.000 A 
ENDBRANCH   9  17
BRANCH  10  23
ATOM     23  C   UNL     1      36.670   1.533  16.251  0.00  0.00    +0.000 C 
BRANCH  23  24
ATOM     24  C   UNL     1      35.334   0.548  16.117  0.00  0.00    +0.000 C 
ATOM     25  O   UNL     1      34.390   1.594  16.718  0.00  0.00    +0.000 OA
BRANCH  24  26
ATOM     26  C   UNL     1      35.614  -0.149  17.634  0.00  0.00    +0.000 C 
BRANCH  26  27
ATOM     27  N   UNL     1      35.994  -1.498  17.251  0.00  0.00    +0.000 N 
ATOM     28  C   UNL     1      37.320  -2.012  17.266  0.00  0.00    +0.000 C 
ATOM     29  O   UNL     1      38.359  -1.422  17.623  0.00  0.00    +0.000 OA
ATOM     30  C   UNL     1      37.302  -3.421  16.774  0.00  0.00    +0.000 C 
ATOM     31  C   UNL     1      35.897  -3.687  16.305  0.00  0.00    +0.000 C 
ATOM     32  C   UNL     1      35.119  -2.518  16.801  0.00  0.00    +0.000 C 
ATOM     33  O   UNL     1      33.872  -2.461  16.812  0.00  0.00    +0.000 OA
ENDBRANCH  26  27
ENDBRANCH  24  26
ENDBRANCH  23  24
ENDBRANCH  10  23
TORSDOF 6
ENDMDL
MODEL 2
REMARK VINA RESULT:      -7.0      1.843      3.348
REMARK  Name = 
REMARK  6 active torsions:
REMARK  status: ('A' for Active; 'I' for Inactive)
REMARK    1  A    between atoms: C_8  and  C_9
REMARK    2  A    between atoms: C_15  and  C_16
REMARK    3  A    between atoms: N_22  and  C_23
REMARK    4  A    between atoms: C_23  and  C_24
REMARK    5  A    between atoms: C_24  and  C_26
REMARK    6  A    between atoms: C_26  and  N_27
REMARK                            x       y       z     vdW  Elec       q    Type
REMARK                         _______ _______ _______ _____ _____    ______ ____
ROOT
ATOM      1  C   UNL     1      35.542   3.844  14.289  0.00  0.00    +0.000 C 
ATOM      2  C   UNL     1      36.241   2.513  14.385  0.00  0.00    +0.000 A 
ATOM      3  C   UNL     1      35.684   1.470  15.091  0.00  0.00    +0.000 A 
ATOM      4  C   UNL     1      36.329   0.245  15.178  0.00  0.00    +0.000 A 
ATOM      5  C   UNL     1      37.545   0.020  14.567  0.00  0.00    +0.000 A 
ATOM      6  C   UNL     1      38.096   1.070  13.862  0.00  0.00    +0.000 A 
ATOM      7  C   UNL     1      37.456   2.298  13.771  0.00  0.00    +0.000 A 
ATOM      8  C   UNL     1      39.284   0.566  13.369  0.00  0.00    +0.000 A 
ATOM      9  C   UNL     1      39.452  -0.754  13.763  0.00  0.00    +0.000 A 
ATOM     10  N   UNL     1      38.377  -1.067  14.495  0.00  0.00    +0.000 N 
ENDROOT
BRANCH   8  11
ATOM     11  C   UNL     1      40.219   1.324  12.553  0.00  0.00    +0.000 A 
ATOM     12  C   UNL     1      40.187   1.324  11.175  0.00  0.00    +0.000 A 
ATOM     13  C   UNL     1      41.105   2.065  10.454  0.00  0.00    +0.000 A 
ATOM     14  C   UNL     1      42.080   2.829  11.061  0.00  0.00    +0.000 A 
ATOM     15  C   UNL     1      42.117   2.833  12.437  0.00  0.00    +0.000 A 
ATOM     16  C   UNL     1      41.200   2.091  13.166  0.00  0.00    +0.000 A 
ENDBRANCH   8  11
BRANCH   9  17
ATOM     17  C   UNL     1      40.608  -1.595  13.386  0.00  0.00    +0.000 A 
ATOM     18  C   UNL     1      40.504  -2.460  12.324  0.00  0.00    +0.000 A 
ATOM     19  C   UNL     1      41.571  -3.228  11.959  0.00  0.00    +0.000 A 
ATOM     20  C   UNL     1      42.744  -3.128  12.660  0.00  0.00    +0.000 A 
ATOM     21  C   UNL     1      42.893  -2.282  13.721  0.00  0.00    +0.000 A 
ATOM     22  C   UNL     1      41.801  -1.517  14.069  0.00  0.00    +0.000 A 
ENDBRANCH   9  17
BRANCH  10  23
ATOM     23  C   UNL     1      38.119  -2.335  15.122  0.00  0.00    +0.000 C 
BRANCH  23  24
ATOM     24  C   UNL     1      38.808  -2.243  16.636  0.00  0.00    +0.000 C 
ATOM     25  O   UNL     1      39.766  -3.409  16.370  0.00  0.00    +0.000 OA
BRANCH  24  26
ATOM     26  C   UNL     1      37.645  -3.279  17.300  0.00  0.00    +0.000 C 
BRANCH  26  27
ATOM     27  N   UNL     1      36.612  -2.329  17.673  0.00  0.00    +0.000 N 
ATOM     28  C   UNL     1      36.775  -1.262  18.600  0.00  0.00    +0.000 C 
ATOM     29  O   UNL     1      37.809  -0.948  19.222  0.00  0.00    +0.000 OA
ATOM     30  C   UNL     1      35.480  -0.534  18.738  0.00  0.00    +0.000 C 
ATOM     31  C   UNL     1      34.466  -1.322  17.952  0.00  0.00    +0.000 C 
ATOM     32  C   UNL     1      35.282  -2.303  17.185  0.00  0.00    +0.000 C 
ATOM     33  O   UNL     1      34.841  -2.997  16.246  0.00  0.00    +0.000 OA
ENDBRANCH  26  27
ENDBRANCH  24  26
ENDBRANCH  23  24
ENDBRANCH  10  23
TORSDOF 6
ENDMDL
MODEL 3
REMARK VINA RESULT:      -6.7      2.404      5.332
REMARK  Name = 
REMARK  6 active torsions:
REMARK  status: ('A' for Active; 'I' for Inactive)
REMARK    1  A    between atoms: C_8  and  C_9
REMARK    2  A    between atoms: C_15  and  C_16
REMARK    3  A    between atoms: N_22  and  C_23
REMARK    4  A    between atoms: C_23  and  C_24
REMARK    5  A    between atoms: C_24  and  C_26
REMARK    6  A    between atoms: C_26  and  N_27
REMARK                            x       y       z     vdW  Elec       q    Type
REMARK                         _______ _______ _______ _____ _____    ______ ____
ROOT
ATOM      1  C   UNL     1      44.497  -0.060  12.967  0.00  0.00    +0.000 C 
ATOM      2  C   UNL     1      43.094  -0.308  13.455  0.00  0.00    +0.000 A 
ATOM      3  C   UNL     1      42.688  -1.569  13.833  0.00  0.00    +0.000 A 
ATOM      4  C   UNL     1      41.395  -1.795  14.282  0.00  0.00    +0.000 A 
ATOM      5  C   UNL     1      40.468  -0.778  14.368  0.00  0.00    +0.000 A 
ATOM      6  C   UNL     1      40.882   0.481  13.987  0.00  0.00    +0.000 A 
ATOM      7  C   UNL     1      42.174   0.715  13.537  0.00  0.00    +0.000 A 
ATOM      8  C   UNL     1      39.771   1.280  14.176  0.00  0.00    +0.000 A 
ATOM      9  C   UNL     1      38.709   0.527  14.658  0.00  0.00    +0.000 A 
ATOM     10  N   UNL     1      39.158  -0.728  14.768  0.00  0.00    +0.000 N 
ENDROOT
BRANCH   8  11
ATOM     11  C   UNL     1      39.732   2.708  13.902  0.00  0.00    +0.000 A 
ATOM     12  C   UNL     1      39.719   3.663  14.894  0.00  0.00    +0.000 A 
ATOM     13  C   UNL     1      39.680   5.007  14.570  0.00  0.00    +0.000 A 
ATOM     14  C   UNL     1      39.655   5.454  13.265  0.00  0.00    +0.000 A 
ATOM     15  C   UNL     1      39.668   4.504  12.270  0.00  0.00    +0.000 A 
ATOM     16  C   UNL     1      39.706   3.154  12.588  0.00  0.00    +0.000 A 
ENDBRANCH   8  11
BRANCH   9  17
ATOM     17  C   UNL     1      37.378   1.081  14.989  0.00  0.00    +0.000 A 
ATOM     18  C   UNL     1      36.417   1.175  14.012  0.00  0.00    +0.000 A 
ATOM     19  C   UNL     1      35.182   1.670  14.312  0.00  0.00    +0.000 A 
ATOM     20  C   UNL     1      34.910   2.070  15.593  0.00  0.00    +0.000 A 
ATOM     21  C   UNL     1      35.833   1.994  16.596  0.00  0.00    +0.000 A 
ATOM     22  C   UNL     1      37.072   1.491  16.268  0.00  0.00    +0.000 A 
ENDBRANCH   9  17
BRANCH  10  23
ATOM     23  C   UNL     1      38.400  -1.862  15.224  0.00  0.00    +0.000 C 
BRANCH  23  24
ATOM     24  C   UNL     1      38.795  -2.058  16.831  0.00  0.00    +0.000 C 
ATOM     25  O   UNL     1      39.735  -3.234  16.550  0.00  0.00    +0.000 OA
BRANCH  24  26
ATOM     26  C   UNL     1      37.485  -3.096  17.094  0.00  0.00    +0.000 C 
BRANCH  26  27
ATOM     27  N   UNL     1      36.536  -2.189  17.716  0.00  0.00    +0.000 N 
ATOM     28  C   UNL     1      35.324  -1.738  17.123  0.00  0.00    +0.000 C 
ATOM     29  O   UNL     1      34.862  -2.049  16.008  0.00  0.00    +0.000 OA
ATOM     30  C   UNL     1      34.645  -0.795  18.060  0.00  0.00    +0.000 C 
ATOM     31  C   UNL     1      35.599  -0.574  19.203  0.00  0.00    +0.000 C 
ATOM     32  C   UNL     1      36.654  -1.604  19.002  0.00  0.00    +0.000 C 
ATOM     33  O   UNL     1      37.515  -1.901  19.856  0.00  0.00    +0.000 OA
ENDBRANCH  26  27
ENDBRANCH  24  26
ENDBRANCH  23  24
ENDBRANCH  10  23
TORSDOF 6
ENDMDL
MODEL 4
REMARK VINA RESULT:      -6.6      2.510      7.026
REMARK  Name = 
REMARK  6 active torsions:
REMARK  status: ('A' for Active; 'I' for Inactive)
REMARK    1  A    between atoms: C_8  and  C_9
REMARK    2  A    between atoms: C_15  and  C_16
REMARK    3  A    between atoms: N_22  and  C_23
REMARK    4  A    between atoms: C_23  and  C_24
REMARK    5  A    between atoms: C_24  and  C_26
REMARK    6  A    between atoms: C_26  and  N_27
REMARK                            x       y       z     vdW  Elec       q    Type
REMARK                         _______ _______ _______ _____ _____    ______ ____
ROOT
ATOM      1  C   UNL     1      40.365  -3.247  10.608  0.00  0.00    +0.000 C 
ATOM      2  C   UNL     1      39.906  -2.282  11.670  0.00  0.00    +0.000 A 
ATOM      3  C   UNL     1      40.365  -0.984  11.693  0.00  0.00    +0.000 A 
ATOM      4  C   UNL     1      39.940  -0.097  12.672  0.00  0.00    +0.000 A 
ATOM      5  C   UNL     1      39.048  -0.472  13.655  0.00  0.00    +0.000 A 
ATOM      6  C   UNL     1      38.594  -1.774  13.624  0.00  0.00    +0.000 A 
ATOM      7  C   UNL     1      39.015  -2.667  12.648  0.00  0.00    +0.000 A 
ATOM      8  C   UNL     1      37.734  -1.863  14.701  0.00  0.00    +0.000 A 
ATOM      9  C   UNL     1      37.667  -0.648  15.370  0.00  0.00    +0.000 A 
ATOM     10  N   UNL     1      38.479   0.187  14.713  0.00  0.00    +0.000 N 
ENDROOT
BRANCH   8  11
ATOM     11  C   UNL     1      37.007  -3.067  15.073  0.00  0.00    +0.000 A 
ATOM     12  C   UNL     1      37.517  -4.019  15.927  0.00  0.00    +0.000 A 
ATOM     13  C   UNL     1      36.777  -5.144  16.242  0.00  0.00    +0.000 A 
ATOM     14  C   UNL     1      35.516  -5.369  15.730  0.00  0.00    +0.000 A 
ATOM     15  C   UNL     1      35.001  -4.421  14.876  0.00  0.00    +0.000 A 
ATOM     16  C   UNL     1      35.738  -3.290  14.555  0.00  0.00    +0.000 A 
ENDBRANCH   8  11
BRANCH   9  17
ATOM     17  C   UNL     1      36.819  -0.396  16.555  0.00  0.00    +0.000 A 
ATOM     18  C   UNL     1      35.633   0.283  16.413  0.00  0.00    +0.000 A 
ATOM     19  C   UNL     1      34.838   0.506  17.498  0.00  0.00    +0.000 A 
ATOM     20  C   UNL     1      35.232   0.047  18.727  0.00  0.00    +0.000 A 
ATOM     21  C   UNL     1      36.401  -0.632  18.916  0.00  0.00    +0.000 A 
ATOM     22  C   UNL     1      37.186  -0.845  17.804  0.00  0.00    +0.000 A 
ENDBRANCH   9  17
BRANCH  10  23
ATOM     23  C   UNL     1      38.734   1.561  15.051  0.00  0.00    +0.000 C 
BRANCH  23  24
ATOM     24  C   UNL     1      37.649   2.458  14.159  0.00  0.00    +0.000 C 
ATOM     25  O   UNL     1      38.751   3.216  13.412  0.00  0.00    +0.000 OA
BRANCH  24  26
ATOM     26  C   UNL     1      37.559   3.656  15.351  0.00  0.00    +0.000 C 
BRANCH  26  27
ATOM     27  N   UNL     1      36.615   4.578  14.744  0.00  0.00    +0.000 N 
ATOM     28  C   UNL     1      35.213   4.365  14.639  0.00  0.00    +0.000 C 
ATOM     29  O   UNL     1      34.559   3.390  15.059  0.00  0.00    +0.000 OA
ATOM     30  C   UNL     1      34.596   5.522  13.925  0.00  0.00    +0.000 C 
ATOM     31  C   UNL     1      35.736   6.386  13.457  0.00  0.00    +0.000 C 
ATOM     32  C   UNL     1      36.927   5.830  14.157  0.00  0.00    +0.000 C 
ATOM     33  O   UNL     1      38.036   6.400  14.210  0.00  0.00    +0.000 OA
ENDBRANCH  26  27
ENDBRANCH  24  26
ENDBRANCH  23  24
ENDBRANCH  10  23
TORSDOF 6
ENDMDL
MODEL 5
REMARK VINA RESULT:      -6.5      2.896      5.570
REMARK  Name = 
REMARK  6 active torsions:
REMARK  status: ('A' for Active; 'I' for Inactive)
REMARK    1  A    between atoms: C_8  and  C_9
REMARK    2  A    between atoms: C_15  and  C_16
REMARK    3  A    between atoms: N_22  and  C_23
REMARK    4  A    between atoms: C_23  and  C_24
REMARK    5  A    between atoms: C_24  and  C_26
REMARK    6  A    between atoms: C_26  and  N_27
REMARK                            x       y       z     vdW  Elec       q    Type
REMARK                         _______ _______ _______ _____ _____    ______ ____
ROOT
ATOM      1  C   UNL     1      34.700   5.765  14.307  0.00  0.00    +0.000 C 
ATOM      2  C   UNL     1      35.578   4.600  13.934  0.00  0.00    +0.000 A 
ATOM      3  C   UNL     1      36.338   4.625  12.785  0.00  0.00    +0.000 A 
ATOM      4  C   UNL     1      37.146   3.551  12.442  0.00  0.00    +0.000 A 
ATOM      5  C   UNL     1      37.224   2.421  13.230  0.00  0.00    +0.000 A 
ATOM      6  C   UNL     1      36.460   2.404  14.378  0.00  0.00    +0.000 A 
ATOM      7  C   UNL     1      35.649   3.475  14.726  0.00  0.00    +0.000 A 
ATOM      8  C   UNL     1      36.734   1.178  14.954  0.00  0.00    +0.000 A 
ATOM      9  C   UNL     1      37.639   0.469  14.177  0.00  0.00    +0.000 A 
ATOM     10  N   UNL     1      37.925   1.248  13.128  0.00  0.00    +0.000 N 
ENDROOT
BRANCH   8  11
ATOM     11  C   UNL     1      36.148   0.709  16.200  0.00  0.00    +0.000 A 
ATOM     12  C   UNL     1      36.475   1.235  17.430  0.00  0.00    +0.000 A 
ATOM     13  C   UNL     1      35.883   0.745  18.580  0.00  0.00    +0.000 A 
ATOM     14  C   UNL     1      34.953  -0.273  18.558  0.00  0.00    +0.000 A 
ATOM     15  C   UNL     1      34.621  -0.802  17.332  0.00  0.00    +0.000 A 
ATOM     16  C   UNL     1      35.212  -0.316  16.174  0.00  0.00    +0.000 A 
ENDBRANCH   8  11
BRANCH   9  17
ATOM     17  C   UNL     1      38.160  -0.871  14.521  0.00  0.00    +0.000 A 
ATOM     18  C   UNL     1      39.236  -0.988  15.368  0.00  0.00    +0.000 A 
ATOM     19  C   UNL     1      39.713  -2.222  15.703  0.00  0.00    +0.000 A 
ATOM     20  C   UNL     1      39.111  -3.339  15.189  0.00  0.00    +0.000 A 
ATOM     21  C   UNL     1      38.040  -3.271  14.345  0.00  0.00    +0.000 A 
ATOM     22  C   UNL     1      37.577  -2.015  14.022  0.00  0.00    +0.000 A 
ENDBRANCH   9  17
BRANCH  10  23
ATOM     23  C   UNL     1      38.818   0.922  12.049  0.00  0.00    +0.000 C 
BRANCH  23  24
ATOM     24  C   UNL     1      40.356   1.166  12.640  0.00  0.00    +0.000 C 
ATOM     25  O   UNL     1      40.529   2.494  11.897  0.00  0.00    +0.000 OA
BRANCH  24  26
ATOM     26  C   UNL     1      41.055   0.299  11.365  0.00  0.00    +0.000 C 
BRANCH  26  27
ATOM     27  N   UNL     1      41.430  -0.930  12.042  0.00  0.00    +0.000 N 
ATOM     28  C   UNL     1      42.510  -1.065  12.958  0.00  0.00    +0.000 C 
ATOM     29  O   UNL     1      43.290  -0.174  13.349  0.00  0.00    +0.000 OA
ATOM     30  C   UNL     1      42.591  -2.485  13.410  0.00  0.00    +0.000 C 
ATOM     31  C   UNL     1      41.586  -3.248  12.589  0.00  0.00    +0.000 C 
ATOM     32  C   UNL     1      40.793  -2.189  11.907  0.00  0.00    +0.000 C 
ATOM     33  O   UNL     1      39.720  -2.397  11.304  0.00  0.00    +0.000 OA
ENDBRANCH  26  27
ENDBRANCH  24  26
ENDBRANCH  23  24
ENDBRANCH  10  23
TORSDOF 6
ENDMDL
MODEL 6
REMARK VINA RESULT:      -6.5      2.268      5.295
REMARK  Name = 
REMARK  6 active torsions:
REMARK  status: ('A' for Active; 'I' for Inactive)
REMARK    1  A    between atoms: C_8  and  C_9
REMARK    2  A    between atoms: C_15  and  C_16
REMARK    3  A    between atoms: N_22  and  C_23
REMARK    4  A    between atoms: C_23  and  C_24
REMARK    5  A    between atoms: C_24  and  C_26
REMARK    6  A    between atoms: C_26  and  N_27
REMARK                            x       y       z     vdW  Elec       q    Type
REMARK                         _______ _______ _______ _____ _____    ______ ____
ROOT
ATOM      1  C   UNL     1      43.646  -2.384  10.303  0.00  0.00    +0.000 C 
ATOM      2  C   UNL     1      42.467  -2.261  11.234  0.00  0.00    +0.000 A 
ATOM      3  C   UNL     1      42.042  -3.335  11.984  0.00  0.00    +0.000 A 
ATOM      4  C   UNL     1      40.957  -3.219  12.841  0.00  0.00    +0.000 A 
ATOM      5  C   UNL     1      40.262  -2.035  12.977  0.00  0.00    +0.000 A 
ATOM      6  C   UNL     1      40.695  -0.965  12.221  0.00  0.00    +0.000 A 
ATOM      7  C   UNL     1      41.779  -1.074  11.363  0.00  0.00    +0.000 A 
ATOM      8  C   UNL     1      39.833   0.061  12.557  0.00  0.00    +0.000 A 
ATOM      9  C   UNL     1      38.901  -0.372  13.490  0.00  0.00    +0.000 A 
ATOM     10  N   UNL     1      39.183  -1.657  13.732  0.00  0.00    +0.000 N 
ENDROOT
BRANCH   8  11
ATOM     11  C   UNL     1      39.902   1.404  12.000  0.00  0.00    +0.000 A 
ATOM     12  C   UNL     1      39.170   1.801  10.903  0.00  0.00    +0.000 A 
ATOM     13  C   UNL     1      39.280   3.092  10.420  0.00  0.00    +0.000 A 
ATOM     14  C   UNL     1      40.108   4.032  10.999  0.00  0.00    +0.000 A 
ATOM     15  C   UNL     1      40.841   3.641  12.096  0.00  0.00    +0.000 A 
ATOM     16  C   UNL     1      40.736   2.347  12.585  0.00  0.00    +0.000 A 
ENDBRANCH   8  11
BRANCH   9  17
ATOM     17  C   UNL     1      37.849   0.485  14.076  0.00  0.00    +0.000 A 
ATOM     18  C   UNL     1      36.586   0.481  13.536  0.00  0.00    +0.000 A 
ATOM     19  C   UNL     1      35.605   1.257  14.081  0.00  0.00    +0.000 A 
ATOM     20  C   UNL     1      35.891   2.038  15.169  0.00  0.00    +0.000 A 
ATOM     21  C   UNL     1      37.131   2.074  15.740  0.00  0.00    +0.000 A 
ATOM     22  C   UNL     1      38.104   1.281  15.171  0.00  0.00    +0.000 A 
ENDBRANCH   9  17
BRANCH  10  23
ATOM     23  C   UNL     1      38.473  -2.525  14.633  0.00  0.00    +0.000 C 
BRANCH  23  24
ATOM     24  C   UNL     1      39.006  -2.128  16.161  0.00  0.00    +0.000 C 
ATOM     25  O   UNL     1      39.974  -3.313  16.230  0.00  0.00    +0.000 OA
BRANCH  24  26
ATOM     26  C   UNL     1      37.771  -3.024  16.895  0.00  0.00    +0.000 C 
BRANCH  26  27
ATOM     27  N   UNL     1      36.837  -1.969  17.247  0.00  0.00    +0.000 N 
ATOM     28  C   UNL     1      37.002  -1.055  18.325  0.00  0.00    +0.000 C 
ATOM     29  O   UNL     1      37.958  -0.984  19.122  0.00  0.00    +0.000 OA
ATOM     30  C   UNL     1      35.818  -0.148  18.379  0.00  0.00    +0.000 C 
ATOM     31  C   UNL     1      34.840  -0.668  17.360  0.00  0.00    +0.000 C 
ATOM     32  C   UNL     1      35.619  -1.673  16.587  0.00  0.00    +0.000 C 
ATOM     33  O   UNL     1      35.238  -2.176  15.509  0.00  0.00    +0.000 OA
ENDBRANCH  26  27
ENDBRANCH  24  26
ENDBRANCH  23  24
ENDBRANCH  10  23
TORSDOF 6
ENDMDL
MODEL 7
REMARK VINA RESULT:      -6.5      1.835      4.852
REMARK  Name = 
REMARK  6 active torsions:
REMARK  status: ('A' for Active; 'I' for Inactive)
REMARK    1  A    between atoms: C_8  and  C_9
REMARK    2  A    between atoms: C_15  and  C_16
REMARK    3  A    between atoms: N_22  and  C_23
REMARK    4  A    between atoms: C_23  and  C_24
REMARK    5  A    between atoms: C_24  and  C_26
REMARK    6  A    between atoms: C_26  and  N_27
REMARK                            x       y       z     vdW  Elec       q    Type
REMARK                         _______ _______ _______ _____ _____    ______ ____
ROOT
ATOM      1  C   UNL     1      39.610   2.995  10.424  0.00  0.00    +0.000 C 
ATOM      2  C   UNL     1      38.919   2.224  11.517  0.00  0.00    +0.000 A 
ATOM      3  C   UNL     1      37.719   2.654  12.038  0.00  0.00    +0.000 A 
ATOM      4  C   UNL     1      37.084   1.942  13.046  0.00  0.00    +0.000 A 
ATOM      5  C   UNL     1      37.622   0.782  13.565  0.00  0.00    +0.000 A 
ATOM      6  C   UNL     1      38.824   0.359  13.038  0.00  0.00    +0.000 A 
ATOM      7  C   UNL     1      39.464   1.067  12.031  0.00  0.00    +0.000 A 
ATOM      8  C   UNL     1      39.113  -0.800  13.732  0.00  0.00    +0.000 A 
ATOM      9  C   UNL     1      38.115  -1.074  14.656  0.00  0.00    +0.000 A 
ATOM     10  N   UNL     1      37.213  -0.093  14.537  0.00  0.00    +0.000 N 
ENDROOT
BRANCH   8  11
ATOM     11  C   UNL     1      40.302  -1.610  13.515  0.00  0.00    +0.000 A 
ATOM     12  C   UNL     1      40.339  -2.672  12.639  0.00  0.00    +0.000 A 
ATOM     13  C   UNL     1      41.500  -3.405  12.477  0.00  0.00    +0.000 A 
ATOM     14  C   UNL     1      42.660  -3.118  13.167  0.00  0.00    +0.000 A 
ATOM     15  C   UNL     1      42.629  -2.057  14.044  0.00  0.00    +0.000 A 
ATOM     16  C   UNL     1      41.467  -1.318  14.211  0.00  0.00    +0.000 A 
ENDBRANCH   8  11
BRANCH   9  17
ATOM     17  C   UNL     1      38.106  -2.254  15.547  0.00  0.00    +0.000 A 
ATOM     18  C   UNL     1      37.343  -3.349  15.220  0.00  0.00    +0.000 A 
ATOM     19  C   UNL     1      37.341  -4.448  16.028  0.00  0.00    +0.000 A 
ATOM     20  C   UNL     1      38.106  -4.450  17.164  0.00  0.00    +0.000 A 
ATOM     21  C   UNL     1      38.880  -3.386  17.528  0.00  0.00    +0.000 A 
ATOM     22  C   UNL     1      38.865  -2.288  16.696  0.00  0.00    +0.000 A 
ENDBRANCH   9  17
BRANCH  10  23
ATOM     23  C   UNL     1      36.004   0.044  15.302  0.00  0.00    +0.000 C 
BRANCH  23  24
ATOM     24  C   UNL     1      36.474   0.590  16.804  0.00  0.00    +0.000 C 
ATOM     25  O   UNL     1      35.730  -0.526  17.544  0.00  0.00    +0.000 OA
BRANCH  24  26
ATOM     26  C   UNL     1      35.142   1.628  16.917  0.00  0.00    +0.000 C 
BRANCH  26  27
ATOM     27  N   UNL     1      35.668   2.820  16.275  0.00  0.00    +0.000 N 
ATOM     28  C   UNL     1      35.046   3.515  15.201  0.00  0.00    +0.000 C 
ATOM     29  O   UNL     1      33.960   3.247  14.650  0.00  0.00    +0.000 OA
ATOM     30  C   UNL     1      35.910   4.665  14.800  0.00  0.00    +0.000 C 
ATOM     31  C   UNL     1      37.181   4.536  15.595  0.00  0.00    +0.000 C 
ATOM     32  C   UNL     1      36.876   3.486  16.604  0.00  0.00    +0.000 C 
ATOM     33  O   UNL     1      37.593   3.237  17.595  0.00  0.00    +0.000 OA
ENDBRANCH  26  27
ENDBRANCH  24  26
ENDBRANCH  23  24
ENDBRANCH  10  23
TORSDOF 6
ENDMDL
MODEL 8
REMARK VINA RESULT:      -6.5      3.272      6.837
REMARK  Name = 
REMARK  6 active torsions:
REMARK  status: ('A' for Active; 'I' for Inactive)
REMARK    1  A    between atoms: C_8  and  C_9
REMARK    2  A    between atoms: C_15  and  C_16
REMARK    3  A    between atoms: N_22  and  C_23
REMARK    4  A    between atoms: C_23  and  C_24
REMARK    5  A    between atoms: C_24  and  C_26
REMARK    6  A    between atoms: C_26  and  N_27
REMARK                            x       y       z     vdW  Elec       q    Type
REMARK                         _______ _______ _______ _____ _____    ______ ____
ROOT
ATOM      1  C   UNL     1      34.505   1.949  16.487  0.00  0.00    +0.000 C 
ATOM      2  C   UNL     1      35.664   1.641  15.576  0.00  0.00    +0.000 A 
ATOM      3  C   UNL     1      36.066   2.540  14.612  0.00  0.00    +0.000 A 
ATOM      4  C   UNL     1      37.133   2.255  13.774  0.00  0.00    +0.000 A 
ATOM      5  C   UNL     1      37.834   1.070  13.867  0.00  0.00    +0.000 A 
ATOM      6  C   UNL     1      37.425   0.176  14.834  0.00  0.00    +0.000 A 
ATOM      7  C   UNL     1      36.358   0.455  15.676  0.00  0.00    +0.000 A 
ATOM      8  C   UNL     1      38.289  -0.893  14.699  0.00  0.00    +0.000 A 
ATOM      9  C   UNL     1      39.198  -0.657  13.677  0.00  0.00    +0.000 A 
ATOM     10  N   UNL     1      38.901   0.550  13.182  0.00  0.00    +0.000 N 
ENDROOT
BRANCH   8  11
ATOM     11  C   UNL     1      38.241  -2.095  15.519  0.00  0.00    +0.000 A 
ATOM     12  C   UNL     1      37.492  -3.202  15.186  0.00  0.00    +0.000 A 
ATOM     13  C   UNL     1      37.487  -4.314  16.007  0.00  0.00    +0.000 A 
ATOM     14  C   UNL     1      38.215  -4.376  17.177  0.00  0.00    +0.000 A 
ATOM     15  C   UNL     1      38.966  -3.272  17.514  0.00  0.00    +0.000 A 
ATOM     16  C   UNL     1      38.975  -2.153  16.695  0.00  0.00    +0.000 A 
ENDBRANCH   8  11
BRANCH   9  17
ATOM     17  C   UNL     1      40.274  -1.593  13.287  0.00  0.00    +0.000 A 
ATOM     18  C   UNL     1      40.037  -2.540  12.321  0.00  0.00    +0.000 A 
ATOM     19  C   UNL     1      41.030  -3.397  11.944  0.00  0.00    +0.000 A 
ATOM     20  C   UNL     1      42.261  -3.303  12.536  0.00  0.00    +0.000 A 
ATOM     21  C   UNL     1      42.543  -2.377  13.499  0.00  0.00    +0.000 A 
ATOM     22  C   UNL     1      41.524  -1.524  13.862  0.00  0.00    +0.000 A 
ENDBRANCH   9  17
BRANCH  10  23
ATOM     23  C   UNL     1      39.576   1.211  12.099  0.00  0.00    +0.000 C 
BRANCH  23  24
ATOM     24  C   UNL     1      38.707   0.842  10.727  0.00  0.00    +0.000 C 
ATOM     25  O   UNL     1      39.867   0.071  10.089  0.00  0.00    +0.000 OA
BRANCH  24  26
ATOM     26  C   UNL     1      39.172   2.280   9.965  0.00  0.00    +0.000 C 
BRANCH  26  27
ATOM     27  N   UNL     1      37.968   2.598   9.218  0.00  0.00    +0.000 N 
ATOM     28  C   UNL     1      37.600   2.018   7.972  0.00  0.00    +0.000 C 
ATOM     29  O   UNL     1      38.216   1.144   7.330  0.00  0.00    +0.000 OA
ATOM     30  C   UNL     1      36.317   2.626   7.512  0.00  0.00    +0.000 C 
ATOM     31  C   UNL     1      36.002   3.733   8.481  0.00  0.00    +0.000 C 
ATOM     32  C   UNL     1      36.968   3.528   9.595  0.00  0.00    +0.000 C 
ATOM     33  O   UNL     1      36.893   4.102  10.702  0.00  0.00    +0.000 OA
ENDBRANCH  26  27
ENDBRANCH  24  26
ENDBRANCH  23  24
ENDBRANCH  10  23
TORSDOF 6
ENDMDL
MODEL 9
REMARK VINA RESULT:      -6.2      3.483      6.692
REMARK  Name = 
REMARK  6 active torsions:
REMARK  status: ('A' for Active; 'I' for Inactive)
REMARK    1  A    between atoms: C_8  and  C_9
REMARK    2  A    between atoms: C_15  and  C_16
REMARK    3  A    between atoms: N_22  and  C_23
REMARK    4  A    between atoms: C_23  and  C_24
REMARK    5  A    between atoms: C_24  and  C_26
REMARK    6  A    between atoms: C_26  and  N_27
REMARK                            x       y       z     vdW  Elec       q    Type
REMARK                         _______ _______ _______ _____ _____    ______ ____
ROOT
ATOM      1  C   UNL     1      34.464   2.176  16.263  0.00  0.00    +0.000 C 
ATOM      2  C   UNL     1      35.665   1.839  15.419  0.00  0.00    +0.000 A 
ATOM      3  C   UNL     1      36.131   2.718  14.466  0.00  0.00    +0.000 A 
ATOM      4  C   UNL     1      37.237   2.405  13.690  0.00  0.00    +0.000 A 
ATOM      5  C   UNL     1      37.912   1.212  13.836  0.00  0.00    +0.000 A 
ATOM      6  C   UNL     1      37.439   0.337  14.792  0.00  0.00    +0.000 A 
ATOM      7  C   UNL     1      36.333   0.643  15.571  0.00  0.00    +0.000 A 
ATOM      8  C   UNL     1      38.292  -0.747  14.717  0.00  0.00    +0.000 A 
ATOM      9  C   UNL     1      39.257  -0.539  13.742  0.00  0.00    +0.000 A 
ATOM     10  N   UNL     1      39.006   0.665  13.216  0.00  0.00    +0.000 N 
ENDROOT
BRANCH   8  11
ATOM     11  C   UNL     1      38.181  -1.936  15.548  0.00  0.00    +0.000 A 
ATOM     12  C   UNL     1      38.851  -2.083  16.743  0.00  0.00    +0.000 A 
ATOM     13  C   UNL     1      38.706  -3.238  17.489  0.00  0.00    +0.000 A 
ATOM     14  C   UNL     1      37.899  -4.283  17.087  0.00  0.00    +0.000 A 
ATOM     15  C   UNL     1      37.228  -4.141  15.894  0.00  0.00    +0.000 A 
ATOM     16  C   UNL     1      37.369  -2.985  15.141  0.00  0.00    +0.000 A 
ENDBRANCH   8  11
BRANCH   9  17
ATOM     17  C   UNL     1      40.338  -1.496  13.422  0.00  0.00    +0.000 A 
ATOM     18  C   UNL     1      40.173  -2.391  12.393  0.00  0.00    +0.000 A 
ATOM     19  C   UNL     1      41.172  -3.267  12.081  0.00  0.00    +0.000 A 
ATOM     20  C   UNL     1      42.337  -3.244  12.801  0.00  0.00    +0.000 A 
ATOM     21  C   UNL     1      42.545  -2.372  13.830  0.00  0.00    +0.000 A 
ATOM     22  C   UNL     1      41.522  -1.498  14.125  0.00  0.00    +0.000 A 
ENDBRANCH   9  17
BRANCH  10  23
ATOM     23  C   UNL     1      39.749   1.301  12.162  0.00  0.00    +0.000 C 
BRANCH  23  24
ATOM     24  C   UNL     1      41.089   1.972  12.889  0.00  0.00    +0.000 C 
ATOM     25  O   UNL     1      40.501   3.386  12.877  0.00  0.00    +0.000 OA
BRANCH  24  26
ATOM     26  C   UNL     1      41.855   2.219  11.400  0.00  0.00    +0.000 C 
BRANCH  26  27
ATOM     27  N   UNL     1      42.943   1.261  11.488  0.00  0.00    +0.000 N 
ATOM     28  C   UNL     1      42.977  -0.002  10.835  0.00  0.00    +0.000 C 
ATOM     29  O   UNL     1      42.116  -0.488  10.075  0.00  0.00    +0.000 OA
ATOM     30  C   UNL     1      44.243  -0.705  11.200  0.00  0.00    +0.000 C 
ATOM     31  C   UNL     1      44.911   0.144  12.247  0.00  0.00    +0.000 C 
ATOM     32  C   UNL     1      44.139   1.417  12.232  0.00  0.00    +0.000 C 
ATOM     33  O   UNL     1      44.508   2.466  12.799  0.00  0.00    +0.000 OA
ENDBRANCH  26  27
ENDBRANCH  24  26
ENDBRANCH  23  24
ENDBRANCH  10  23
TORSDOF 6
ENDMDL
MODEL 10
REMARK VINA RESULT:      -6.2      3.714      7.151
REMARK  Name = 
REMARK  6 active torsions:
REMARK  status: ('A' for Active; 'I' for Inactive)
REMARK    1  A    between atoms: C_8  and  C_9
REMARK    2  A    between atoms: C_15  and  C_16
REMARK    3  A    between atoms: N_22  and  C_23
REMARK    4  A    between atoms: C_23  and  C_24
REMARK    5  A    between atoms: C_24  and  C_26
REMARK    6  A    between atoms: C_26  and  N_27
REMARK                            x       y       z     vdW  Elec       q    Type
REMARK                         _______ _______ _______ _____ _____    ______ ____
ROOT
ATOM      1  C   UNL     1      39.680   7.289  20.299  0.00  0.00    +0.000 C 
ATOM      2  C   UNL     1      39.196   6.724  18.989  0.00  0.00    +0.000 A 
ATOM      3  C   UNL     1      39.415   5.403  18.663  0.00  0.00    +0.000 A 
ATOM      4  C   UNL     1      38.969   4.885  17.456  0.00  0.00    +0.000 A 
ATOM      5  C   UNL     1      38.292   5.661  16.538  0.00  0.00    +0.000 A 
ATOM      6  C   UNL     1      38.078   6.982  16.873  0.00  0.00    +0.000 A 
ATOM      7  C   UNL     1      38.521   7.507  18.077  0.00  0.00    +0.000 A 
ATOM      8  C   UNL     1      37.393   7.502  15.791  0.00  0.00    +0.000 A 
ATOM      9  C   UNL     1      37.196   6.525  14.826  0.00  0.00    +0.000 A 
ATOM     10  N   UNL     1      37.755   5.407  15.303  0.00  0.00    +0.000 N 
ENDROOT
BRANCH   8  11
ATOM     11  C   UNL     1      36.947   8.883  15.691  0.00  0.00    +0.000 A 
ATOM     12  C   UNL     1      37.737   9.893  15.188  0.00  0.00    +0.000 A 
ATOM     13  C   UNL     1      37.256  11.188  15.119  0.00  0.00    +0.000 A 
ATOM     14  C   UNL     1      35.987  11.531  15.539  0.00  0.00    +0.000 A 
ATOM     15  C   UNL     1      35.193  10.525  16.042  0.00  0.00    +0.000 A 
ATOM     16  C   UNL     1      35.670   9.224  16.115  0.00  0.00    +0.000 A 
ENDBRANCH   8  11
BRANCH   9  17
ATOM     17  C   UNL     1      36.477   6.744  13.553  0.00  0.00    +0.000 A 
ATOM     18  C   UNL     1      37.174   7.131  12.433  0.00  0.00    +0.000 A 
ATOM     19  C   UNL     1      36.520   7.320  11.251  0.00  0.00    +0.000 A 
ATOM     20  C   UNL     1      35.166   7.121  11.191  0.00  0.00    +0.000 A 
ATOM     21  C   UNL     1      34.433   6.737  12.277  0.00  0.00    +0.000 A 
ATOM     22  C   UNL     1      35.116   6.552  13.458  0.00  0.00    +0.000 A 
ENDBRANCH   9  17
BRANCH  10  23
ATOM     23  C   UNL     1      37.801   4.132  14.640  0.00  0.00    +0.000 C 
BRANCH  23  24
ATOM     24  C   UNL     1      37.252   3.019  15.751  0.00  0.00    +0.000 C 
ATOM     25  O   UNL     1      38.474   2.112  15.583  0.00  0.00    +0.000 OA
BRANCH  24  26
ATOM     26  C   UNL     1      36.388   2.168  14.570  0.00  0.00    +0.000 C 
BRANCH  26  27
ATOM     27  N   UNL     1      35.940   1.017  15.334  0.00  0.00    +0.000 N 
ATOM     28  C   UNL     1      34.966   1.050  16.371  0.00  0.00    +0.000 C 
ATOM     29  O   UNL     1      34.326   2.039  16.781  0.00  0.00    +0.000 OA
ATOM     30  C   UNL     1      34.805  -0.324  16.931  0.00  0.00    +0.000 C 
ATOM     31  C   UNL     1      35.860  -1.174  16.277  0.00  0.00    +0.000 C 
ATOM     32  C   UNL     1      36.390  -0.318  15.181  0.00  0.00    +0.000 C 
ATOM     33  O   UNL     1      37.128  -0.733  14.263  0.00  0.00    +0.000 OA
ENDBRANCH  26  27
ENDBRANCH  24  26
ENDBRANCH  23  24
ENDBRANCH  10  23
TORSDOF 6
ENDMDL
