MODEL 1
REMARK VINA RESULT:      -7.7      0.000      0.000
REMARK  Name = 
REMARK  7 active torsions:
REMARK  status: ('A' for Active; 'I' for Inactive)
REMARK    1  A    between atoms: O_2  and  C_3
REMARK    2  A    between atoms: C_8  and  N_9
REMARK    3  A    between atoms: C_10  and  C_12
REMARK    4  A    between atoms: C_13  and  N_14
REMARK    5  A    between atoms: C_15  and  C_17
REMARK    6  A    between atoms: C_17  and  O_18
REMARK    7  A    between atoms: O_18  and  C_19
REMARK                            x       y       z     vdW  Elec       q    Type
REMARK                         _______ _______ _______ _____ _____    ______ ____
ROOT
ATOM      1  C   UNL     1      36.322   1.850  14.638  0.00  0.00    +0.000 A 
ATOM      2  C   UNL     1      35.363   1.675  15.606  0.00  0.00    +0.000 A 
ATOM      3  S   UNL     1      34.512   3.148  15.584  0.00  0.00    +0.000 S 
ATOM      4  C   UNL     1      35.380   3.955  14.359  0.00  0.00    +0.000 A 
ATOM      5  C   UNL     1      36.323   3.032  13.999  0.00  0.00    +0.000 A 
ATOM      6  C   UNL     1      37.330   3.357  12.906  0.00  0.00    +0.000 C 
ATOM      7  C   UNL     1      38.229   4.454  13.450  0.00  0.00    +0.000 C 
ATOM      8  C   UNL     1      37.527   5.270  14.517  0.00  0.00    +0.000 C 
ATOM      9  C   UNL     1      36.413   6.120  13.932  0.00  0.00    +0.000 C 
ATOM     10  C   UNL     1      35.116   5.350  13.846  0.00  0.00    +0.000 C 
ENDROOT
BRANCH   1  12
ATOM     11  N   UNL     1      38.473   0.681  15.082  0.00  0.00    +0.000 NA
ATOM     12  C   UNL     1      37.281   0.764  14.352  0.00  0.00    +0.000 C 
ATOM     13  O   UNL     1      37.045  -0.082  13.472  0.00  0.00    +0.000 OA
BRANCH  11  19
ATOM     14  C   UNL     1      40.613   0.000  14.219  0.00  0.00    +0.000 A 
ATOM     15  C   UNL     1      41.607  -0.964  14.036  0.00  0.00    +0.000 A 
ATOM     16  C   UNL     1      41.425  -2.228  14.553  0.00  0.00    +0.000 A 
ATOM     17  C   UNL     1      40.284  -2.557  15.242  0.00  0.00    +0.000 A 
ATOM     18  C   UNL     1      39.308  -1.570  15.410  0.00  0.00    +0.000 A 
ATOM     19  C   UNL     1      39.468  -0.306  14.905  0.00  0.00    +0.000 A 
BRANCH  14  21
ATOM     20  C   UNL     1      40.645   1.534  12.330  0.00  0.00    +0.000 C 
ATOM     21  O   UNL     1      40.816   1.277  13.689  0.00  0.00    +0.000 OA
ENDBRANCH  14  21
ENDBRANCH  11  19
ENDBRANCH   1  12
BRANCH   2  22
ATOM     22  N   UNL     1      35.122   0.541  16.437  0.00  0.00    +0.000 NA
ATOM     23  C   UNL     1      35.780   0.472  17.716  0.00  0.00    +0.000 C 
ATOM     24  O   UNL     1      36.533   1.432  18.019  0.00  0.00    +0.000 OA
BRANCH  23  25
ATOM     25  C   UNL     1      35.603  -0.645  18.644  0.00  0.00    +0.000 C 
BRANCH  25  26
ATOM     26  O   UNL     1      36.828  -1.328  18.790  0.00  0.00    +0.000 OA
BRANCH  26  27
ATOM     27  C   UNL     1      37.149  -2.512  18.169  0.00  0.00    +0.000 A 
ATOM     28  C   UNL     1      38.285  -3.169  18.618  0.00  0.00    +0.000 A 
ATOM     29  C   UNL     1      38.709  -4.364  18.075  0.00  0.00    +0.000 A 
ATOM     30  C   UNL     1      37.979  -4.926  17.050  0.00  0.00    +0.000 A 
ATOM     31  C   UNL     1      36.849  -4.281  16.598  0.00  0.00    +0.000 A 
ATOM     32  C   UNL     1      36.436  -3.088  17.148  0.00  0.00    +0.000 A 
ENDBRANCH  26  27
ENDBRANCH  25  26
ENDBRANCH  23  25
ENDBRANCH   2  22
TORSDOF 7
ENDMDL
MODEL 2
REMARK VINA RESULT:      -7.5      2.952      7.114
REMARK  Name = 
REMARK  7 active torsions:
REMARK  status: ('A' for Active; 'I' for Inactive)
REMARK    1  A    between atoms: O_2  and  C_3
REMARK    2  A    between atoms: C_8  and  N_9
REMARK    3  A    between atoms: C_10  and  C_12
REMARK    4  A    between atoms: C_13  and  N_14
REMARK    5  A    between atoms: C_15  and  C_17
REMARK    6  A    between atoms: C_17  and  O_18
REMARK    7  A    between atoms: O_18  and  C_19
REMARK                            x       y       z     vdW  Elec       q    Type
REMARK                         _______ _______ _______ _____ _____    ______ ____
ROOT
ATOM      1  C   UNL     1      39.516  -0.026  14.030  0.00  0.00    +0.000 A 
ATOM      2  C   UNL     1      39.877   1.299  14.064  0.00  0.00    +0.000 A 
ATOM      3  S   UNL     1      40.991   1.434  12.786  0.00  0.00    +0.000 S 
ATOM      4  C   UNL     1      40.982  -0.179  12.236  0.00  0.00    +0.000 A 
ATOM      5  C   UNL     1      40.092  -0.783  13.081  0.00  0.00    +0.000 A 
ATOM      6  C   UNL     1      39.783  -2.264  12.932  0.00  0.00    +0.000 C 
ATOM      7  C   UNL     1      41.049  -3.017  13.302  0.00  0.00    +0.000 C 
ATOM      8  C   UNL     1      42.285  -2.168  13.078  0.00  0.00    +0.000 C 
ATOM      9  C   UNL     1      42.548  -1.935  11.602  0.00  0.00    +0.000 C 
ATOM     10  C   UNL     1      41.787  -0.737  11.086  0.00  0.00    +0.000 C 
ENDROOT
BRANCH   1  12
ATOM     11  N   UNL     1      37.172  -0.514  14.708  0.00  0.00    +0.000 NA
ATOM     12  C   UNL     1      38.539  -0.544  15.009  0.00  0.00    +0.000 C 
ATOM     13  O   UNL     1      38.912  -1.010  16.100  0.00  0.00    +0.000 OA
BRANCH  11  19
ATOM     14  C   UNL     1      35.511  -0.100  16.397  0.00  0.00    +0.000 A 
ATOM     15  C   UNL     1      34.489  -0.541  17.242  0.00  0.00    +0.000 A 
ATOM     16  C   UNL     1      34.121  -1.868  17.221  0.00  0.00    +0.000 A 
ATOM     17  C   UNL     1      34.741  -2.765  16.385  0.00  0.00    +0.000 A 
ATOM     18  C   UNL     1      35.759  -2.293  15.551  0.00  0.00    +0.000 A 
ATOM     19  C   UNL     1      36.141  -0.976  15.556  0.00  0.00    +0.000 A 
BRANCH  14  21
ATOM     20  C   UNL     1      34.925   2.257  16.242  0.00  0.00    +0.000 C 
ATOM     21  O   UNL     1      35.870   1.250  16.433  0.00  0.00    +0.000 OA
ENDBRANCH  14  21
ENDBRANCH  11  19
ENDBRANCH   1  12
BRANCH   2  22
ATOM     22  N   UNL     1      39.434   2.328  14.948  0.00  0.00    +0.000 NA
ATOM     23  C   UNL     1      38.307   3.134  14.556  0.00  0.00    +0.000 C 
ATOM     24  O   UNL     1      37.780   2.872  13.446  0.00  0.00    +0.000 OA
BRANCH  23  25
ATOM     25  C   UNL     1      37.773   4.213  15.387  0.00  0.00    +0.000 C 
BRANCH  25  26
ATOM     26  O   UNL     1      38.232   4.051  16.712  0.00  0.00    +0.000 OA
BRANCH  26  27
ATOM     27  C   UNL     1      39.064   4.925  17.369  0.00  0.00    +0.000 A 
ATOM     28  C   UNL     1      40.054   5.539  16.615  0.00  0.00    +0.000 A 
ATOM     29  C   UNL     1      40.950   6.434  17.161  0.00  0.00    +0.000 A 
ATOM     30  C   UNL     1      40.859   6.730  18.505  0.00  0.00    +0.000 A 
ATOM     31  C   UNL     1      39.880   6.125  19.262  0.00  0.00    +0.000 A 
ATOM     32  C   UNL     1      38.992   5.233  18.704  0.00  0.00    +0.000 A 
ENDBRANCH  26  27
ENDBRANCH  25  26
ENDBRANCH  23  25
ENDBRANCH   2  22
TORSDOF 7
ENDMDL
MODEL 3
REMARK VINA RESULT:      -7.3      2.730      6.722
REMARK  Name = 
REMARK  7 active torsions:
REMARK  status: ('A' for Active; 'I' for Inactive)
REMARK    1  A    between atoms: O_2  and  C_3
REMARK    2  A    between atoms: C_8  and  N_9
REMARK    3  A    between atoms: C_10  and  C_12
REMARK    4  A    between atoms: C_13  and  N_14
REMARK    5  A    between atoms: C_15  and  C_17
REMARK    6  A    between atoms: C_17  and  O_18
REMARK    7  A    between atoms: O_18  and  C_19
REMARK                            x       y       z     vdW  Elec       q    Type
REMARK                         _______ _______ _______ _____ _____    ______ ____
ROOT
ATOM      1  C   UNL     1      38.298  -0.706  13.500  0.00  0.00    +0.000 A 
ATOM      2  C   UNL     1      37.977   0.601  13.218  0.00  0.00    +0.000 A 
ATOM      3  S   UNL     1      38.691   0.859  11.696  0.00  0.00    +0.000 S 
ATOM      4  C   UNL     1      39.379  -0.680  11.444  0.00  0.00    +0.000 A 
ATOM      5  C   UNL     1      39.022  -1.359  12.577  0.00  0.00    +0.000 A 
ATOM      6  C   UNL     1      39.446  -2.808  12.762  0.00  0.00    +0.000 C 
ATOM      7  C   UNL     1      40.957  -2.807  12.919  0.00  0.00    +0.000 C 
ATOM      8  C   UNL     1      41.584  -1.601  12.251  0.00  0.00    +0.000 C 
ATOM      9  C   UNL     1      41.486  -1.680  10.739  0.00  0.00    +0.000 C 
ATOM     10  C   UNL     1      40.176  -1.117  10.239  0.00  0.00    +0.000 C 
ENDROOT
BRANCH   1  12
ATOM     11  N   UNL     1      38.571  -1.090  15.943  0.00  0.00    +0.000 NA
ATOM     12  C   UNL     1      37.845  -1.314  14.766  0.00  0.00    +0.000 C 
ATOM     13  O   UNL     1      36.825  -2.023  14.807  0.00  0.00    +0.000 OA
BRANCH  11  19
ATOM     14  C   UNL     1      37.353  -0.947  18.011  0.00  0.00    +0.000 A 
ATOM     15  C   UNL     1      37.018  -1.450  19.271  0.00  0.00    +0.000 A 
ATOM     16  C   UNL     1      37.594  -2.625  19.704  0.00  0.00    +0.000 A 
ATOM     17  C   UNL     1      38.491  -3.307  18.920  0.00  0.00    +0.000 A 
ATOM     18  C   UNL     1      38.805  -2.779  17.665  0.00  0.00    +0.000 A 
ATOM     19  C   UNL     1      38.244  -1.612  17.213  0.00  0.00    +0.000 A 
BRANCH  14  21
ATOM     20  C   UNL     1      35.424   0.286  17.185  0.00  0.00    +0.000 C 
ATOM     21  O   UNL     1      36.758   0.244  17.590  0.00  0.00    +0.000 OA
ENDBRANCH  14  21
ENDBRANCH  11  19
ENDBRANCH   1  12
BRANCH   2  22
ATOM     22  N   UNL     1      37.227   1.530  13.999  0.00  0.00    +0.000 NA
ATOM     23  C   UNL     1      37.934   2.381  14.922  0.00  0.00    +0.000 C 
ATOM     24  O   UNL     1      39.182   2.246  14.977  0.00  0.00    +0.000 OA
BRANCH  23  25
ATOM     25  C   UNL     1      37.262   3.367  15.769  0.00  0.00    +0.000 C 
BRANCH  25  26
ATOM     26  O   UNL     1      38.056   3.620  16.908  0.00  0.00    +0.000 OA
BRANCH  26  27
ATOM     27  C   UNL     1      38.393   4.869  17.371  0.00  0.00    +0.000 A 
ATOM     28  C   UNL     1      39.053   4.931  18.590  0.00  0.00    +0.000 A 
ATOM     29  C   UNL     1      39.442   6.125  19.158  0.00  0.00    +0.000 A 
ATOM     30  C   UNL     1      39.167   7.301  18.493  0.00  0.00    +0.000 A 
ATOM     31  C   UNL     1      38.512   7.250  17.282  0.00  0.00    +0.000 A 
ATOM     32  C   UNL     1      38.128   6.050  16.725  0.00  0.00    +0.000 A 
ENDBRANCH  26  27
ENDBRANCH  25  26
ENDBRANCH  23  25
ENDBRANCH   2  22
TORSDOF 7
ENDMDL
MODEL 4
REMARK VINA RESULT:      -7.0      3.172      6.328
REMARK  Name = 
REMARK  7 active torsions:
REMARK  status: ('A' for Active; 'I' for Inactive)
REMARK    1  A    between atoms: O_2  and  C_3
REMARK    2  A    between atoms: C_8  and  N_9
REMARK    3  A    between atoms: C_10  and  C_12
REMARK    4  A    between atoms: C_13  and  N_14
REMARK    5  A    between atoms: C_15  and  C_17
REMARK    6  A    between atoms: C_17  and  O_18
REMARK    7  A    between atoms: O_18  and  C_19
REMARK                            x       y       z     vdW  Elec       q    Type
REMARK                         _______ _______ _______ _____ _____    ______ ____
ROOT
ATOM      1  C   UNL     1      38.080   0.905  13.616  0.00  0.00    +0.000 A 
ATOM      2  C   UNL     1      37.473   2.107  13.888  0.00  0.00    +0.000 A 
ATOM      3  S   UNL     1      37.147   2.738  12.343  0.00  0.00    +0.000 S 
ATOM      4  C   UNL     1      37.780   1.478  11.386  0.00  0.00    +0.000 A 
ATOM      5  C   UNL     1      38.234   0.588  12.320  0.00  0.00    +0.000 A 
ATOM      6  C   UNL     1      38.889  -0.712  11.879  0.00  0.00    +0.000 C 
ATOM      7  C   UNL     1      40.201  -0.338  11.211  0.00  0.00    +0.000 C 
ATOM      8  C   UNL     1      40.156   1.067  10.645  0.00  0.00    +0.000 C 
ATOM      9  C   UNL     1      39.225   1.163   9.450  0.00  0.00    +0.000 C 
ATOM     10  C   UNL     1      37.800   1.424   9.877  0.00  0.00    +0.000 C 
ENDROOT
BRANCH   1  12
ATOM     11  N   UNL     1      37.631  -0.885  15.285  0.00  0.00    +0.000 NA
ATOM     12  C   UNL     1      38.523   0.040  14.728  0.00  0.00    +0.000 C 
ATOM     13  O   UNL     1      39.678   0.120  15.180  0.00  0.00    +0.000 OA
BRANCH  11  19
ATOM     14  C   UNL     1      37.619  -1.409  17.632  0.00  0.00    +0.000 A 
ATOM     15  C   UNL     1      37.907  -2.269  18.695  0.00  0.00    +0.000 A 
ATOM     16  C   UNL     1      38.510  -3.481  18.438  0.00  0.00    +0.000 A 
ATOM     17  C   UNL     1      38.833  -3.857  17.158  0.00  0.00    +0.000 A 
ATOM     18  C   UNL     1      38.530  -2.977  16.116  0.00  0.00    +0.000 A 
ATOM     19  C   UNL     1      37.930  -1.766  16.347  0.00  0.00    +0.000 A 
BRANCH  14  21
ATOM     20  C   UNL     1      35.640  -0.101  18.175  0.00  0.00    +0.000 C 
ATOM     21  O   UNL     1      37.006  -0.185  17.912  0.00  0.00    +0.000 OA
ENDBRANCH  14  21
ENDBRANCH  11  19
ENDBRANCH   1  12
BRANCH   2  22
ATOM     22  N   UNL     1      37.180   2.699  15.152  0.00  0.00    +0.000 NA
ATOM     23  C   UNL     1      38.155   3.578  15.744  0.00  0.00    +0.000 C 
ATOM     24  O   UNL     1      39.215   3.768  15.097  0.00  0.00    +0.000 OA
BRANCH  23  25
ATOM     25  C   UNL     1      37.953   4.236  17.035  0.00  0.00    +0.000 C 
BRANCH  25  26
ATOM     26  O   UNL     1      38.561   5.509  17.009  0.00  0.00    +0.000 OA
BRANCH  26  27
ATOM     27  C   UNL     1      39.661   5.873  17.748  0.00  0.00    +0.000 A 
ATOM     28  C   UNL     1      39.475   6.031  19.115  0.00  0.00    +0.000 A 
ATOM     29  C   UNL     1      40.502   6.394  19.961  0.00  0.00    +0.000 A 
ATOM     30  C   UNL     1      41.757   6.606  19.433  0.00  0.00    +0.000 A 
ATOM     31  C   UNL     1      41.951   6.451  18.078  0.00  0.00    +0.000 A 
ATOM     32  C   UNL     1      40.918   6.089  17.242  0.00  0.00    +0.000 A 
ENDBRANCH  26  27
ENDBRANCH  25  26
ENDBRANCH  23  25
ENDBRANCH   2  22
TORSDOF 7
ENDMDL
MODEL 5
REMARK VINA RESULT:      -6.8      2.962      7.145
REMARK  Name = 
REMARK  7 active torsions:
REMARK  status: ('A' for Active; 'I' for Inactive)
REMARK    1  A    between atoms: O_2  and  C_3
REMARK    2  A    between atoms: C_8  and  N_9
REMARK    3  A    between atoms: C_10  and  C_12
REMARK    4  A    between atoms: C_13  and  N_14
REMARK    5  A    between atoms: C_15  and  C_17
REMARK    6  A    between atoms: C_17  and  O_18
REMARK    7  A    between atoms: O_18  and  C_19
REMARK                            x       y       z     vdW  Elec       q    Type
REMARK                         _______ _______ _______ _____ _____    ______ ____
ROOT
ATOM      1  C   UNL     1      39.298  -0.045  13.298  0.00  0.00    +0.000 A 
ATOM      2  C   UNL     1      39.687   1.258  13.094  0.00  0.00    +0.000 A 
ATOM      3  S   UNL     1      40.615   1.171  11.672  0.00  0.00    +0.000 S 
ATOM      4  C   UNL     1      40.496  -0.501  11.361  0.00  0.00    +0.000 A 
ATOM      5  C   UNL     1      39.721  -0.946  12.396  0.00  0.00    +0.000 A 
ATOM      6  C   UNL     1      39.364  -2.421  12.502  0.00  0.00    +0.000 C 
ATOM      7  C   UNL     1      40.654  -3.165  12.799  0.00  0.00    +0.000 C 
ATOM      8  C   UNL     1      41.864  -2.405  12.293  0.00  0.00    +0.000 C 
ATOM      9  C   UNL     1      41.923  -2.387  10.777  0.00  0.00    +0.000 C 
ATOM     10  C   UNL     1      41.121  -1.242  10.204  0.00  0.00    +0.000 C 
ENDROOT
BRANCH   1  12
ATOM     11  N   UNL     1      37.064  -0.418  14.327  0.00  0.00    +0.000 NA
ATOM     12  C   UNL     1      38.457  -0.384  14.463  0.00  0.00    +0.000 C 
ATOM     13  O   UNL     1      38.968  -0.642  15.567  0.00  0.00    +0.000 OA
BRANCH  11  19
ATOM     14  C   UNL     1      35.714  -2.015  15.515  0.00  0.00    +0.000 A 
ATOM     15  C   UNL     1      34.813  -2.338  16.533  0.00  0.00    +0.000 A 
ATOM     16  C   UNL     1      34.369  -1.348  17.382  0.00  0.00    +0.000 A 
ATOM     17  C   UNL     1      34.796  -0.050  17.244  0.00  0.00    +0.000 A 
ATOM     18  C   UNL     1      35.698   0.242  16.217  0.00  0.00    +0.000 A 
ATOM     19  C   UNL     1      36.153  -0.728  15.361  0.00  0.00    +0.000 A 
BRANCH  14  21
ATOM     20  C   UNL     1      37.033  -4.019  15.109  0.00  0.00    +0.000 C 
ATOM     21  O   UNL     1      36.153  -3.033  14.665  0.00  0.00    +0.000 OA
ENDBRANCH  14  21
ENDBRANCH  11  19
ENDBRANCH   1  12
BRANCH   2  22
ATOM     22  N   UNL     1      39.393   2.415  13.875  0.00  0.00    +0.000 NA
ATOM     23  C   UNL     1      38.181   3.143  13.598  0.00  0.00    +0.000 C 
ATOM     24  O   UNL     1      37.453   2.702  12.674  0.00  0.00    +0.000 OA
BRANCH  23  25
ATOM     25  C   UNL     1      37.786   4.341  14.339  0.00  0.00    +0.000 C 
BRANCH  25  26
ATOM     26  O   UNL     1      37.970   4.116  15.720  0.00  0.00    +0.000 OA
BRANCH  26  27
ATOM     27  C   UNL     1      38.829   4.824  16.525  0.00  0.00    +0.000 A 
ATOM     28  C   UNL     1      38.571   4.808  17.888  0.00  0.00    +0.000 A 
ATOM     29  C   UNL     1      39.361   5.480  18.797  0.00  0.00    +0.000 A 
ATOM     30  C   UNL     1      40.447   6.193  18.336  0.00  0.00    +0.000 A 
ATOM     31  C   UNL     1      40.712   6.215  16.984  0.00  0.00    +0.000 A 
ATOM     32  C   UNL     1      39.915   5.540  16.086  0.00  0.00    +0.000 A 
ENDBRANCH  26  27
ENDBRANCH  25  26
ENDBRANCH  23  25
ENDBRANCH   2  22
TORSDOF 7
ENDMDL
MODEL 6
REMARK VINA RESULT:      -6.7      3.378      6.706
REMARK  Name = 
REMARK  7 active torsions:
REMARK  status: ('A' for Active; 'I' for Inactive)
REMARK    1  A    between atoms: O_2  and  C_3
REMARK    2  A    between atoms: C_8  and  N_9
REMARK    3  A    between atoms: C_10  and  C_12
REMARK    4  A    between atoms: C_13  and  N_14
REMARK    5  A    between atoms: C_15  and  C_17
REMARK    6  A    between atoms: C_17  and  O_18
REMARK    7  A    between atoms: O_18  and  C_19
REMARK                            x       y       z     vdW  Elec       q    Type
REMARK                         _______ _______ _______ _____ _____    ______ ____
ROOT
ATOM      1  C   UNL     1      37.399   2.087  13.297  0.00  0.00    +0.000 A 
ATOM      2  C   UNL     1      37.300   3.458  13.264  0.00  0.00    +0.000 A 
ATOM      3  S   UNL     1      37.359   3.813  11.602  0.00  0.00    +0.000 S 
ATOM      4  C   UNL     1      37.508   2.232  10.982  0.00  0.00    +0.000 A 
ATOM      5  C   UNL     1      37.506   1.463  12.113  0.00  0.00    +0.000 A 
ATOM      6  C   UNL     1      37.623  -0.050  12.007  0.00  0.00    +0.000 C 
ATOM      7  C   UNL     1      39.020  -0.347  11.488  0.00  0.00    +0.000 C 
ATOM      8  C   UNL     1      39.574   0.814  10.687  0.00  0.00    +0.000 C 
ATOM      9  C   UNL     1      38.843   0.988   9.368  0.00  0.00    +0.000 C 
ATOM     10  C   UNL     1      37.612   1.848   9.526  0.00  0.00    +0.000 C 
ENDROOT
BRANCH   1  12
ATOM     11  N   UNL     1      36.161   1.026  15.177  0.00  0.00    +0.000 NA
ATOM     12  C   UNL     1      37.384   1.384  14.596  0.00  0.00    +0.000 C 
ATOM     13  O   UNL     1      38.443   1.103  15.184  0.00  0.00    +0.000 OA
BRANCH  11  19
ATOM     14  C   UNL     1      35.823  -1.002  16.424  0.00  0.00    +0.000 A 
ATOM     15  C   UNL     1      35.674  -1.683  17.636  0.00  0.00    +0.000 A 
ATOM     16  C   UNL     1      35.720  -0.977  18.817  0.00  0.00    +0.000 A 
ATOM     17  C   UNL     1      35.908   0.384  18.825  0.00  0.00    +0.000 A 
ATOM     18  C   UNL     1      36.054   1.036  17.598  0.00  0.00    +0.000 A 
ATOM     19  C   UNL     1      36.012   0.353  16.410  0.00  0.00    +0.000 A 
BRANCH  14  21
ATOM     20  C   UNL     1      36.852  -2.518  14.822  0.00  0.00    +0.000 C 
ATOM     21  O   UNL     1      35.774  -1.736  15.237  0.00  0.00    +0.000 OA
ENDBRANCH  14  21
ENDBRANCH  11  19
ENDBRANCH   1  12
BRANCH   2  22
ATOM     22  N   UNL     1      37.176   4.376  14.349  0.00  0.00    +0.000 NA
ATOM     23  C   UNL     1      38.374   4.843  14.996  0.00  0.00    +0.000 C 
ATOM     24  O   UNL     1      39.466   4.404  14.554  0.00  0.00    +0.000 OA
BRANCH  23  25
ATOM     25  C   UNL     1      38.359   5.785  16.115  0.00  0.00    +0.000 C 
BRANCH  25  26
ATOM     26  O   UNL     1      38.991   5.193  17.229  0.00  0.00    +0.000 OA
BRANCH  26  27
ATOM     27  C   UNL     1      39.954   5.798  18.001  0.00  0.00    +0.000 A 
ATOM     28  C   UNL     1      39.617   6.083  19.317  0.00  0.00    +0.000 A 
ATOM     29  C   UNL     1      40.498   6.688  20.189  0.00  0.00    +0.000 A 
ATOM     30  C   UNL     1      41.757   7.022  19.740  0.00  0.00    +0.000 A 
ATOM     31  C   UNL     1      42.101   6.743  18.435  0.00  0.00    +0.000 A 
ATOM     32  C   UNL     1      41.212   6.139  17.573  0.00  0.00    +0.000 A 
ENDBRANCH  26  27
ENDBRANCH  25  26
ENDBRANCH  23  25
ENDBRANCH   2  22
TORSDOF 7
ENDMDL
MODEL 7
REMARK VINA RESULT:      -6.7      2.455      5.226
REMARK  Name = 
REMARK  7 active torsions:
REMARK  status: ('A' for Active; 'I' for Inactive)
REMARK    1  A    between atoms: O_2  and  C_3
REMARK    2  A    between atoms: C_8  and  N_9
REMARK    3  A    between atoms: C_10  and  C_12
REMARK    4  A    between atoms: C_13  and  N_14
REMARK    5  A    between atoms: C_15  and  C_17
REMARK    6  A    between atoms: C_17  and  O_18
REMARK    7  A    between atoms: O_18  and  C_19
REMARK                            x       y       z     vdW  Elec       q    Type
REMARK                         _______ _______ _______ _____ _____    ______ ____
ROOT
ATOM      1  C   UNL     1      39.241   0.452  13.260  0.00  0.00    +0.000 A 
ATOM      2  C   UNL     1      39.421   1.601  13.993  0.00  0.00    +0.000 A 
ATOM      3  S   UNL     1      40.616   2.438  13.121  0.00  0.00    +0.000 S 
ATOM      4  C   UNL     1      40.868   1.327  11.852  0.00  0.00    +0.000 A 
ATOM      5  C   UNL     1      39.993   0.320  12.156  0.00  0.00    +0.000 A 
ATOM      6  C   UNL     1      39.895  -0.901  11.254  0.00  0.00    +0.000 C 
ATOM      7  C   UNL     1      41.211  -1.648  11.381  0.00  0.00    +0.000 C 
ATOM      8  C   UNL     1      42.340  -0.720  11.783  0.00  0.00    +0.000 C 
ATOM      9  C   UNL     1      42.700   0.244  10.667  0.00  0.00    +0.000 C 
ATOM     10  C   UNL     1      41.836   1.483  10.706  0.00  0.00    +0.000 C 
ENDROOT
BRANCH   1  12
ATOM     11  N   UNL     1      38.677  -1.628  14.504  0.00  0.00    +0.000 NA
ATOM     12  C   UNL     1      38.258  -0.555  13.707  0.00  0.00    +0.000 C 
ATOM     13  O   UNL     1      37.060  -0.465  13.388  0.00  0.00    +0.000 OA
BRANCH  11  19
ATOM     14  C   UNL     1      37.825  -2.935  16.334  0.00  0.00    +0.000 A 
ATOM     15  C   UNL     1      37.002  -3.946  16.836  0.00  0.00    +0.000 A 
ATOM     16  C   UNL     1      36.203  -4.658  15.969  0.00  0.00    +0.000 A 
ATOM     17  C   UNL     1      36.202  -4.393  14.622  0.00  0.00    +0.000 A 
ATOM     18  C   UNL     1      37.036  -3.375  14.150  0.00  0.00    +0.000 A 
ATOM     19  C   UNL     1      37.839  -2.653  14.994  0.00  0.00    +0.000 A 
BRANCH  14  21
ATOM     20  C   UNL     1      38.454  -2.336  18.607  0.00  0.00    +0.000 C 
ATOM     21  O   UNL     1      38.628  -2.223  17.229  0.00  0.00    +0.000 OA
ENDBRANCH  14  21
ENDBRANCH  11  19
ENDBRANCH   1  12
BRANCH   2  22
ATOM     22  N   UNL     1      38.771   2.010  15.196  0.00  0.00    +0.000 NA
ATOM     23  C   UNL     1      37.528   2.730  15.096  0.00  0.00    +0.000 C 
ATOM     24  O   UNL     1      37.092   2.952  13.938  0.00  0.00    +0.000 OA
BRANCH  23  25
ATOM     25  C   UNL     1      36.781   3.195  16.265  0.00  0.00    +0.000 C 
BRANCH  25  26
ATOM     26  O   UNL     1      36.914   2.253  17.307  0.00  0.00    +0.000 OA
BRANCH  26  27
ATOM     27  C   UNL     1      36.193   1.088  17.413  0.00  0.00    +0.000 A 
ATOM     28  C   UNL     1      36.038   0.559  18.687  0.00  0.00    +0.000 A 
ATOM     29  C   UNL     1      35.335  -0.605  18.921  0.00  0.00    +0.000 A 
ATOM     30  C   UNL     1      34.766  -1.266  17.854  0.00  0.00    +0.000 A 
ATOM     31  C   UNL     1      34.915  -0.748  16.586  0.00  0.00    +0.000 A 
ATOM     32  C   UNL     1      35.620   0.414  16.364  0.00  0.00    +0.000 A 
ENDBRANCH  26  27
ENDBRANCH  25  26
ENDBRANCH  23  25
ENDBRANCH   2  22
TORSDOF 7
ENDMDL
MODEL 8
REMARK VINA RESULT:      -6.7      2.782      6.034
REMARK  Name = 
REMARK  7 active torsions:
REMARK  status: ('A' for Active; 'I' for Inactive)
REMARK    1  A    between atoms: O_2  and  C_3
REMARK    2  A    between atoms: C_8  and  N_9
REMARK    3  A    between atoms: C_10  and  C_12
REMARK    4  A    between atoms: C_13  and  N_14
REMARK    5  A    between atoms: C_15  and  C_17
REMARK    6  A    between atoms: C_17  and  O_18
REMARK    7  A    between atoms: O_18  and  C_19
REMARK                            x       y       z     vdW  Elec       q    Type
REMARK                         _______ _______ _______ _____ _____    ______ ____
ROOT
ATOM      1  C   UNL     1      36.811  -0.486  14.791  0.00  0.00    +0.000 A 
ATOM      2  C   UNL     1      37.097  -1.742  14.312  0.00  0.00    +0.000 A 
ATOM      3  S   UNL     1      36.079  -2.751  15.227  0.00  0.00    +0.000 S 
ATOM      4  C   UNL     1      35.314  -1.574  16.194  0.00  0.00    +0.000 A 
ATOM      5  C   UNL     1      35.887  -0.409  15.763  0.00  0.00    +0.000 A 
ATOM      6  C   UNL     1      35.476   0.918  16.382  0.00  0.00    +0.000 C 
ATOM      7  C   UNL     1      35.962   0.901  17.820  0.00  0.00    +0.000 C 
ATOM      8  C   UNL     1      36.092  -0.515  18.346  0.00  0.00    +0.000 C 
ATOM      9  C   UNL     1      34.738  -1.175  18.527  0.00  0.00    +0.000 C 
ATOM     10  C   UNL     1      34.265  -1.828  17.249  0.00  0.00    +0.000 C 
ENDROOT
BRANCH   1  12
ATOM     11  N   UNL     1      38.733   1.093  14.779  0.00  0.00    +0.000 NA
ATOM     12  C   UNL     1      37.510   0.687  14.231  0.00  0.00    +0.000 C 
ATOM     13  O   UNL     1      37.029   1.324  13.277  0.00  0.00    +0.000 OA
BRANCH  11  19
ATOM     14  C   UNL     1      39.312   3.424  14.909  0.00  0.00    +0.000 A 
ATOM     15  C   UNL     1      40.060   4.524  14.483  0.00  0.00    +0.000 A 
ATOM     16  C   UNL     1      40.989   4.361  13.478  0.00  0.00    +0.000 A 
ATOM     17  C   UNL     1      41.191   3.137  12.889  0.00  0.00    +0.000 A 
ATOM     18  C   UNL     1      40.428   2.055  13.338  0.00  0.00    +0.000 A 
ATOM     19  C   UNL     1      39.498   2.195  14.336  0.00  0.00    +0.000 A 
BRANCH  14  21
ATOM     20  C   UNL     1      37.146   4.221  15.683  0.00  0.00    +0.000 C 
ATOM     21  O   UNL     1      38.375   3.609  15.928  0.00  0.00    +0.000 OA
ENDBRANCH  14  21
ENDBRANCH  11  19
ENDBRANCH   1  12
BRANCH   2  22
ATOM     22  N   UNL     1      38.021  -2.127  13.294  0.00  0.00    +0.000 NA
ATOM     23  C   UNL     1      39.346  -2.533  13.685  0.00  0.00    +0.000 C 
ATOM     24  O   UNL     1      39.603  -2.522  14.915  0.00  0.00    +0.000 OA
BRANCH  23  25
ATOM     25  C   UNL     1      40.368  -2.946  12.723  0.00  0.00    +0.000 C 
BRANCH  25  26
ATOM     26  O   UNL     1      41.644  -2.797  13.307  0.00  0.00    +0.000 OA
BRANCH  26  27
ATOM     27  C   UNL     1      42.412  -1.660  13.244  0.00  0.00    +0.000 A 
ATOM     28  C   UNL     1      42.983  -1.220  14.430  0.00  0.00    +0.000 A 
ATOM     29  C   UNL     1      43.773  -0.092  14.494  0.00  0.00    +0.000 A 
ATOM     30  C   UNL     1      44.005   0.626  13.340  0.00  0.00    +0.000 A 
ATOM     31  C   UNL     1      43.442   0.197  12.158  0.00  0.00    +0.000 A 
ATOM     32  C   UNL     1      42.654  -0.931  12.107  0.00  0.00    +0.000 A 
ENDBRANCH  26  27
ENDBRANCH  25  26
ENDBRANCH  23  25
ENDBRANCH   2  22
TORSDOF 7
ENDMDL
MODEL 9
REMARK VINA RESULT:      -6.6      2.845      6.458
REMARK  Name = 
REMARK  7 active torsions:
REMARK  status: ('A' for Active; 'I' for Inactive)
REMARK    1  A    between atoms: O_2  and  C_3
REMARK    2  A    between atoms: C_8  and  N_9
REMARK    3  A    between atoms: C_10  and  C_12
REMARK    4  A    between atoms: C_13  and  N_14
REMARK    5  A    between atoms: C_15  and  C_17
REMARK    6  A    between atoms: C_17  and  O_18
REMARK    7  A    between atoms: O_18  and  C_19
REMARK                            x       y       z     vdW  Elec       q    Type
REMARK                         _______ _______ _______ _____ _____    ______ ____
ROOT
ATOM      1  C   UNL     1      37.519  -0.224  15.239  0.00  0.00    +0.000 A 
ATOM      2  C   UNL     1      36.689   0.841  15.498  0.00  0.00    +0.000 A 
ATOM      3  S   UNL     1      35.382   0.126  16.319  0.00  0.00    +0.000 S 
ATOM      4  C   UNL     1      35.904  -1.497  16.319  0.00  0.00    +0.000 A 
ATOM      5  C   UNL     1      37.105  -1.428  15.667  0.00  0.00    +0.000 A 
ATOM      6  C   UNL     1      37.926  -2.689  15.446  0.00  0.00    +0.000 C 
ATOM      7  C   UNL     1      37.146  -3.555  14.472  0.00  0.00    +0.000 C 
ATOM      8  C   UNL     1      35.661  -3.258  14.530  0.00  0.00    +0.000 C 
ATOM      9  C   UNL     1      35.044  -3.724  15.836  0.00  0.00    +0.000 C 
ATOM     10  C   UNL     1      35.168  -2.673  16.914  0.00  0.00    +0.000 C 
ENDROOT
BRANCH   1  12
ATOM     11  N   UNL     1      38.852  -0.208  13.138  0.00  0.00    +0.000 NA
ATOM     12  C   UNL     1      38.791  -0.003  14.522  0.00  0.00    +0.000 C 
ATOM     13  O   UNL     1      39.812   0.364  15.129  0.00  0.00    +0.000 OA
BRANCH  11  19
ATOM     14  C   UNL     1      40.840  -1.092  12.113  0.00  0.00    +0.000 A 
ATOM     15  C   UNL     1      41.984  -0.935  11.325  0.00  0.00    +0.000 A 
ATOM     16  C   UNL     1      42.262   0.298  10.778  0.00  0.00    +0.000 A 
ATOM     17  C   UNL     1      41.438   1.375  10.994  0.00  0.00    +0.000 A 
ATOM     18  C   UNL     1      40.301   1.186  11.785  0.00  0.00    +0.000 A 
ATOM     19  C   UNL     1      40.004  -0.032  12.340  0.00  0.00    +0.000 A 
BRANCH  14  21
ATOM     20  C   UNL     1      41.277  -2.825  13.764  0.00  0.00    +0.000 C 
ATOM     21  O   UNL     1      40.574  -2.350  12.658  0.00  0.00    +0.000 OA
ENDBRANCH  14  21
ENDBRANCH  11  19
ENDBRANCH   1  12
BRANCH   2  22
ATOM     22  N   UNL     1      36.865   2.217  15.168  0.00  0.00    +0.000 NA
ATOM     23  C   UNL     1      37.133   3.151  16.231  0.00  0.00    +0.000 C 
ATOM     24  O   UNL     1      37.196   2.683  17.395  0.00  0.00    +0.000 OA
BRANCH  23  25
ATOM     25  C   UNL     1      37.329   4.583  16.002  0.00  0.00    +0.000 C 
BRANCH  25  26
ATOM     26  O   UNL     1      38.712   4.865  15.978  0.00  0.00    +0.000 OA
BRANCH  26  27
ATOM     27  C   UNL     1      39.423   5.408  17.021  0.00  0.00    +0.000 A 
ATOM     28  C   UNL     1      40.661   5.957  16.720  0.00  0.00    +0.000 A 
ATOM     29  C   UNL     1      41.467   6.531  17.680  0.00  0.00    +0.000 A 
ATOM     30  C   UNL     1      41.028   6.561  18.987  0.00  0.00    +0.000 A 
ATOM     31  C   UNL     1      39.800   6.018  19.296  0.00  0.00    +0.000 A 
ATOM     32  C   UNL     1      39.005   5.447  18.328  0.00  0.00    +0.000 A 
ENDBRANCH  26  27
ENDBRANCH  25  26
ENDBRANCH  23  25
ENDBRANCH   2  22
TORSDOF 7
ENDMDL
MODEL 10
REMARK VINA RESULT:      -6.6     28.432     31.438
REMARK  Name = 
REMARK  7 active torsions:
REMARK  status: ('A' for Active; 'I' for Inactive)
REMARK    1  A    between atoms: O_2  and  C_3
REMARK    2  A    between atoms: C_8  and  N_9
REMARK    3  A    between atoms: C_10  and  C_12
REMARK    4  A    between atoms: C_13  and  N_14
REMARK    5  A    between atoms: C_15  and  C_17
REMARK    6  A    between atoms: C_17  and  O_18
REMARK    7  A    between atoms: O_18  and  C_19
REMARK                            x       y       z     vdW  Elec       q    Type
REMARK                         _______ _______ _______ _____ _____    ______ ____
ROOT
ATOM      1  C   UNL     1      24.599  15.692  41.430  0.00  0.00    +0.000 A 
ATOM      2  C   UNL     1      24.798  16.510  40.344  0.00  0.00    +0.000 A 
ATOM      3  S   UNL     1      23.441  17.535  40.372  0.00  0.00    +0.000 S 
ATOM      4  C   UNL     1      22.649  16.914  41.748  0.00  0.00    +0.000 A 
ATOM      5  C   UNL     1      23.485  15.909  42.150  0.00  0.00    +0.000 A 
ATOM      6  C   UNL     1      23.143  15.076  43.376  0.00  0.00    +0.000 C 
ATOM      7  C   UNL     1      21.906  14.267  43.025  0.00  0.00    +0.000 C 
ATOM      8  C   UNL     1      21.086  14.944  41.945  0.00  0.00    +0.000 C 
ATOM      9  C   UNL     1      20.426  16.212  42.453  0.00  0.00    +0.000 C 
ATOM     10  C   UNL     1      21.345  17.405  42.327  0.00  0.00    +0.000 C 
ENDROOT
BRANCH   1  12
ATOM     11  N   UNL     1      25.552  13.424  41.058  0.00  0.00    +0.000 NA
ATOM     12  C   UNL     1      25.588  14.643  41.747  0.00  0.00    +0.000 C 
ATOM     13  O   UNL     1      26.455  14.824  42.620  0.00  0.00    +0.000 OA
BRANCH  11  19
ATOM     14  C   UNL     1      26.051  11.291  42.051  0.00  0.00    +0.000 A 
ATOM     15  C   UNL     1      26.916  10.215  42.268  0.00  0.00    +0.000 A 
ATOM     16  C   UNL     1      28.164  10.224  41.686  0.00  0.00    +0.000 A 
ATOM     17  C   UNL     1      28.574  11.271  40.898  0.00  0.00    +0.000 A 
ATOM     18  C   UNL     1      27.686  12.332  40.699  0.00  0.00    +0.000 A 
ATOM     19  C   UNL     1      26.439  12.345  41.268  0.00  0.00    +0.000 A 
BRANCH  14  21
ATOM     20  C   UNL     1      24.631  11.457  44.020  0.00  0.00    +0.000 C 
ATOM     21  O   UNL     1      24.789  11.263  42.649  0.00  0.00    +0.000 OA
ENDBRANCH  14  21
ENDBRANCH  11  19
ENDBRANCH   1  12
BRANCH   2  22
ATOM     22  N   UNL     1      25.876  16.514  39.409  0.00  0.00    +0.000 NA
ATOM     23  C   UNL     1      25.720  15.787  38.176  0.00  0.00    +0.000 C 
ATOM     24  O   UNL     1      24.629  15.188  38.004  0.00  0.00    +0.000 OA
BRANCH  23  25
ATOM     25  C   UNL     1      26.762  15.727  37.150  0.00  0.00    +0.000 C 
BRANCH  25  26
ATOM     26  O   UNL     1      26.332  14.892  36.097  0.00  0.00    +0.000 OA
BRANCH  26  27
ATOM     27  C   UNL     1      25.836  15.334  34.894  0.00  0.00    +0.000 A 
ATOM     28  C   UNL     1      25.753  14.402  33.869  0.00  0.00    +0.000 A 
ATOM     29  C   UNL     1      25.273  14.725  32.617  0.00  0.00    +0.000 A 
ATOM     30  C   UNL     1      24.861  16.018  32.374  0.00  0.00    +0.000 A 
ATOM     31  C   UNL     1      24.940  16.950  33.386  0.00  0.00    +0.000 A 
ATOM     32  C   UNL     1      25.422  16.616  34.632  0.00  0.00    +0.000 A 
ENDBRANCH  26  27
ENDBRANCH  25  26
ENDBRANCH  23  25
ENDBRANCH   2  22
TORSDOF 7
ENDMDL
