MODEL 1
REMARK VINA RESULT:      -7.3      0.000      0.000
REMARK  Name = 
REMARK  2 active torsions:
REMARK  status: ('A' for Active; 'I' for Inactive)
REMARK    1  A    between atoms: C_5  and  N_6
REMARK    2  A    between atoms: N_11  and  C_12
REMARK                            x       y       z     vdW  Elec       q    Type
REMARK                         _______ _______ _______ _____ _____    ______ ____
ROOT
ATOM      1  N   UNL     1      28.044  23.590  23.607  0.00  0.00    +0.000 N 
ATOM      2  N   UNL     1      27.694  23.589  22.317  0.00  0.00    +0.000 NA
ATOM      3  C   UNL     1      26.392  23.295  22.240  0.00  0.00    +0.000 A 
ATOM      4  O   UNL     1      25.602  23.184  21.081  0.00  0.00    +0.000 OA
ATOM      5  N   UNL     1      25.949  23.116  23.495  0.00  0.00    +0.000 NA
ATOM      6  N   UNL     1      26.977  23.301  24.338  0.00  0.00    +0.000 N 
ENDROOT
BRANCH   1  11
ATOM      7  C   UNL     1      33.389  24.667  25.412  0.00  0.00    +0.000 C 
ATOM      8  C   UNL     1      32.001  24.386  24.942  0.00  0.00    +0.000 A 
ATOM      9  C   UNL     1      31.582  23.110  24.632  0.00  0.00    +0.000 A 
ATOM     10  C   UNL     1      30.297  22.855  24.199  0.00  0.00    +0.000 A 
ATOM     11  C   UNL     1      29.372  23.868  24.056  0.00  0.00    +0.000 A 
ATOM     12  C   UNL     1      29.789  25.146  24.367  0.00  0.00    +0.000 A 
ATOM     13  C   UNL     1      31.074  25.400  24.801  0.00  0.00    +0.000 A 
ENDBRANCH   1  11
BRANCH   6  14
ATOM     14  C   UNL     1      26.952  23.208  25.760  0.00  0.00    +0.000 A 
ATOM     15  C   UNL     1      27.802  22.392  26.477  0.00  0.00    +0.000 A 
ATOM     16  C   UNL     1      27.759  22.318  27.853  0.00  0.00    +0.000 A 
ATOM     17  C   UNL     1      26.852  23.068  28.575  0.00  0.00    +0.000 A 
ATOM     18  C   UNL     1      26.771  23.020  30.055  0.00  0.00    +0.000 C 
ATOM     19  C   UNL     1      25.999  23.886  27.861  0.00  0.00    +0.000 A 
ATOM     20  C   UNL     1      26.046  23.957  26.483  0.00  0.00    +0.000 A 
ENDBRANCH   6  14
TORSDOF 2
ENDMDL
MODEL 2
REMARK VINA RESULT:      -7.2      0.062      4.869
REMARK  Name = 
REMARK  2 active torsions:
REMARK  status: ('A' for Active; 'I' for Inactive)
REMARK    1  A    between atoms: C_5  and  N_6
REMARK    2  A    between atoms: N_11  and  C_12
REMARK                            x       y       z     vdW  Elec       q    Type
REMARK                         _______ _______ _______ _____ _____    ______ ____
ROOT
ATOM      1  N   UNL     1      27.028  23.332  24.335  0.00  0.00    +0.000 N 
ATOM      2  N   UNL     1      25.975  23.129  23.537  0.00  0.00    +0.000 NA
ATOM      3  C   UNL     1      26.374  23.291  22.271  0.00  0.00    +0.000 A 
ATOM      4  O   UNL     1      25.600  23.173  21.103  0.00  0.00    +0.000 OA
ATOM      5  N   UNL     1      27.682  23.596  22.303  0.00  0.00    +0.000 NA
ATOM      6  N   UNL     1      28.081  23.620  23.584  0.00  0.00    +0.000 N 
ENDROOT
BRANCH   1  11
ATOM      7  C   UNL     1      26.725  22.985  30.060  0.00  0.00    +0.000 C 
ATOM      8  C   UNL     1      26.803  23.076  28.572  0.00  0.00    +0.000 A 
ATOM      9  C   UNL     1      25.970  23.904  27.849  0.00  0.00    +0.000 A 
ATOM     10  C   UNL     1      26.046  23.985  26.474  0.00  0.00    +0.000 A 
ATOM     11  C   UNL     1      26.959  23.239  25.759  0.00  0.00    +0.000 A 
ATOM     12  C   UNL     1      27.794  22.411  26.481  0.00  0.00    +0.000 A 
ATOM     13  C   UNL     1      27.718  22.330  27.856  0.00  0.00    +0.000 A 
ENDBRANCH   1  11
BRANCH   6  14
ATOM     14  C   UNL     1      29.391  23.900  24.072  0.00  0.00    +0.000 A 
ATOM     15  C   UNL     1      29.796  25.159  24.461  0.00  0.00    +0.000 A 
ATOM     16  C   UNL     1      31.069  25.407  24.930  0.00  0.00    +0.000 A 
ATOM     17  C   UNL     1      31.998  24.390  25.029  0.00  0.00    +0.000 A 
ATOM     18  C   UNL     1      33.377  24.611  25.529  0.00  0.00    +0.000 C 
ATOM     19  C   UNL     1      31.596  23.128  24.641  0.00  0.00    +0.000 A 
ATOM     20  C   UNL     1      30.320  22.885  24.172  0.00  0.00    +0.000 A 
ENDBRANCH   6  14
TORSDOF 2
ENDMDL
MODEL 3
REMARK VINA RESULT:      -6.5      2.333      4.679
REMARK  Name = 
REMARK  2 active torsions:
REMARK  status: ('A' for Active; 'I' for Inactive)
REMARK    1  A    between atoms: C_5  and  N_6
REMARK    2  A    between atoms: N_11  and  C_12
REMARK                            x       y       z     vdW  Elec       q    Type
REMARK                         _______ _______ _______ _____ _____    ______ ____
ROOT
ATOM      1  N   UNL     1      28.487  24.490  24.130  0.00  0.00    +0.000 N 
ATOM      2  N   UNL     1      28.278  24.791  22.845  0.00  0.00    +0.000 NA
ATOM      3  C   UNL     1      29.359  24.420  22.150  0.00  0.00    +0.000 A 
ATOM      4  O   UNL     1      29.577  24.546  20.766  0.00  0.00    +0.000 OA
ATOM      5  N   UNL     1      30.230  23.889  23.024  0.00  0.00    +0.000 NA
ATOM      6  N   UNL     1      29.684  23.935  24.249  0.00  0.00    +0.000 N 
ENDROOT
BRANCH   1  11
ATOM      7  C   UNL     1      24.661  25.576  28.274  0.00  0.00    +0.000 C 
ATOM      8  C   UNL     1      25.655  25.295  27.198  0.00  0.00    +0.000 A 
ATOM      9  C   UNL     1      26.638  26.202  26.860  0.00  0.00    +0.000 A 
ATOM     10  C   UNL     1      27.556  25.937  25.864  0.00  0.00    +0.000 A 
ATOM     11  C   UNL     1      27.531  24.752  25.159  0.00  0.00    +0.000 A 
ATOM     12  C   UNL     1      26.549  23.843  25.497  0.00  0.00    +0.000 A 
ATOM     13  C   UNL     1      25.631  24.108  26.493  0.00  0.00    +0.000 A 
ENDBRANCH   1  11
BRANCH   6  14
ATOM     14  C   UNL     1      30.265  23.477  25.467  0.00  0.00    +0.000 A 
ATOM     15  C   UNL     1      31.212  24.196  26.167  0.00  0.00    +0.000 A 
ATOM     16  C   UNL     1      31.760  23.733  27.344  0.00  0.00    +0.000 A 
ATOM     17  C   UNL     1      31.377  22.518  27.875  0.00  0.00    +0.000 A 
ATOM     18  C   UNL     1      31.940  21.982  29.138  0.00  0.00    +0.000 C 
ATOM     19  C   UNL     1      30.430  21.796  27.178  0.00  0.00    +0.000 A 
ATOM     20  C   UNL     1      29.883  22.263  25.999  0.00  0.00    +0.000 A 
ENDBRANCH   6  14
TORSDOF 2
ENDMDL
MODEL 4
REMARK VINA RESULT:      -6.5     18.747     20.689
REMARK  Name = 
REMARK  2 active torsions:
REMARK  status: ('A' for Active; 'I' for Inactive)
REMARK    1  A    between atoms: C_5  and  N_6
REMARK    2  A    between atoms: N_11  and  C_12
REMARK                            x       y       z     vdW  Elec       q    Type
REMARK                         _______ _______ _______ _____ _____    ______ ____
ROOT
ATOM      1  N   UNL     1      19.225  10.102  38.898  0.00  0.00    +0.000 N 
ATOM      2  N   UNL     1      19.138   9.865  40.211  0.00  0.00    +0.000 NA
ATOM      3  C   UNL     1      17.853   9.654  40.512  0.00  0.00    +0.000 A 
ATOM      4  O   UNL     1      17.301   9.368  41.773  0.00  0.00    +0.000 OA
ATOM      5  N   UNL     1      17.153   9.764  39.370  0.00  0.00    +0.000 NA
ATOM      6  N   UNL     1      18.009  10.042  38.374  0.00  0.00    +0.000 N 
ENDROOT
BRANCH   1  11
ATOM      7  C   UNL     1      24.185  11.147  36.197  0.00  0.00    +0.000 C 
ATOM      8  C   UNL     1      22.896  10.875  36.898  0.00  0.00    +0.000 A 
ATOM      9  C   UNL     1      22.122   9.773  36.597  0.00  0.00    +0.000 A 
ATOM     10  C   UNL     1      20.931   9.525  37.248  0.00  0.00    +0.000 A 
ATOM     11  C   UNL     1      20.459  10.370  38.231  0.00  0.00    +0.000 A 
ATOM     12  C   UNL     1      21.233  11.472  38.534  0.00  0.00    +0.000 A 
ATOM     13  C   UNL     1      22.424  11.720  37.883  0.00  0.00    +0.000 A 
ENDBRANCH   1  11
BRANCH   6  14
ATOM     14  C   UNL     1      17.692  10.240  36.998  0.00  0.00    +0.000 A 
ATOM     15  C   UNL     1      17.301  11.458  36.483  0.00  0.00    +0.000 A 
ATOM     16  C   UNL     1      16.999  11.626  35.148  0.00  0.00    +0.000 A 
ATOM     17  C   UNL     1      17.079  10.568  34.265  0.00  0.00    +0.000 A 
ATOM     18  C   UNL     1      16.764  10.704  32.822  0.00  0.00    +0.000 C 
ATOM     19  C   UNL     1      17.470   9.347  34.777  0.00  0.00    +0.000 A 
ATOM     20  C   UNL     1      17.771   9.184  36.114  0.00  0.00    +0.000 A 
ENDBRANCH   6  14
TORSDOF 2
ENDMDL
MODEL 5
REMARK VINA RESULT:      -6.3     19.935     21.949
REMARK  Name = 
REMARK  2 active torsions:
REMARK  status: ('A' for Active; 'I' for Inactive)
REMARK    1  A    between atoms: C_5  and  N_6
REMARK    2  A    between atoms: N_11  and  C_12
REMARK                            x       y       z     vdW  Elec       q    Type
REMARK                         _______ _______ _______ _____ _____    ______ ____
ROOT
ATOM      1  N   UNL     1      20.019   9.919  37.655  0.00  0.00    +0.000 N 
ATOM      2  N   UNL     1      21.264  10.125  37.215  0.00  0.00    +0.000 NA
ATOM      3  C   UNL     1      22.113   9.649  38.132  0.00  0.00    +0.000 A 
ATOM      4  O   UNL     1      23.519   9.654  38.087  0.00  0.00    +0.000 OA
ATOM      5  N   UNL     1      21.375   9.149  39.137  0.00  0.00    +0.000 NA
ATOM      6  N   UNL     1      20.078   9.319  38.835  0.00  0.00    +0.000 N 
ENDROOT
BRANCH   1  11
ATOM      7  C   UNL     1      15.343  11.510  34.724  0.00  0.00    +0.000 C 
ATOM      8  C   UNL     1      16.558  11.098  35.486  0.00  0.00    +0.000 A 
ATOM      9  C   UNL     1      17.107  11.896  36.468  0.00  0.00    +0.000 A 
ATOM     10  C   UNL     1      18.230  11.510  37.170  0.00  0.00    +0.000 A 
ATOM     11  C   UNL     1      18.856  10.306  36.921  0.00  0.00    +0.000 A 
ATOM     12  C   UNL     1      18.307   9.506  35.940  0.00  0.00    +0.000 A 
ATOM     13  C   UNL     1      17.184   9.893  35.238  0.00  0.00    +0.000 A 
ENDBRANCH   1  11
BRANCH   6  14
ATOM     14  C   UNL     1      18.954   8.934  39.623  0.00  0.00    +0.000 A 
ATOM     15  C   UNL     1      18.098   9.843  40.208  0.00  0.00    +0.000 A 
ATOM     16  C   UNL     1      17.016   9.447  40.967  0.00  0.00    +0.000 A 
ATOM     17  C   UNL     1      16.746   8.109  41.171  0.00  0.00    +0.000 A 
ATOM     18  C   UNL     1      15.594   7.639  41.978  0.00  0.00    +0.000 C 
ATOM     19  C   UNL     1      17.601   7.196  40.586  0.00  0.00    +0.000 A 
ATOM     20  C   UNL     1      18.682   7.597  39.828  0.00  0.00    +0.000 A 
ENDBRANCH   6  14
TORSDOF 2
ENDMDL
MODEL 6
REMARK VINA RESULT:      -6.3     19.975     22.227
REMARK  Name = 
REMARK  2 active torsions:
REMARK  status: ('A' for Active; 'I' for Inactive)
REMARK    1  A    between atoms: C_5  and  N_6
REMARK    2  A    between atoms: N_11  and  C_12
REMARK                            x       y       z     vdW  Elec       q    Type
REMARK                         _______ _______ _______ _____ _____    ______ ____
ROOT
ATOM      1  N   UNL     1      20.053   9.341  38.855  0.00  0.00    +0.000 N 
ATOM      2  N   UNL     1      21.328   9.143  39.203  0.00  0.00    +0.000 NA
ATOM      3  C   UNL     1      22.106   9.645  38.238  0.00  0.00    +0.000 A 
ATOM      4  O   UNL     1      23.511   9.657  38.185  0.00  0.00    +0.000 OA
ATOM      5  N   UNL     1      21.293  10.152  37.296  0.00  0.00    +0.000 NA
ATOM      6  N   UNL     1      20.023   9.960  37.684  0.00  0.00    +0.000 N 
ENDROOT
BRANCH   1  11
ATOM      7  C   UNL     1      15.623   7.636  42.089  0.00  0.00    +0.000 C 
ATOM      8  C   UNL     1      16.774   8.078  41.248  0.00  0.00    +0.000 A 
ATOM      9  C   UNL     1      17.603   7.174  40.617  0.00  0.00    +0.000 A 
ATOM     10  C   UNL     1      18.666   7.587  39.841  0.00  0.00    +0.000 A 
ATOM     11  C   UNL     1      18.949   8.926  39.661  0.00  0.00    +0.000 A 
ATOM     12  C   UNL     1      18.120   9.831  40.292  0.00  0.00    +0.000 A 
ATOM     13  C   UNL     1      17.057   9.417  41.068  0.00  0.00    +0.000 A 
ENDBRANCH   1  11
BRANCH   6  14
ATOM     14  C   UNL     1      18.842  10.344  36.983  0.00  0.00    +0.000 A 
ATOM     15  C   UNL     1      18.241   9.549  36.030  0.00  0.00    +0.000 A 
ATOM     16  C   UNL     1      17.098   9.941  35.364  0.00  0.00    +0.000 A 
ATOM     17  C   UNL     1      16.506  11.159  35.631  0.00  0.00    +0.000 A 
ATOM     18  C   UNL     1      15.277  11.621  34.939  0.00  0.00    +0.000 C 
ATOM     19  C   UNL     1      17.105  11.958  36.584  0.00  0.00    +0.000 A 
ATOM     20  C   UNL     1      18.249  11.561  37.248  0.00  0.00    +0.000 A 
ENDBRANCH   6  14
TORSDOF 2
ENDMDL
MODEL 7
REMARK VINA RESULT:      -6.1      2.236      4.807
REMARK  Name = 
REMARK  2 active torsions:
REMARK  status: ('A' for Active; 'I' for Inactive)
REMARK    1  A    between atoms: C_5  and  N_6
REMARK    2  A    between atoms: N_11  and  C_12
REMARK                            x       y       z     vdW  Elec       q    Type
REMARK                         _______ _______ _______ _____ _____    ______ ____
ROOT
ATOM      1  N   UNL     1      27.789  23.810  25.364  0.00  0.00    +0.000 N 
ATOM      2  N   UNL     1      27.139  23.810  24.195  0.00  0.00    +0.000 NA
ATOM      3  C   UNL     1      27.981  23.378  23.251  0.00  0.00    +0.000 A 
ATOM      4  O   UNL     1      27.723  23.218  21.877  0.00  0.00    +0.000 OA
ATOM      5  N   UNL     1      29.152  23.114  23.852  0.00  0.00    +0.000 NA
ATOM      6  N   UNL     1      29.027  23.383  25.161  0.00  0.00    +0.000 N 
ENDROOT
BRANCH   1  11
ATOM      7  C   UNL     1      25.357  25.406  30.316  0.00  0.00    +0.000 C 
ATOM      8  C   UNL     1      25.989  24.990  29.029  0.00  0.00    +0.000 A 
ATOM      9  C   UNL     1      26.043  23.669  28.639  0.00  0.00    +0.000 A 
ATOM     10  C   UNL     1      26.627  23.289  27.449  0.00  0.00    +0.000 A 
ATOM     11  C   UNL     1      27.186  24.216  26.593  0.00  0.00    +0.000 A 
ATOM     12  C   UNL     1      27.132  25.539  26.982  0.00  0.00    +0.000 A 
ATOM     13  C   UNL     1      26.546  25.918  28.173  0.00  0.00    +0.000 A 
ENDBRANCH   1  11
BRANCH   6  14
ATOM     14  C   UNL     1      30.027  23.244  26.168  0.00  0.00    +0.000 A 
ATOM     15  C   UNL     1      30.886  24.263  26.521  0.00  0.00    +0.000 A 
ATOM     16  C   UNL     1      31.847  24.106  27.498  0.00  0.00    +0.000 A 
ATOM     17  C   UNL     1      31.985  22.907  28.169  0.00  0.00    +0.000 A 
ATOM     18  C   UNL     1      33.003  22.694  29.226  0.00  0.00    +0.000 C 
ATOM     19  C   UNL     1      31.127  21.885  27.818  0.00  0.00    +0.000 A 
ATOM     20  C   UNL     1      30.167  22.047  26.839  0.00  0.00    +0.000 A 
ENDBRANCH   6  14
TORSDOF 2
ENDMDL
MODEL 8
REMARK VINA RESULT:      -5.9      4.803      7.333
REMARK  Name = 
REMARK  2 active torsions:
REMARK  status: ('A' for Active; 'I' for Inactive)
REMARK    1  A    between atoms: C_5  and  N_6
REMARK    2  A    between atoms: N_11  and  C_12
REMARK                            x       y       z     vdW  Elec       q    Type
REMARK                         _______ _______ _______ _____ _____    ______ ____
ROOT
ATOM      1  N   UNL     1      30.434  22.485  30.000  0.00  0.00    +0.000 N 
ATOM      2  N   UNL     1      30.998  21.970  31.097  0.00  0.00    +0.000 NA
ATOM      3  C   UNL     1      32.167  21.424  30.746  0.00  0.00    +0.000 A 
ATOM      4  O   UNL     1      33.095  20.771  31.578  0.00  0.00    +0.000 OA
ATOM      5  N   UNL     1      32.312  21.610  29.424  0.00  0.00    +0.000 NA
ATOM      6  N   UNL     1      31.235  22.268  28.968  0.00  0.00    +0.000 N 
ENDROOT
BRANCH   1  11
ATOM      7  C   UNL     1      25.367  25.190  30.042  0.00  0.00    +0.000 C 
ATOM      8  C   UNL     1      26.684  24.488  30.031  0.00  0.00    +0.000 A 
ATOM      9  C   UNL     1      27.877  25.179  30.047  0.00  0.00    +0.000 A 
ATOM     10  C   UNL     1      29.093  24.526  30.038  0.00  0.00    +0.000 A 
ATOM     11  C   UNL     1      29.169  23.149  30.010  0.00  0.00    +0.000 A 
ATOM     12  C   UNL     1      27.976  22.456  29.994  0.00  0.00    +0.000 A 
ATOM     13  C   UNL     1      26.761  23.110  30.004  0.00  0.00    +0.000 A 
ENDBRANCH   1  11
BRANCH   6  14
ATOM     14  C   UNL     1      30.978  22.670  27.624  0.00  0.00    +0.000 A 
ATOM     15  C   UNL     1      30.113  21.994  26.789  0.00  0.00    +0.000 A 
ATOM     16  C   UNL     1      29.880  22.402  25.492  0.00  0.00    +0.000 A 
ATOM     17  C   UNL     1      30.511  23.515  24.975  0.00  0.00    +0.000 A 
ATOM     18  C   UNL     1      30.289  23.989  23.587  0.00  0.00    +0.000 C 
ATOM     19  C   UNL     1      31.377  24.193  25.808  0.00  0.00    +0.000 A 
ATOM     20  C   UNL     1      31.608  23.782  27.106  0.00  0.00    +0.000 A 
ENDBRANCH   6  14
TORSDOF 2
ENDMDL
MODEL 9
REMARK VINA RESULT:      -5.9     18.692     21.373
REMARK  Name = 
REMARK  2 active torsions:
REMARK  status: ('A' for Active; 'I' for Inactive)
REMARK    1  A    between atoms: C_5  and  N_6
REMARK    2  A    between atoms: N_11  and  C_12
REMARK                            x       y       z     vdW  Elec       q    Type
REMARK                         _______ _______ _______ _____ _____    ______ ____
ROOT
ATOM      1  N   UNL     1      18.543  10.656  37.814  0.00  0.00    +0.000 N 
ATOM      2  N   UNL     1      17.658  11.315  37.059  0.00  0.00    +0.000 NA
ATOM      3  C   UNL     1      16.435  11.064  37.539  0.00  0.00    +0.000 A 
ATOM      4  O   UNL     1      15.206  11.548  37.056  0.00  0.00    +0.000 OA
ATOM      5  N   UNL     1      16.581  10.246  38.594  0.00  0.00    +0.000 NA
ATOM      6  N   UNL     1      17.890   9.997  38.760  0.00  0.00    +0.000 N 
ENDROOT
BRANCH   1  11
ATOM      7  C   UNL     1      24.206  10.799  36.863  0.00  0.00    +0.000 C 
ATOM      8  C   UNL     1      22.734  10.761  37.109  0.00  0.00    +0.000 A 
ATOM      9  C   UNL     1      21.922   9.815  36.520  0.00  0.00    +0.000 A 
ATOM     10  C   UNL     1      20.562   9.783  36.751  0.00  0.00    +0.000 A 
ATOM     11  C   UNL     1      19.952  10.700  37.583  0.00  0.00    +0.000 A 
ATOM     12  C   UNL     1      20.764  11.646  38.173  0.00  0.00    +0.000 A 
ATOM     13  C   UNL     1      22.125  11.677  37.942  0.00  0.00    +0.000 A 
ENDBRANCH   1  11
BRANCH   6  14
ATOM     14  C   UNL     1      18.490   9.179  39.760  0.00  0.00    +0.000 A 
ATOM     15  C   UNL     1      18.922   9.669  40.975  0.00  0.00    +0.000 A 
ATOM     16  C   UNL     1      19.500   8.858  41.929  0.00  0.00    +0.000 A 
ATOM     17  C   UNL     1      19.670   7.507  41.701  0.00  0.00    +0.000 A 
ATOM     18  C   UNL     1      20.286   6.598  42.698  0.00  0.00    +0.000 C 
ATOM     19  C   UNL     1      19.239   7.013  40.486  0.00  0.00    +0.000 A 
ATOM     20  C   UNL     1      18.661   7.828  39.535  0.00  0.00    +0.000 A 
ENDBRANCH   6  14
TORSDOF 2
ENDMDL
MODEL 10
REMARK VINA RESULT:      -5.9     18.486     20.233
REMARK  Name = 
REMARK  2 active torsions:
REMARK  status: ('A' for Active; 'I' for Inactive)
REMARK    1  A    between atoms: C_5  and  N_6
REMARK    2  A    between atoms: N_11  and  C_12
REMARK                            x       y       z     vdW  Elec       q    Type
REMARK                         _______ _______ _______ _____ _____    ______ ____
ROOT
ATOM      1  N   UNL     1      21.582  11.573  37.996  0.00  0.00    +0.000 N 
ATOM      2  N   UNL     1      22.683  11.449  37.247  0.00  0.00    +0.000 NA
ATOM      3  C   UNL     1      22.668  10.236  36.685  0.00  0.00    +0.000 A 
ATOM      4  O   UNL     1      23.627   9.678  35.820  0.00  0.00    +0.000 OA
ATOM      5  N   UNL     1      21.549   9.619  37.097  0.00  0.00    +0.000 NA
ATOM      6  N   UNL     1      20.880  10.453  37.909  0.00  0.00    +0.000 N 
ENDROOT
BRANCH   1  11
ATOM      7  C   UNL     1      20.369  16.297  41.030  0.00  0.00    +0.000 C 
ATOM      8  C   UNL     1      20.686  15.069  40.242  0.00  0.00    +0.000 A 
ATOM      9  C   UNL     1      21.626  14.154  40.666  0.00  0.00    +0.000 A 
ATOM     10  C   UNL     1      21.915  13.021  39.935  0.00  0.00    +0.000 A 
ATOM     11  C   UNL     1      21.274  12.751  38.744  0.00  0.00    +0.000 A 
ATOM     12  C   UNL     1      20.332  13.665  38.318  0.00  0.00    +0.000 A 
ATOM     13  C   UNL     1      20.044  14.798  39.050  0.00  0.00    +0.000 A 
ENDBRANCH   1  11
BRANCH   6  14
ATOM     14  C   UNL     1      19.641  10.202  38.568  0.00  0.00    +0.000 A 
ATOM     15  C   UNL     1      18.416  10.364  37.955  0.00  0.00    +0.000 A 
ATOM     16  C   UNL     1      17.230  10.116  38.613  0.00  0.00    +0.000 A 
ATOM     17  C   UNL     1      17.223   9.689  39.926  0.00  0.00    +0.000 A 
ATOM     18  C   UNL     1      15.971   9.409  40.671  0.00  0.00    +0.000 C 
ATOM     19  C   UNL     1      18.448   9.525  40.542  0.00  0.00    +0.000 A 
ATOM     20  C   UNL     1      19.633   9.775  39.880  0.00  0.00    +0.000 A 
ENDBRANCH   6  14
TORSDOF 2
ENDMDL
