MODEL 1
REMARK VINA RESULT:      -7.3      0.000      0.000
REMARK  Name = 
REMARK  3 active torsions:
REMARK  status: ('A' for Active; 'I' for Inactive)
REMARK    1  A    between atoms: C_2  and  C_3
REMARK    2  A    between atoms: C_3  and  C_4
REMARK    3  A    between atoms: C_4  and  N_5
REMARK                            x       y       z     vdW  Elec       q    Type
REMARK                         _______ _______ _______ _____ _____    ______ ____
ROOT
ATOM      1  N   UNL     1      16.921  10.359  38.296  0.00  0.00    +0.000 NA
ATOM      2  C   UNL     1      16.971  10.232  36.879  0.00  0.00    +0.000 A 
ATOM      3  N   UNL     1      17.716   9.333  36.241  0.00  0.00    +0.000 NA
ATOM      4  C   UNL     1      17.737   9.244  34.900  0.00  0.00    +0.000 A 
ATOM      5  N   UNL     1      16.992  10.077  34.153  0.00  0.00    +0.000 NA
ATOM      6  C   UNL     1      16.227  10.999  34.741  0.00  0.00    +0.000 A 
ATOM      7  C   UNL     1      16.203  11.092  36.113  0.00  0.00    +0.000 A 
ATOM      8  N   UNL     1      15.356  12.095  36.424  0.00  0.00    +0.000 NA
ATOM      9  C   UNL     1      14.854  12.626  35.294  0.00  0.00    +0.000 A 
ATOM     10  C   UNL     1      13.960  13.656  35.028  0.00  0.00    +0.000 A 
ATOM     11  C   UNL     1      13.625  13.985  33.736  0.00  0.00    +0.000 A 
ATOM     12  C   UNL     1      14.154  13.317  32.650  0.00  0.00    +0.000 A 
ATOM     13 CL   UNL     1      13.695  13.773  31.016  0.00  0.00    +0.000 Cl
ATOM     14  C   UNL     1      15.042  12.293  32.902  0.00  0.00    +0.000 A 
ATOM     15  C   UNL     1      15.375  11.965  34.200  0.00  0.00    +0.000 A 
ENDROOT
BRANCH   1  16
ATOM     16  C   UNL     1      17.699   9.492  39.154  0.00  0.00    +0.000 C 
BRANCH  16  17
ATOM     17  C   UNL     1      17.321   9.762  40.595  0.00  0.00    +0.000 C 
BRANCH  17  19
ATOM     18  C   UNL     1      15.795   8.064  41.506  0.00  0.00    +0.000 C 
ATOM     19  C   UNL     1      15.851   9.386  40.757  0.00  0.00    +0.000 C 
ENDBRANCH  17  19
ENDBRANCH  16  17
ENDBRANCH   1  16
TORSDOF 3
ENDMDL
MODEL 2
REMARK VINA RESULT:      -5.9     19.106     20.258
REMARK  Name = 
REMARK  3 active torsions:
REMARK  status: ('A' for Active; 'I' for Inactive)
REMARK    1  A    between atoms: C_2  and  C_3
REMARK    2  A    between atoms: C_3  and  C_4
REMARK    3  A    between atoms: C_4  and  N_5
REMARK                            x       y       z     vdW  Elec       q    Type
REMARK                         _______ _______ _______ _____ _____    ______ ____
ROOT
ATOM      1  N   UNL     1      34.196   7.046  35.790  0.00  0.00    +0.000 NA
ATOM      2  C   UNL     1      34.107   5.754  36.382  0.00  0.00    +0.000 A 
ATOM      3  N   UNL     1      34.100   5.538  37.694  0.00  0.00    +0.000 NA
ATOM      4  C   UNL     1      34.015   4.302  38.215  0.00  0.00    +0.000 A 
ATOM      5  N   UNL     1      33.932   3.230  37.408  0.00  0.00    +0.000 NA
ATOM      6  C   UNL     1      33.935   3.388  36.083  0.00  0.00    +0.000 A 
ATOM      7  C   UNL     1      34.023   4.652  35.547  0.00  0.00    +0.000 A 
ATOM      8  N   UNL     1      34.003   4.513  34.205  0.00  0.00    +0.000 NA
ATOM      9  C   UNL     1      33.907   3.208  33.891  0.00  0.00    +0.000 A 
ATOM     10  C   UNL     1      33.849   2.508  32.692  0.00  0.00    +0.000 A 
ATOM     11  C   UNL     1      33.750   1.137  32.679  0.00  0.00    +0.000 A 
ATOM     12  C   UNL     1      33.705   0.394  33.842  0.00  0.00    +0.000 A 
ATOM     13 CL   UNL     1      33.579  -1.357  33.773  0.00  0.00    +0.000 Cl
ATOM     14  C   UNL     1      33.762   1.078  35.037  0.00  0.00    +0.000 A 
ATOM     15  C   UNL     1      33.861   2.454  35.047  0.00  0.00    +0.000 A 
ENDROOT
BRANCH   1  16
ATOM     16  C   UNL     1      34.287   8.238  36.605  0.00  0.00    +0.000 C 
BRANCH  16  17
ATOM     17  C   UNL     1      35.288   9.184  35.978  0.00  0.00    +0.000 C 
BRANCH  17  19
ATOM     18  C   UNL     1      35.513  11.379  34.895  0.00  0.00    +0.000 C 
ATOM     19  C   UNL     1      34.505  10.362  35.407  0.00  0.00    +0.000 C 
ENDBRANCH  17  19
ENDBRANCH  16  17
ENDBRANCH   1  16
TORSDOF 3
ENDMDL
MODEL 3
REMARK VINA RESULT:      -5.8     20.022     22.436
REMARK  Name = 
REMARK  3 active torsions:
REMARK  status: ('A' for Active; 'I' for Inactive)
REMARK    1  A    between atoms: C_2  and  C_3
REMARK    2  A    between atoms: C_3  and  C_4
REMARK    3  A    between atoms: C_4  and  N_5
REMARK                            x       y       z     vdW  Elec       q    Type
REMARK                         _______ _______ _______ _____ _____    ______ ____
ROOT
ATOM      1  N   UNL     1      16.851  -8.293  26.021  0.00  0.00    +0.000 NA
ATOM      2  C   UNL     1      17.851  -7.282  26.089  0.00  0.00    +0.000 A 
ATOM      3  N   UNL     1      17.659  -6.084  26.633  0.00  0.00    +0.000 NA
ATOM      4  C   UNL     1      18.629  -5.155  26.678  0.00  0.00    +0.000 A 
ATOM      5  N   UNL     1      19.844  -5.416  26.163  0.00  0.00    +0.000 NA
ATOM      6  C   UNL     1      20.091  -6.602  25.604  0.00  0.00    +0.000 A 
ATOM      7  C   UNL     1      19.101  -7.555  25.557  0.00  0.00    +0.000 A 
ATOM      8  N   UNL     1      19.625  -8.638  24.947  0.00  0.00    +0.000 NA
ATOM      9  C   UNL     1      20.905  -8.390  24.614  0.00  0.00    +0.000 A 
ATOM     10  C   UNL     1      21.897  -9.130  23.983  0.00  0.00    +0.000 A 
ATOM     11  C   UNL     1      23.148  -8.601  23.772  0.00  0.00    +0.000 A 
ATOM     12  C   UNL     1      23.479  -7.322  24.172  0.00  0.00    +0.000 A 
ATOM     13 CL   UNL     1      25.092  -6.689  23.881  0.00  0.00    +0.000 Cl
ATOM     14  C   UNL     1      22.502  -6.578  24.800  0.00  0.00    +0.000 A 
ATOM     15  C   UNL     1      21.248  -7.113  25.009  0.00  0.00    +0.000 A 
ENDROOT
BRANCH   1  16
ATOM     16  C   UNL     1      15.525  -8.072  26.558  0.00  0.00    +0.000 C 
BRANCH  16  17
ATOM     17  C   UNL     1      14.515  -8.750  25.658  0.00  0.00    +0.000 C 
BRANCH  17  19
ATOM     18  C   UNL     1      12.372  -9.566  26.545  0.00  0.00    +0.000 C 
ATOM     19  C   UNL     1      13.128  -8.316  26.123  0.00  0.00    +0.000 C 
ENDBRANCH  17  19
ENDBRANCH  16  17
ENDBRANCH   1  16
TORSDOF 3
ENDMDL
MODEL 4
REMARK VINA RESULT:      -5.7     23.211     25.767
REMARK  Name = 
REMARK  3 active torsions:
REMARK  status: ('A' for Active; 'I' for Inactive)
REMARK    1  A    between atoms: C_2  and  C_3
REMARK    2  A    between atoms: C_3  and  C_4
REMARK    3  A    between atoms: C_4  and  N_5
REMARK                            x       y       z     vdW  Elec       q    Type
REMARK                         _______ _______ _______ _____ _____    ______ ____
ROOT
ATOM      1  N   UNL     1      30.560  26.934  18.882  0.00  0.00    +0.000 NA
ATOM      2  C   UNL     1      29.419  27.172  19.698  0.00  0.00    +0.000 A 
ATOM      3  N   UNL     1      28.652  28.255  19.604  0.00  0.00    +0.000 NA
ATOM      4  C   UNL     1      27.581  28.444  20.394  0.00  0.00    +0.000 A 
ATOM      5  N   UNL     1      27.250  27.527  21.319  0.00  0.00    +0.000 NA
ATOM      6  C   UNL     1      27.984  26.421  21.457  0.00  0.00    +0.000 A 
ATOM      7  C   UNL     1      29.080  26.225  20.650  0.00  0.00    +0.000 A 
ATOM      8  N   UNL     1      29.624  25.042  21.006  0.00  0.00    +0.000 NA
ATOM      9  C   UNL     1      28.903  24.499  22.004  0.00  0.00    +0.000 A 
ATOM     10  C   UNL     1      29.005  23.323  22.736  0.00  0.00    +0.000 A 
ATOM     11  C   UNL     1      28.098  23.025  23.725  0.00  0.00    +0.000 A 
ATOM     12  C   UNL     1      27.051  23.870  24.038  0.00  0.00    +0.000 A 
ATOM     13 CL   UNL     1      25.916  23.445  25.310  0.00  0.00    +0.000 Cl
ATOM     14  C   UNL     1      26.940  25.040  23.318  0.00  0.00    +0.000 A 
ATOM     15  C   UNL     1      27.853  25.336  22.326  0.00  0.00    +0.000 A 
ENDROOT
BRANCH   1  16
ATOM     16  C   UNL     1      30.969  27.883  17.869  0.00  0.00    +0.000 C 
BRANCH  16  17
ATOM     17  C   UNL     1      30.858  27.226  16.510  0.00  0.00    +0.000 C 
BRANCH  17  19
ATOM     18  C   UNL     1      28.918  26.352  15.280  0.00  0.00    +0.000 C 
ATOM     19  C   UNL     1      29.495  27.597  15.935  0.00  0.00    +0.000 C 
ENDBRANCH  17  19
ENDBRANCH  16  17
ENDBRANCH   1  16
TORSDOF 3
ENDMDL
MODEL 5
REMARK VINA RESULT:      -5.7     19.930     21.434
REMARK  Name = 
REMARK  3 active torsions:
REMARK  status: ('A' for Active; 'I' for Inactive)
REMARK    1  A    between atoms: C_2  and  C_3
REMARK    2  A    between atoms: C_3  and  C_4
REMARK    3  A    between atoms: C_4  and  N_5
REMARK                            x       y       z     vdW  Elec       q    Type
REMARK                         _______ _______ _______ _____ _____    ______ ____
ROOT
ATOM      1  N   UNL     1      34.044   3.599  36.338  0.00  0.00    +0.000 NA
ATOM      2  C   UNL     1      33.939   2.892  35.106  0.00  0.00    +0.000 A 
ATOM      3  N   UNL     1      33.920   3.480  33.913  0.00  0.00    +0.000 NA
ATOM      4  C   UNL     1      33.819   2.778  32.772  0.00  0.00    +0.000 A 
ATOM      5  N   UNL     1      33.734   1.436  32.805  0.00  0.00    +0.000 NA
ATOM      6  C   UNL     1      33.748   0.795  33.975  0.00  0.00    +0.000 A 
ATOM      7  C   UNL     1      33.851   1.510  35.145  0.00  0.00    +0.000 A 
ATOM      8  N   UNL     1      33.842   0.617  36.155  0.00  0.00    +0.000 NA
ATOM      9  C   UNL     1      33.738  -0.628  35.653  0.00  0.00    +0.000 A 
ATOM     10  C   UNL     1      33.683  -1.894  36.221  0.00  0.00    +0.000 A 
ATOM     11  C   UNL     1      33.572  -3.017  35.436  0.00  0.00    +0.000 A 
ATOM     12  C   UNL     1      33.510  -2.944  34.059  0.00  0.00    +0.000 A 
ATOM     13 CL   UNL     1      33.369  -4.408  33.097  0.00  0.00    +0.000 Cl
ATOM     14  C   UNL     1      33.564  -1.692  33.484  0.00  0.00    +0.000 A 
ATOM     15  C   UNL     1      33.675  -0.568  34.275  0.00  0.00    +0.000 A 
ENDROOT
BRANCH   1  16
ATOM     16  C   UNL     1      34.139   5.042  36.368  0.00  0.00    +0.000 C 
BRANCH  16  17
ATOM     17  C   UNL     1      35.600   5.435  36.416  0.00  0.00    +0.000 C 
BRANCH  17  19
ATOM     18  C   UNL     1      35.704   7.781  35.688  0.00  0.00    +0.000 C 
ATOM     19  C   UNL     1      35.866   6.343  35.219  0.00  0.00    +0.000 C 
ENDBRANCH  17  19
ENDBRANCH  16  17
ENDBRANCH   1  16
TORSDOF 3
ENDMDL
MODEL 6
REMARK VINA RESULT:      -5.6     18.390     19.521
REMARK  Name = 
REMARK  3 active torsions:
REMARK  status: ('A' for Active; 'I' for Inactive)
REMARK    1  A    between atoms: C_2  and  C_3
REMARK    2  A    between atoms: C_3  and  C_4
REMARK    3  A    between atoms: C_4  and  N_5
REMARK                            x       y       z     vdW  Elec       q    Type
REMARK                         _______ _______ _______ _____ _____    ______ ____
ROOT
ATOM      1  N   UNL     1      29.790  22.366  30.211  0.00  0.00    +0.000 NA
ATOM      2  C   UNL     1      28.607  22.720  29.501  0.00  0.00    +0.000 A 
ATOM      3  N   UNL     1      27.440  22.974  30.086  0.00  0.00    +0.000 NA
ATOM      4  C   UNL     1      26.345  23.305  29.380  0.00  0.00    +0.000 A 
ATOM      5  N   UNL     1      26.400  23.388  28.040  0.00  0.00    +0.000 NA
ATOM      6  C   UNL     1      27.546  23.142  27.402  0.00  0.00    +0.000 A 
ATOM      7  C   UNL     1      28.669  22.804  28.120  0.00  0.00    +0.000 A 
ATOM      8  N   UNL     1      29.664  22.615  27.230  0.00  0.00    +0.000 NA
ATOM      9  C   UNL     1      29.199  22.824  25.985  0.00  0.00    +0.000 A 
ATOM     10  C   UNL     1      29.771  22.770  24.721  0.00  0.00    +0.000 A 
ATOM     11  C   UNL     1      29.029  23.040  23.596  0.00  0.00    +0.000 A 
ATOM     12  C   UNL     1      27.691  23.376  23.664  0.00  0.00    +0.000 A 
ATOM     13 CL   UNL     1      26.783  23.714  22.198  0.00  0.00    +0.000 Cl
ATOM     14  C   UNL     1      27.112  23.433  24.914  0.00  0.00    +0.000 A 
ATOM     15  C   UNL     1      27.861  23.161  26.041  0.00  0.00    +0.000 A 
ENDROOT
BRANCH   1  16
ATOM     16  C   UNL     1      29.794  22.261  31.655  0.00  0.00    +0.000 C 
BRANCH  16  17
ATOM     17  C   UNL     1      31.136  21.721  32.102  0.00  0.00    +0.000 C 
BRANCH  17  19
ATOM     18  C   UNL     1      33.358  21.051  31.294  0.00  0.00    +0.000 C 
ATOM     19  C   UNL     1      31.969  21.479  30.847  0.00  0.00    +0.000 C 
ENDBRANCH  17  19
ENDBRANCH  16  17
ENDBRANCH   1  16
TORSDOF 3
ENDMDL
MODEL 7
REMARK VINA RESULT:      -5.5     22.727     25.341
REMARK  Name = 
REMARK  3 active torsions:
REMARK  status: ('A' for Active; 'I' for Inactive)
REMARK    1  A    between atoms: C_2  and  C_3
REMARK    2  A    between atoms: C_3  and  C_4
REMARK    3  A    between atoms: C_4  and  N_5
REMARK                            x       y       z     vdW  Elec       q    Type
REMARK                         _______ _______ _______ _____ _____    ______ ____
ROOT
ATOM      1  N   UNL     1      33.159  -3.001  33.439  0.00  0.00    +0.000 NA
ATOM      2  C   UNL     1      33.788  -4.275  33.531  0.00  0.00    +0.000 A 
ATOM      3  N   UNL     1      34.206  -4.815  34.673  0.00  0.00    +0.000 NA
ATOM      4  C   UNL     1      34.797  -6.022  34.719  0.00  0.00    +0.000 A 
ATOM      5  N   UNL     1      34.984  -6.729  33.591  0.00  0.00    +0.000 NA
ATOM      6  C   UNL     1      34.584  -6.235  32.418  0.00  0.00    +0.000 A 
ATOM      7  C   UNL     1      33.980  -5.000  32.367  0.00  0.00    +0.000 A 
ATOM      8  N   UNL     1      33.685  -4.759  31.073  0.00  0.00    +0.000 NA
ATOM      9  C   UNL     1      34.085  -5.800  30.320  0.00  0.00    +0.000 A 
ATOM     10  C   UNL     1      34.035  -6.081  28.961  0.00  0.00    +0.000 A 
ATOM     11  C   UNL     1      34.538  -7.260  28.463  0.00  0.00    +0.000 A 
ATOM     12  C   UNL     1      35.112  -8.214  29.280  0.00  0.00    +0.000 A 
ATOM     13 CL   UNL     1      35.740  -9.706  28.597  0.00  0.00    +0.000 Cl
ATOM     14  C   UNL     1      35.167  -7.946  30.631  0.00  0.00    +0.000 A 
ATOM     15  C   UNL     1      34.662  -6.761  31.126  0.00  0.00    +0.000 A 
ENDROOT
BRANCH   1  16
ATOM     16  C   UNL     1      32.929  -2.192  34.617  0.00  0.00    +0.000 C 
BRANCH  16  17
ATOM     17  C   UNL     1      33.000  -0.731  34.229  0.00  0.00    +0.000 C 
BRANCH  17  19
ATOM     18  C   UNL     1      34.248   0.358  32.412  0.00  0.00    +0.000 C 
ATOM     19  C   UNL     1      34.399  -0.475  33.675  0.00  0.00    +0.000 C 
ENDBRANCH  17  19
ENDBRANCH  16  17
ENDBRANCH   1  16
TORSDOF 3
ENDMDL
MODEL 8
REMARK VINA RESULT:      -5.3     22.296     24.743
REMARK  Name = 
REMARK  3 active torsions:
REMARK  status: ('A' for Active; 'I' for Inactive)
REMARK    1  A    between atoms: C_2  and  C_3
REMARK    2  A    between atoms: C_3  and  C_4
REMARK    3  A    between atoms: C_4  and  N_5
REMARK                            x       y       z     vdW  Elec       q    Type
REMARK                         _______ _______ _______ _____ _____    ______ ____
ROOT
ATOM      1  N   UNL     1      29.822  26.004  20.071  0.00  0.00    +0.000 NA
ATOM      2  C   UNL     1      28.954  26.102  21.195  0.00  0.00    +0.000 A 
ATOM      3  N   UNL     1      27.965  26.985  21.294  0.00  0.00    +0.000 NA
ATOM      4  C   UNL     1      27.166  27.046  22.373  0.00  0.00    +0.000 A 
ATOM      5  N   UNL     1      27.349  26.200  23.402  0.00  0.00    +0.000 NA
ATOM      6  C   UNL     1      28.327  25.294  23.356  0.00  0.00    +0.000 A 
ATOM      7  C   UNL     1      29.146  25.229  22.253  0.00  0.00    +0.000 A 
ATOM      8  N   UNL     1      30.030  24.235  22.478  0.00  0.00    +0.000 NA
ATOM      9  C   UNL     1      29.788  23.682  23.680  0.00  0.00    +0.000 A 
ATOM     10  C   UNL     1      30.375  22.650  24.401  0.00  0.00    +0.000 A 
ATOM     11  C   UNL     1      29.901  22.295  25.642  0.00  0.00    +0.000 A 
ATOM     12  C   UNL     1      28.829  22.939  26.228  0.00  0.00    +0.000 A 
ATOM     13 CL   UNL     1      28.258  22.450  27.816  0.00  0.00    +0.000 Cl
ATOM     14  C   UNL     1      28.239  23.965  25.521  0.00  0.00    +0.000 A 
ATOM     15  C   UNL     1      28.718  24.318  24.276  0.00  0.00    +0.000 A 
ENDROOT
BRANCH   1  16
ATOM     16  C   UNL     1      29.676  26.887  18.933  0.00  0.00    +0.000 C 
BRANCH  16  17
ATOM     17  C   UNL     1      30.996  27.584  18.682  0.00  0.00    +0.000 C 
BRANCH  17  19
ATOM     18  C   UNL     1      30.280  27.223  16.358  0.00  0.00    +0.000 C 
ATOM     19  C   UNL     1      30.912  28.232  17.304  0.00  0.00    +0.000 C 
ENDBRANCH  17  19
ENDBRANCH  16  17
ENDBRANCH   1  16
TORSDOF 3
ENDMDL
MODEL 9
REMARK VINA RESULT:      -5.3     25.085     26.976
REMARK  Name = 
REMARK  3 active torsions:
REMARK  status: ('A' for Active; 'I' for Inactive)
REMARK    1  A    between atoms: C_2  and  C_3
REMARK    2  A    between atoms: C_3  and  C_4
REMARK    3  A    between atoms: C_4  and  N_5
REMARK                            x       y       z     vdW  Elec       q    Type
REMARK                         _______ _______ _______ _____ _____    ______ ____
ROOT
ATOM      1  N   UNL     1      29.524  24.901  20.861  0.00  0.00    +0.000 NA
ATOM      2  C   UNL     1      29.176  26.280  20.793  0.00  0.00    +0.000 A 
ATOM      3  N   UNL     1      28.292  26.862  21.598  0.00  0.00    +0.000 NA
ATOM      4  C   UNL     1      27.989  28.168  21.502  0.00  0.00    +0.000 A 
ATOM      5  N   UNL     1      28.584  28.936  20.573  0.00  0.00    +0.000 NA
ATOM      6  C   UNL     1      29.480  28.404  19.739  0.00  0.00    +0.000 A 
ATOM      7  C   UNL     1      29.791  27.068  19.834  0.00  0.00    +0.000 A 
ATOM      8  N   UNL     1      30.711  26.809  18.882  0.00  0.00    +0.000 NA
ATOM      9  C   UNL     1      30.981  27.938  18.201  0.00  0.00    +0.000 A 
ATOM     10  C   UNL     1      31.827  28.245  17.142  0.00  0.00    +0.000 A 
ATOM     11  C   UNL     1      31.894  29.522  16.639  0.00  0.00    +0.000 A 
ATOM     12  C   UNL     1      31.133  30.553  17.153  0.00  0.00    +0.000 A 
ATOM     13 CL   UNL     1      31.254  32.170  16.476  0.00  0.00    +0.000 Cl
ATOM     14  C   UNL     1      30.290  30.260  18.204  0.00  0.00    +0.000 A 
ATOM     15  C   UNL     1      30.225  28.977  18.706  0.00  0.00    +0.000 A 
ENDROOT
BRANCH   1  16
ATOM     16  C   UNL     1      28.919  24.023  21.839  0.00  0.00    +0.000 C 
BRANCH  16  17
ATOM     17  C   UNL     1      29.710  24.105  23.127  0.00  0.00    +0.000 C 
BRANCH  17  19
ATOM     18  C   UNL     1      30.602  22.530  24.790  0.00  0.00    +0.000 C 
ATOM     19  C   UNL     1      29.383  22.859  23.943  0.00  0.00    +0.000 C 
ENDBRANCH  17  19
ENDBRANCH  16  17
ENDBRANCH   1  16
TORSDOF 3
ENDMDL
MODEL 10
REMARK VINA RESULT:      -5.3     24.008     25.231
REMARK  Name = 
REMARK  3 active torsions:
REMARK  status: ('A' for Active; 'I' for Inactive)
REMARK    1  A    between atoms: C_2  and  C_3
REMARK    2  A    between atoms: C_3  and  C_4
REMARK    3  A    between atoms: C_4  and  N_5
REMARK                            x       y       z     vdW  Elec       q    Type
REMARK                         _______ _______ _______ _____ _____    ______ ____
ROOT
ATOM      1  N   UNL     1       4.744   4.291  15.975  0.00  0.00    +0.000 NA
ATOM      2  C   UNL     1       5.898   4.151  15.152  0.00  0.00    +0.000 A 
ATOM      3  N   UNL     1       6.490   5.164  14.526  0.00  0.00    +0.000 NA
ATOM      4  C   UNL     1       7.579   4.991  13.757  0.00  0.00    +0.000 A 
ATOM      5  N   UNL     1       8.110   3.767  13.598  0.00  0.00    +0.000 NA
ATOM      6  C   UNL     1       7.557   2.714  14.204  0.00  0.00    +0.000 A 
ATOM      7  C   UNL     1       6.443   2.887  14.991  0.00  0.00    +0.000 A 
ATOM      8  N   UNL     1       6.106   1.672  15.469  0.00  0.00    +0.000 NA
ATOM      9  C   UNL     1       6.972   0.752  15.007  0.00  0.00    +0.000 A 
ATOM     10  C   UNL     1       7.098  -0.622  15.173  0.00  0.00    +0.000 A 
ATOM     11  C   UNL     1       8.112  -1.318  14.559  0.00  0.00    +0.000 A 
ATOM     12  C   UNL     1       9.045  -0.695  13.754  0.00  0.00    +0.000 A 
ATOM     13 CL   UNL     1      10.324  -1.628  12.991  0.00  0.00    +0.000 Cl
ATOM     14  C   UNL     1       8.930   0.668  13.582  0.00  0.00    +0.000 A 
ATOM     15  C   UNL     1       7.911   1.363  14.200  0.00  0.00    +0.000 A 
ENDROOT
BRANCH   1  16
ATOM     16  C   UNL     1       4.126   5.582  16.185  0.00  0.00    +0.000 C 
BRANCH  16  17
ATOM     17  C   UNL     1       2.770   5.377  16.824  0.00  0.00    +0.000 C 
BRANCH  17  19
ATOM     18  C   UNL     1       2.119   7.683  17.372  0.00  0.00    +0.000 C 
ATOM     19  C   UNL     1       1.884   6.542  16.394  0.00  0.00    +0.000 C 
ENDBRANCH  17  19
ENDBRANCH  16  17
ENDBRANCH   1  16
TORSDOF 3
ENDMDL
