MODEL 1
REMARK VINA RESULT:      -7.2      0.000      0.000
REMARK  Name = 
REMARK  0 active torsions:
REMARK  status: ('A' for Active; 'I' for Inactive)
REMARK                            x       y       z     vdW  Elec       q    Type
REMARK                         _______ _______ _______ _____ _____    ______ ____
ROOT
ATOM      1  C   UNL     1      24.545  25.468  27.915  0.00  0.00    +0.000 C 
ATOM      2  C   UNL     1      25.192  25.034  26.630  0.00  0.00    +0.000 C 
ATOM      3  C   UNL     1      26.232  24.273  26.524  0.00  0.00    +0.000 C 
ATOM      4  C   UNL     1      27.264  23.506  27.188  0.00  0.00    +0.000 A 
ATOM      5  C   UNL     1      27.477  23.216  28.538  0.00  0.00    +0.000 A 
ATOM      6  C   UNL     1      26.491  23.537  29.562  0.00  0.00    +0.000 C 
ATOM      7  C   UNL     1      28.671  22.610  28.870  0.00  0.00    +0.000 A 
ATOM      8  C   UNL     1      29.643  22.290  27.907  0.00  0.00    +0.000 A 
ATOM      9  C   UNL     1      29.392  22.591  26.574  0.00  0.00    +0.000 A 
ATOM     10  C   UNL     1      30.319  22.306  25.566  0.00  0.00    +0.000 A 
ATOM     11  C   UNL     1      29.942  22.665  24.266  0.00  0.00    +0.000 A 
ATOM     12  C   UNL     1      28.710  23.270  23.983  0.00  0.00    +0.000 A 
ATOM     13  C   UNL     1      28.455  23.588  22.555  0.00  0.00    +0.000 C 
ATOM     14  C   UNL     1      27.803  23.547  24.967  0.00  0.00    +0.000 A 
ATOM     15  C   UNL     1      28.219  23.183  26.252  0.00  0.00    +0.000 A 
ATOM     16  C   UNL     1      26.458  23.993  25.072  0.00  0.00    +0.000 C 
ATOM     17  O   UNL     1      25.502  23.088  24.593  0.00  0.00    +0.000 OA
ATOM     18  C   UNL     1      26.106  25.398  24.404  0.00  0.00    +0.000 C 
ATOM     19  C   UNL     1      27.037  26.310  25.389  0.00  0.00    +0.000 C 
ATOM     20  C   UNL     1      24.762  25.544  25.347  0.00  0.00    +0.000 C 
ATOM     21  O   UNL     1      23.717  26.008  24.890  0.00  0.00    +0.000 OA
ENDROOT
TORSDOF 0
ENDMDL
MODEL 2
REMARK VINA RESULT:      -7.0      1.665      4.030
REMARK  Name = 
REMARK  0 active torsions:
REMARK  status: ('A' for Active; 'I' for Inactive)
REMARK                            x       y       z     vdW  Elec       q    Type
REMARK                         _______ _______ _______ _____ _____    ______ ____
ROOT
ATOM      1  C   UNL     1      29.542  24.531  22.321  0.00  0.00    +0.000 C 
ATOM      2  C   UNL     1      28.492  24.879  23.338  0.00  0.00    +0.000 C 
ATOM      3  C   UNL     1      28.453  24.462  24.561  0.00  0.00    +0.000 C 
ATOM      4  C   UNL     1      29.056  23.660  25.604  0.00  0.00    +0.000 A 
ATOM      5  C   UNL     1      30.246  22.928  25.637  0.00  0.00    +0.000 A 
ATOM      6  C   UNL     1      31.237  23.017  24.572  0.00  0.00    +0.000 C 
ATOM      7  C   UNL     1      30.449  22.108  26.727  0.00  0.00    +0.000 A 
ATOM      8  C   UNL     1      29.512  21.999  27.769  0.00  0.00    +0.000 A 
ATOM      9  C   UNL     1      28.342  22.746  27.701  0.00  0.00    +0.000 A 
ATOM     10  C   UNL     1      27.366  22.679  28.700  0.00  0.00    +0.000 A 
ATOM     11  C   UNL     1      26.234  23.480  28.506  0.00  0.00    +0.000 A 
ATOM     12  C   UNL     1      26.083  24.305  27.383  0.00  0.00    +0.000 A 
ATOM     13  C   UNL     1      24.828  25.097  27.323  0.00  0.00    +0.000 C 
ATOM     14  C   UNL     1      27.038  24.372  26.408  0.00  0.00    +0.000 A 
ATOM     15  C   UNL     1      28.148  23.552  26.632  0.00  0.00    +0.000 A 
ATOM     16  C   UNL     1      27.317  25.149  25.252  0.00  0.00    +0.000 C 
ATOM     17  O   UNL     1      27.639  26.488  25.510  0.00  0.00    +0.000 OA
ATOM     18  C   UNL     1      26.203  25.178  24.111  0.00  0.00    +0.000 C 
ATOM     19  C   UNL     1      26.304  23.597  23.714  0.00  0.00    +0.000 C 
ATOM     20  C   UNL     1      27.317  25.649  22.991  0.00  0.00    +0.000 C 
ATOM     21  O   UNL     1      27.034  26.480  22.129  0.00  0.00    +0.000 OA
ENDROOT
TORSDOF 0
ENDMDL
MODEL 3
REMARK VINA RESULT:      -6.9      2.056      5.582
REMARK  Name = 
REMARK  0 active torsions:
REMARK  status: ('A' for Active; 'I' for Inactive)
REMARK                            x       y       z     vdW  Elec       q    Type
REMARK                         _______ _______ _______ _____ _____    ______ ____
ROOT
ATOM      1  C   UNL     1      30.930  22.663  25.024  0.00  0.00    +0.000 C 
ATOM      2  C   UNL     1      30.043  22.744  26.234  0.00  0.00    +0.000 C 
ATOM      3  C   UNL     1      28.808  23.127  26.246  0.00  0.00    +0.000 C 
ATOM      4  C   UNL     1      27.667  23.613  25.499  0.00  0.00    +0.000 A 
ATOM      5  C   UNL     1      27.476  23.816  24.130  0.00  0.00    +0.000 A 
ATOM      6  C   UNL     1      28.441  23.357  23.139  0.00  0.00    +0.000 C 
ATOM      7  C   UNL     1      26.327  24.475  23.747  0.00  0.00    +0.000 A 
ATOM      8  C   UNL     1      25.378  24.931  24.678  0.00  0.00    +0.000 A 
ATOM      9  C   UNL     1      25.603  24.707  26.031  0.00  0.00    +0.000 A 
ATOM     10  C   UNL     1      24.703  25.141  27.010  0.00  0.00    +0.000 A 
ATOM     11  C   UNL     1      25.053  24.854  28.335  0.00  0.00    +0.000 A 
ATOM     12  C   UNL     1      26.230  24.170  28.668  0.00  0.00    +0.000 A 
ATOM     13  C   UNL     1      26.459  23.938  30.117  0.00  0.00    +0.000 C 
ATOM     14  C   UNL     1      27.109  23.744  27.712  0.00  0.00    +0.000 A 
ATOM     15  C   UNL     1      26.730  24.057  26.402  0.00  0.00    +0.000 A 
ATOM     16  C   UNL     1      28.273  22.935  27.629  0.00  0.00    +0.000 C 
ATOM     17  O   UNL     1      28.060  21.574  27.887  0.00  0.00    +0.000 OA
ATOM     18  C   UNL     1      29.519  23.362  28.529  0.00  0.00    +0.000 C 
ATOM     19  C   UNL     1      29.814  24.781  27.775  0.00  0.00    +0.000 C 
ATOM     20  C   UNL     1      30.547  22.504  27.569  0.00  0.00    +0.000 C 
ATOM     21  O   UNL     1      31.479  21.864  28.055  0.00  0.00    +0.000 OA
ENDROOT
TORSDOF 0
ENDMDL
MODEL 4
REMARK VINA RESULT:      -6.8      2.487      4.790
REMARK  Name = 
REMARK  0 active torsions:
REMARK  status: ('A' for Active; 'I' for Inactive)
REMARK                            x       y       z     vdW  Elec       q    Type
REMARK                         _______ _______ _______ _____ _____    ______ ____
ROOT
ATOM      1  C   UNL     1      25.233  24.520  27.688  0.00  0.00    +0.000 C 
ATOM      2  C   UNL     1      26.311  24.289  28.709  0.00  0.00    +0.000 C 
ATOM      3  C   UNL     1      27.525  23.921  28.460  0.00  0.00    +0.000 C 
ATOM      4  C   UNL     1      28.516  23.548  27.473  0.00  0.00    +0.000 A 
ATOM      5  C   UNL     1      28.471  23.529  26.077  0.00  0.00    +0.000 A 
ATOM      6  C   UNL     1      27.357  24.105  25.333  0.00  0.00    +0.000 C 
ATOM      7  C   UNL     1      29.529  22.937  25.421  0.00  0.00    +0.000 A 
ATOM      8  C   UNL     1      30.617  22.372  26.109  0.00  0.00    +0.000 A 
ATOM      9  C   UNL     1      30.627  22.414  27.499  0.00  0.00    +0.000 A 
ATOM     10  C   UNL     1      31.674  21.864  28.245  0.00  0.00    +0.000 A 
ATOM     11  C   UNL     1      31.558  21.971  29.636  0.00  0.00    +0.000 A 
ATOM     12  C   UNL     1      30.464  22.593  30.251  0.00  0.00    +0.000 A 
ATOM     13  C   UNL     1      30.486  22.631  31.735  0.00  0.00    +0.000 C 
ATOM     14  C   UNL     1      29.441  23.133  29.522  0.00  0.00    +0.000 A 
ATOM     15  C   UNL     1      29.588  22.998  28.138  0.00  0.00    +0.000 A 
ATOM     16  C   UNL     1      28.290  23.934  29.746  0.00  0.00    +0.000 C 
ATOM     17  O   UNL     1      28.560  25.251  30.140  0.00  0.00    +0.000 OA
ATOM     18  C   UNL     1      27.209  23.380  30.780  0.00  0.00    +0.000 C 
ATOM     19  C   UNL     1      26.773  22.070  29.908  0.00  0.00    +0.000 C 
ATOM     20  C   UNL     1      26.044  24.346  30.130  0.00  0.00    +0.000 C 
ATOM     21  O   UNL     1      25.216  24.908  30.846  0.00  0.00    +0.000 OA
ENDROOT
TORSDOF 0
ENDMDL
MODEL 5
REMARK VINA RESULT:      -6.8      1.615      2.658
REMARK  Name = 
REMARK  0 active torsions:
REMARK  status: ('A' for Active; 'I' for Inactive)
REMARK                            x       y       z     vdW  Elec       q    Type
REMARK                         _______ _______ _______ _____ _____    ______ ____
ROOT
ATOM      1  C   UNL     1      25.453  26.863  24.559  0.00  0.00    +0.000 C 
ATOM      2  C   UNL     1      26.614  25.940  24.319  0.00  0.00    +0.000 C 
ATOM      3  C   UNL     1      27.005  24.993  25.108  0.00  0.00    +0.000 C 
ATOM      4  C   UNL     1      26.817  24.275  26.351  0.00  0.00    +0.000 A 
ATOM      5  C   UNL     1      25.831  24.372  27.335  0.00  0.00    +0.000 A 
ATOM      6  C   UNL     1      24.630  25.177  27.149  0.00  0.00    +0.000 C 
ATOM      7  C   UNL     1      26.039  23.671  28.505  0.00  0.00    +0.000 A 
ATOM      8  C   UNL     1      27.187  22.888  28.716  0.00  0.00    +0.000 A 
ATOM      9  C   UNL     1      28.144  22.815  27.711  0.00  0.00    +0.000 A 
ATOM     10  C   UNL     1      29.312  22.060  27.859  0.00  0.00    +0.000 A 
ATOM     11  C   UNL     1      30.193  22.074  26.771  0.00  0.00    +0.000 A 
ATOM     12  C   UNL     1      29.927  22.797  25.600  0.00  0.00    +0.000 A 
ATOM     13  C   UNL     1      30.957  22.710  24.534  0.00  0.00    +0.000 C 
ATOM     14  C   UNL     1      28.784  23.533  25.454  0.00  0.00    +0.000 A 
ATOM     15  C   UNL     1      27.934  23.501  26.564  0.00  0.00    +0.000 A 
ATOM     16  C   UNL     1      28.109  24.246  24.428  0.00  0.00    +0.000 C 
ATOM     17  O   UNL     1      27.597  23.447  23.398  0.00  0.00    +0.000 OA
ATOM     18  C   UNL     1      28.913  25.423  23.713  0.00  0.00    +0.000 C 
ATOM     19  C   UNL     1      29.038  26.387  25.025  0.00  0.00    +0.000 C 
ATOM     20  C   UNL     1      27.509  26.112  23.195  0.00  0.00    +0.000 C 
ATOM     21  O   UNL     1      27.425  26.612  22.074  0.00  0.00    +0.000 OA
ENDROOT
TORSDOF 0
ENDMDL
MODEL 6
REMARK VINA RESULT:      -6.8     32.743     33.855
REMARK  Name = 
REMARK  0 active torsions:
REMARK  status: ('A' for Active; 'I' for Inactive)
REMARK                            x       y       z     vdW  Elec       q    Type
REMARK                         _______ _______ _______ _____ _____    ______ ____
ROOT
ATOM      1  C   UNL     1      21.434 -12.227  26.601  0.00  0.00    +0.000 C 
ATOM      2  C   UNL     1      20.296 -11.248  26.680  0.00  0.00    +0.000 C 
ATOM      3  C   UNL     1      20.317 -10.025  26.263  0.00  0.00    +0.000 C 
ATOM      4  C   UNL     1      21.067  -8.951  25.647  0.00  0.00    +0.000 A 
ATOM      5  C   UNL     1      22.351  -8.917  25.096  0.00  0.00    +0.000 A 
ATOM      6  C   UNL     1      23.135 -10.129  24.888  0.00  0.00    +0.000 C 
ATOM      7  C   UNL     1      22.856  -7.680  24.754  0.00  0.00    +0.000 A 
ATOM      8  C   UNL     1      22.126  -6.494  24.944  0.00  0.00    +0.000 A 
ATOM      9  C   UNL     1      20.851  -6.570  25.492  0.00  0.00    +0.000 A 
ATOM     10  C   UNL     1      20.075  -5.428  25.714  0.00  0.00    +0.000 A 
ATOM     11  C   UNL     1      18.810  -5.646  26.274  0.00  0.00    +0.000 A 
ATOM     12  C   UNL     1      18.342  -6.927  26.594  0.00  0.00    +0.000 A 
ATOM     13  C   UNL     1      16.979  -6.995  27.179  0.00  0.00    +0.000 C 
ATOM     14  C   UNL     1      19.100  -8.044  26.375  0.00  0.00    +0.000 A 
ATOM     15  C   UNL     1      20.359  -7.786  25.823  0.00  0.00    +0.000 A 
ATOM     16  C   UNL     1      18.943  -9.455  26.420  0.00  0.00    +0.000 C 
ATOM     17  O   UNL     1      18.081  -9.980  25.447  0.00  0.00    +0.000 OA
ATOM     18  C   UNL     1      18.477 -10.089  27.807  0.00  0.00    +0.000 C 
ATOM     19  C   UNL     1      19.813  -9.685  28.654  0.00  0.00    +0.000 C 
ATOM     20  C   UNL     1      19.061 -11.565  27.365  0.00  0.00    +0.000 C 
ATOM     21  O   UNL     1      18.450 -12.596  27.643  0.00  0.00    +0.000 OA
ENDROOT
TORSDOF 0
ENDMDL
MODEL 7
REMARK VINA RESULT:      -6.6      2.289      4.053
REMARK  Name = 
REMARK  0 active torsions:
REMARK  status: ('A' for Active; 'I' for Inactive)
REMARK                            x       y       z     vdW  Elec       q    Type
REMARK                         _______ _______ _______ _____ _____    ______ ____
ROOT
ATOM      1  C   UNL     1      30.004  23.622  30.114  0.00  0.00    +0.000 C 
ATOM      2  C   UNL     1      28.967  23.326  29.067  0.00  0.00    +0.000 C 
ATOM      3  C   UNL     1      29.178  23.232  27.795  0.00  0.00    +0.000 C 
ATOM      4  C   UNL     1      30.121  23.299  26.700  0.00  0.00    +0.000 A 
ATOM      5  C   UNL     1      31.507  23.473  26.681  0.00  0.00    +0.000 A 
ATOM      6  C   UNL     1      32.306  23.437  27.900  0.00  0.00    +0.000 C 
ATOM      7  C   UNL     1      32.099  23.684  25.454  0.00  0.00    +0.000 A 
ATOM      8  C   UNL     1      31.356  23.726  24.261  0.00  0.00    +0.000 A 
ATOM      9  C   UNL     1      29.979  23.545  24.320  0.00  0.00    +0.000 A 
ATOM     10  C   UNL     1      29.181  23.583  23.173  0.00  0.00    +0.000 A 
ATOM     11  C   UNL     1      27.809  23.390  23.374  0.00  0.00    +0.000 A 
ATOM     12  C   UNL     1      27.261  23.168  24.645  0.00  0.00    +0.000 A 
ATOM     13  C   UNL     1      25.789  22.978  24.694  0.00  0.00    +0.000 C 
ATOM     14  C   UNL     1      28.042  23.130  25.766  0.00  0.00    +0.000 A 
ATOM     15  C   UNL     1      29.404  23.336  25.526  0.00  0.00    +0.000 A 
ATOM     16  C   UNL     1      27.902  22.804  27.141  0.00  0.00    +0.000 C 
ATOM     17  O   UNL     1      27.651  21.450  27.400  0.00  0.00    +0.000 OA
ATOM     18  C   UNL     1      26.813  23.619  27.974  0.00  0.00    +0.000 C 
ATOM     19  C   UNL     1      27.540  25.076  27.853  0.00  0.00    +0.000 C 
ATOM     20  C   UNL     1      27.560  23.233  29.391  0.00  0.00    +0.000 C 
ATOM     21  O   UNL     1      26.905  22.957  30.395  0.00  0.00    +0.000 OA
ENDROOT
TORSDOF 0
ENDMDL
MODEL 8
REMARK VINA RESULT:      -6.5      2.312      5.383
REMARK  Name = 
REMARK  0 active torsions:
REMARK  status: ('A' for Active; 'I' for Inactive)
REMARK                            x       y       z     vdW  Elec       q    Type
REMARK                         _______ _______ _______ _____ _____    ______ ____
ROOT
ATOM      1  C   UNL     1      28.522  27.121  21.116  0.00  0.00    +0.000 C 
ATOM      2  C   UNL     1      28.301  25.923  21.996  0.00  0.00    +0.000 C 
ATOM      3  C   UNL     1      27.485  25.856  22.995  0.00  0.00    +0.000 C 
ATOM      4  C   UNL     1      26.504  26.523  23.825  0.00  0.00    +0.000 A 
ATOM      5  C   UNL     1      25.925  27.791  23.735  0.00  0.00    +0.000 A 
ATOM      6  C   UNL     1      26.120  28.649  22.573  0.00  0.00    +0.000 C 
ATOM      7  C   UNL     1      25.154  28.208  24.800  0.00  0.00    +0.000 A 
ATOM      8  C   UNL     1      24.949  27.406  25.936  0.00  0.00    +0.000 A 
ATOM      9  C   UNL     1      25.540  26.149  25.987  0.00  0.00    +0.000 A 
ATOM     10  C   UNL     1      25.381  25.304  27.090  0.00  0.00    +0.000 A 
ATOM     11  C   UNL     1      26.033  24.067  27.013  0.00  0.00    +0.000 A 
ATOM     12  C   UNL     1      26.796  23.690  25.900  0.00  0.00    +0.000 A 
ATOM     13  C   UNL     1      27.423  22.345  25.966  0.00  0.00    +0.000 C 
ATOM     14  C   UNL     1      26.949  24.514  24.821  0.00  0.00    +0.000 A 
ATOM     15  C   UNL     1      26.292  25.743  24.938  0.00  0.00    +0.000 A 
ATOM     16  C   UNL     1      27.488  24.451  23.508  0.00  0.00    +0.000 C 
ATOM     17  O   UNL     1      26.795  23.608  22.630  0.00  0.00    +0.000 OA
ATOM     18  C   UNL     1      29.027  24.053  23.374  0.00  0.00    +0.000 C 
ATOM     19  C   UNL     1      29.626  25.376  24.122  0.00  0.00    +0.000 C 
ATOM     20  C   UNL     1      29.103  24.725  21.871  0.00  0.00    +0.000 C 
ATOM     21  O   UNL     1      29.746  24.187  20.971  0.00  0.00    +0.000 OA
ENDROOT
TORSDOF 0
ENDMDL
MODEL 9
REMARK VINA RESULT:      -6.4      2.193      4.082
REMARK  Name = 
REMARK  0 active torsions:
REMARK  status: ('A' for Active; 'I' for Inactive)
REMARK                            x       y       z     vdW  Elec       q    Type
REMARK                         _______ _______ _______ _____ _____    ______ ____
ROOT
ATOM      1  C   UNL     1      25.043  25.243  28.646  0.00  0.00    +0.000 C 
ATOM      2  C   UNL     1      26.478  24.797  28.615  0.00  0.00    +0.000 C 
ATOM      3  C   UNL     1      27.158  24.502  27.556  0.00  0.00    +0.000 C 
ATOM      4  C   UNL     1      27.189  24.367  26.116  0.00  0.00    +0.000 A 
ATOM      5  C   UNL     1      26.235  24.661  25.138  0.00  0.00    +0.000 A 
ATOM      6  C   UNL     1      25.005  25.380  25.451  0.00  0.00    +0.000 C 
ATOM      7  C   UNL     1      26.500  24.238  23.853  0.00  0.00    +0.000 A 
ATOM      8  C   UNL     1      27.674  23.541  23.520  0.00  0.00    +0.000 A 
ATOM      9  C   UNL     1      28.601  23.271  24.520  0.00  0.00    +0.000 A 
ATOM     10  C   UNL     1      29.786  22.576  24.259  0.00  0.00    +0.000 A 
ATOM     11  C   UNL     1      30.630  22.368  25.356  0.00  0.00    +0.000 A 
ATOM     12  C   UNL     1      30.315  22.829  26.642  0.00  0.00    +0.000 A 
ATOM     13  C   UNL     1      31.313  22.533  27.701  0.00  0.00    +0.000 C 
ATOM     14  C   UNL     1      29.159  23.511  26.897  0.00  0.00    +0.000 A 
ATOM     15  C   UNL     1      28.338  23.690  25.779  0.00  0.00    +0.000 A 
ATOM     16  C   UNL     1      28.571  24.233  27.970  0.00  0.00    +0.000 C 
ATOM     17  O   UNL     1      29.222  25.431  28.295  0.00  0.00    +0.000 OA
ATOM     18  C   UNL     1      28.371  23.454  29.346  0.00  0.00    +0.000 C 
ATOM     19  C   UNL     1      27.284  22.369  28.790  0.00  0.00    +0.000 C 
ATOM     20  C   UNL     1      27.222  24.533  29.828  0.00  0.00    +0.000 C 
ATOM     21  O   UNL     1      27.163  24.914  30.996  0.00  0.00    +0.000 OA
ENDROOT
TORSDOF 0
ENDMDL
MODEL 10
REMARK VINA RESULT:      -6.4     22.092     24.637
REMARK  Name = 
REMARK  0 active torsions:
REMARK  status: ('A' for Active; 'I' for Inactive)
REMARK                            x       y       z     vdW  Elec       q    Type
REMARK                         _______ _______ _______ _____ _____    ______ ____
ROOT
ATOM      1  C   UNL     1      36.037   2.390  39.869  0.00  0.00    +0.000 C 
ATOM      2  C   UNL     1      35.421   3.370  38.910  0.00  0.00    +0.000 C 
ATOM      3  C   UNL     1      34.808   3.072  37.811  0.00  0.00    +0.000 C 
ATOM      4  C   UNL     1      34.359   2.044  36.896  0.00  0.00    +0.000 A 
ATOM      5  C   UNL     1      34.409   0.650  36.974  0.00  0.00    +0.000 A 
ATOM      6  C   UNL     1      34.810  -0.042  38.193  0.00  0.00    +0.000 C 
ATOM      7  C   UNL     1      34.064  -0.056  35.840  0.00  0.00    +0.000 A 
ATOM      8  C   UNL     1      33.676   0.581  34.649  0.00  0.00    +0.000 A 
ATOM      9  C   UNL     1      33.635   1.970  34.613  0.00  0.00    +0.000 A 
ATOM     10  C   UNL     1      33.265   2.666  33.458  0.00  0.00    +0.000 A 
ATOM     11  C   UNL     1      33.269   4.063  33.557  0.00  0.00    +0.000 A 
ATOM     12  C   UNL     1      33.619   4.730  34.739  0.00  0.00    +0.000 A 
ATOM     13  C   UNL     1      33.572   6.214  34.687  0.00  0.00    +0.000 C 
ATOM     14  C   UNL     1      33.979   4.050  35.868  0.00  0.00    +0.000 A 
ATOM     15  C   UNL     1      33.971   2.658  35.728  0.00  0.00    +0.000 A 
ATOM     16  C   UNL     1      34.246   4.333  37.234  0.00  0.00    +0.000 C 
ATOM     17  O   UNL     1      33.133   4.755  37.973  0.00  0.00    +0.000 OA
ATOM     18  C   UNL     1      35.403   5.384  37.545  0.00  0.00    +0.000 C 
ATOM     19  C   UNL     1      36.632   4.490  36.947  0.00  0.00    +0.000 C 
ATOM     20  C   UNL     1      35.568   4.799  39.076  0.00  0.00    +0.000 C 
ATOM     21  O   UNL     1      35.768   5.557  40.024  0.00  0.00    +0.000 OA
ENDROOT
TORSDOF 0
ENDMDL
