MODEL 1
REMARK VINA RESULT:      -8.3      0.000      0.000
REMARK  Name = 
REMARK  7 active torsions:
REMARK  status: ('A' for Active; 'I' for Inactive)
REMARK    1  A    between atoms: C_2  and  C_3
REMARK    2  A    between atoms: C_8  and  S_9
REMARK    3  A    between atoms: S_9  and  C_10
REMARK    4  A    between atoms: C_10  and  C_11
REMARK    5  A    between atoms: N_13  and  C_14
REMARK    6  A    between atoms: C_19  and  O_20
REMARK    7  A    between atoms: C_23  and  C_24
REMARK                            x       y       z     vdW  Elec       q    Type
REMARK                         _______ _______ _______ _____ _____    ______ ____
ROOT
ATOM      1  C   UNL     1      36.081  -2.289  16.575  0.00  0.00    +0.000 A 
ATOM      2  C   UNL     1      34.821  -2.215  17.105  0.00  0.00    +0.000 A 
ATOM      3  C   UNL     1      34.199  -0.965  17.226  0.00  0.00    +0.000 A 
ATOM      4  C   UNL     1      34.817   0.191  16.827  0.00  0.00    +0.000 A 
ATOM      5  C   UNL     1      36.072   0.143  16.295  0.00  0.00    +0.000 A 
ATOM      6  C   UNL     1      36.725   1.275  15.868  0.00  0.00    +0.000 A 
ATOM      7  N   UNL     1      37.969   1.078  15.345  0.00  0.00    +0.000 NA
ATOM      8  C   UNL     1      38.562  -0.093  15.226  0.00  0.00    +0.000 A 
ATOM      9  N   UNL     1      37.915  -1.202  15.647  0.00  0.00    +0.000 NA
ATOM     10  C   UNL     1      36.695  -1.103  16.173  0.00  0.00    +0.000 A 
ENDROOT
BRANCH   8  11
ATOM     11  C   UNL     1      39.911  -0.222  14.648  0.00  0.00    +0.000 A 
ATOM     12  C   UNL     1      40.544  -1.433  14.743  0.00  0.00    +0.000 A 
ATOM     13  C   UNL     1      41.830  -1.585  14.215  0.00  0.00    +0.000 A 
ATOM     14  C   UNL     1      42.455  -0.518  13.602  0.00  0.00    +0.000 A 
ATOM     15  C   UNL     1      41.844   0.691  13.499  0.00  0.00    +0.000 A 
ATOM     16  C   UNL     1      40.560   0.809  14.036  0.00  0.00    +0.000 A 
ENDBRANCH   8  11
BRANCH   1  18
ATOM     17  C   UNL     1      35.808  -4.616  15.959  0.00  0.00    +0.000 C 
ATOM     18  C   UNL     1      36.791  -3.576  16.436  0.00  0.00    +0.000 C 
ENDBRANCH   1  18
BRANCH   6  19
ATOM     19  S   UNL     1      36.018   2.878  15.938  0.00  0.00    +0.000 S 
BRANCH  19  20
ATOM     20  C   UNL     1      37.074   4.240  15.697  0.00  0.00    +0.000 C 
BRANCH  20  21
ATOM     21  C   UNL     1      38.041   4.640  16.698  0.00  0.00    +0.000 C 
ATOM     22  O   UNL     1      38.434   3.833  17.575  0.00  0.00    +0.000 OA
ATOM     23  N   UNL     1      38.607   5.964  16.773  0.00  0.00    +0.000 NA
BRANCH  23  24
ATOM     24  C   UNL     1      39.532   6.233  17.811  0.00  0.00    +0.000 A 
ATOM     25  C   UNL     1      39.140   6.453  19.102  0.00  0.00    +0.000 A 
ATOM     26  C   UNL     1      40.094   6.707  20.061  0.00  0.00    +0.000 A 
ATOM     27  C   UNL     1      41.431   6.745  19.747  0.00  0.00    +0.000 A 
ATOM     28  C   UNL     1      41.793   6.519  18.438  0.00  0.00    +0.000 A 
ATOM     29  C   UNL     1      40.864   6.264  17.464  0.00  0.00    +0.000 A 
BRANCH  29  30
ATOM     30  O   UNL     1      41.252   6.037  16.124  0.00  0.00    +0.000 OA
ATOM     31  C   UNL     1      42.034   7.014  15.509  0.00  0.00    +0.000 C 
ENDBRANCH  29  30
ENDBRANCH  23  24
ENDBRANCH  20  21
ENDBRANCH  19  20
ENDBRANCH   6  19
TORSDOF 7
ENDMDL
MODEL 2
REMARK VINA RESULT:      -8.0      1.369      4.731
REMARK  Name = 
REMARK  7 active torsions:
REMARK  status: ('A' for Active; 'I' for Inactive)
REMARK    1  A    between atoms: C_2  and  C_3
REMARK    2  A    between atoms: C_8  and  S_9
REMARK    3  A    between atoms: S_9  and  C_10
REMARK    4  A    between atoms: C_10  and  C_11
REMARK    5  A    between atoms: N_13  and  C_14
REMARK    6  A    between atoms: C_19  and  O_20
REMARK    7  A    between atoms: C_23  and  C_24
REMARK                            x       y       z     vdW  Elec       q    Type
REMARK                         _______ _______ _______ _____ _____    ______ ____
ROOT
ATOM      1  C   UNL     1      40.718  -0.789  14.321  0.00  0.00    +0.000 A 
ATOM      2  C   UNL     1      41.797  -0.169  13.751  0.00  0.00    +0.000 A 
ATOM      3  C   UNL     1      41.701   1.180  13.386  0.00  0.00    +0.000 A 
ATOM      4  C   UNL     1      40.553   1.903  13.585  0.00  0.00    +0.000 A 
ATOM      5  C   UNL     1      39.465   1.308  14.151  0.00  0.00    +0.000 A 
ATOM      6  C   UNL     1      38.297   1.996  14.383  0.00  0.00    +0.000 A 
ATOM      7  N   UNL     1      37.295   1.279  14.968  0.00  0.00    +0.000 NA
ATOM      8  C   UNL     1      37.376   0.010  15.316  0.00  0.00    +0.000 A 
ATOM      9  N   UNL     1      38.526  -0.660  15.086  0.00  0.00    +0.000 NA
ATOM     10  C   UNL     1      39.558  -0.039  14.517  0.00  0.00    +0.000 A 
ENDROOT
BRANCH   8  11
ATOM     11  C   UNL     1      36.245  -0.693  15.946  0.00  0.00    +0.000 A 
ATOM     12  C   UNL     1      36.040  -2.008  15.624  0.00  0.00    +0.000 A 
ATOM     13  C   UNL     1      34.968  -2.701  16.196  0.00  0.00    +0.000 A 
ATOM     14  C   UNL     1      34.123  -2.060  17.079  0.00  0.00    +0.000 A 
ATOM     15  C   UNL     1      34.310  -0.755  17.409  0.00  0.00    +0.000 A 
ATOM     16  C   UNL     1      35.390  -0.093  16.822  0.00  0.00    +0.000 A 
ENDBRANCH   8  11
BRANCH   1  18
ATOM     17  C   UNL     1      41.311  -3.010  13.559  0.00  0.00    +0.000 C 
ATOM     18  C   UNL     1      40.756  -2.212  14.712  0.00  0.00    +0.000 C 
ENDBRANCH   1  18
BRANCH   6  19
ATOM     19  S   UNL     1      38.090   3.694  14.002  0.00  0.00    +0.000 S 
BRANCH  19  20
ATOM     20  C   UNL     1      37.464   4.734  15.249  0.00  0.00    +0.000 C 
BRANCH  20  21
ATOM     21  C   UNL     1      38.236   5.054  16.431  0.00  0.00    +0.000 C 
ATOM     22  O   UNL     1      38.452   4.189  17.315  0.00  0.00    +0.000 OA
ATOM     23  N   UNL     1      38.796   6.358  16.688  0.00  0.00    +0.000 NA
BRANCH  23  24
ATOM     24  C   UNL     1      39.519   6.546  17.891  0.00  0.00    +0.000 A 
ATOM     25  C   UNL     1      40.815   6.138  18.036  0.00  0.00    +0.000 A 
ATOM     26  C   UNL     1      41.458   6.354  19.234  0.00  0.00    +0.000 A 
ATOM     27  C   UNL     1      40.823   6.971  20.286  0.00  0.00    +0.000 A 
ATOM     28  C   UNL     1      39.517   7.370  20.106  0.00  0.00    +0.000 A 
ATOM     29  C   UNL     1      38.854   7.166  18.925  0.00  0.00    +0.000 A 
BRANCH  29  30
ATOM     30  O   UNL     1      37.512   7.578  18.758  0.00  0.00    +0.000 OA
ATOM     31  C   UNL     1      37.085   8.681  19.495  0.00  0.00    +0.000 C 
ENDBRANCH  29  30
ENDBRANCH  23  24
ENDBRANCH  20  21
ENDBRANCH  19  20
ENDBRANCH   6  19
TORSDOF 7
ENDMDL
MODEL 3
REMARK VINA RESULT:      -7.9      1.926      2.787
REMARK  Name = 
REMARK  7 active torsions:
REMARK  status: ('A' for Active; 'I' for Inactive)
REMARK    1  A    between atoms: C_2  and  C_3
REMARK    2  A    between atoms: C_8  and  S_9
REMARK    3  A    between atoms: S_9  and  C_10
REMARK    4  A    between atoms: C_10  and  C_11
REMARK    5  A    between atoms: N_13  and  C_14
REMARK    6  A    between atoms: C_19  and  O_20
REMARK    7  A    between atoms: C_23  and  C_24
REMARK                            x       y       z     vdW  Elec       q    Type
REMARK                         _______ _______ _______ _____ _____    ______ ____
ROOT
ATOM      1  C   UNL     1      35.841   0.936  16.513  0.00  0.00    +0.000 A 
ATOM      2  C   UNL     1      34.736   1.739  16.603  0.00  0.00    +0.000 A 
ATOM      3  C   UNL     1      34.613   2.837  15.742  0.00  0.00    +0.000 A 
ATOM      4  C   UNL     1      35.570   3.134  14.807  0.00  0.00    +0.000 A 
ATOM      5  C   UNL     1      36.679   2.349  14.698  0.00  0.00    +0.000 A 
ATOM      6  C   UNL     1      37.659   2.599  13.766  0.00  0.00    +0.000 A 
ATOM      7  N   UNL     1      38.706   1.726  13.759  0.00  0.00    +0.000 NA
ATOM      8  C   UNL     1      38.831   0.689  14.564  0.00  0.00    +0.000 A 
ATOM      9  N   UNL     1      37.865   0.448  15.477  0.00  0.00    +0.000 NA
ATOM     10  C   UNL     1      36.806   1.252  15.555  0.00  0.00    +0.000 A 
ENDROOT
BRANCH   8  11
ATOM     11  C   UNL     1      39.995  -0.210  14.493  0.00  0.00    +0.000 A 
ATOM     12  C   UNL     1      39.833  -1.514  14.880  0.00  0.00    +0.000 A 
ATOM     13  C   UNL     1      40.922  -2.390  14.836  0.00  0.00    +0.000 A 
ATOM     14  C   UNL     1      42.153  -1.940  14.403  0.00  0.00    +0.000 A 
ATOM     15  C   UNL     1      42.335  -0.650  14.016  0.00  0.00    +0.000 A 
ATOM     16  C   UNL     1      41.227   0.198  14.071  0.00  0.00    +0.000 A 
ENDBRANCH   8  11
BRANCH   1  18
ATOM     17  C   UNL     1      34.891  -1.188  17.185  0.00  0.00    +0.000 C 
ATOM     18  C   UNL     1      36.032  -0.227  17.403  0.00  0.00    +0.000 C 
ENDBRANCH   1  18
BRANCH   6  19
ATOM     19  S   UNL     1      37.579   3.922  12.618  0.00  0.00    +0.000 S 
BRANCH  19  20
ATOM     20  C   UNL     1      38.027   5.508  13.177  0.00  0.00    +0.000 C 
BRANCH  20  21
ATOM     21  C   UNL     1      38.515   5.731  14.521  0.00  0.00    +0.000 C 
ATOM     22  O   UNL     1      39.745   5.726  14.771  0.00  0.00    +0.000 OA
ATOM     23  N   UNL     1      37.652   5.958  15.654  0.00  0.00    +0.000 NA
BRANCH  23  24
ATOM     24  C   UNL     1      38.255   6.147  16.921  0.00  0.00    +0.000 A 
ATOM     25  C   UNL     1      38.756   5.108  17.655  0.00  0.00    +0.000 A 
ATOM     26  C   UNL     1      39.330   5.365  18.880  0.00  0.00    +0.000 A 
ATOM     27  C   UNL     1      39.409   6.643  19.379  0.00  0.00    +0.000 A 
ATOM     28  C   UNL     1      38.895   7.667  18.615  0.00  0.00    +0.000 A 
ATOM     29  C   UNL     1      38.318   7.439  17.394  0.00  0.00    +0.000 A 
BRANCH  29  30
ATOM     30  O   UNL     1      37.791   8.501  16.623  0.00  0.00    +0.000 OA
ATOM     31  C   UNL     1      38.077   9.799  17.042  0.00  0.00    +0.000 C 
ENDBRANCH  29  30
ENDBRANCH  23  24
ENDBRANCH  20  21
ENDBRANCH  19  20
ENDBRANCH   6  19
TORSDOF 7
ENDMDL
MODEL 4
REMARK VINA RESULT:      -7.8      1.175      1.822
REMARK  Name = 
REMARK  7 active torsions:
REMARK  status: ('A' for Active; 'I' for Inactive)
REMARK    1  A    between atoms: C_2  and  C_3
REMARK    2  A    between atoms: C_8  and  S_9
REMARK    3  A    between atoms: S_9  and  C_10
REMARK    4  A    between atoms: C_10  and  C_11
REMARK    5  A    between atoms: N_13  and  C_14
REMARK    6  A    between atoms: C_19  and  O_20
REMARK    7  A    between atoms: C_23  and  C_24
REMARK                            x       y       z     vdW  Elec       q    Type
REMARK                         _______ _______ _______ _____ _____    ______ ____
ROOT
ATOM      1  C   UNL     1      35.897  -0.131  16.577  0.00  0.00    +0.000 A 
ATOM      2  C   UNL     1      34.785   0.601  16.895  0.00  0.00    +0.000 A 
ATOM      3  C   UNL     1      34.730   1.957  16.545  0.00  0.00    +0.000 A 
ATOM      4  C   UNL     1      35.762   2.575  15.888  0.00  0.00    +0.000 A 
ATOM      5  C   UNL     1      36.881   1.867  15.560  0.00  0.00    +0.000 A 
ATOM      6  C   UNL     1      37.935   2.442  14.890  0.00  0.00    +0.000 A 
ATOM      7  N   UNL     1      38.982   1.613  14.614  0.00  0.00    +0.000 NA
ATOM      8  C   UNL     1      39.043   0.337  14.939  0.00  0.00    +0.000 A 
ATOM      9  N   UNL     1      38.004  -0.222  15.597  0.00  0.00    +0.000 NA
ATOM     10  C   UNL     1      36.938   0.514  15.908  0.00  0.00    +0.000 A 
ENDROOT
BRANCH   8  11
ATOM     11  C   UNL     1      40.213  -0.492  14.603  0.00  0.00    +0.000 A 
ATOM     12  C   UNL     1      41.336   0.132  14.130  0.00  0.00    +0.000 A 
ATOM     13  C   UNL     1      42.460  -0.628  13.791  0.00  0.00    +0.000 A 
ATOM     14  C   UNL     1      42.434  -2.001  13.934  0.00  0.00    +0.000 A 
ATOM     15  C   UNL     1      41.329  -2.639  14.401  0.00  0.00    +0.000 A 
ATOM     16  C   UNL     1      40.224  -1.851  14.731  0.00  0.00    +0.000 A 
ENDBRANCH   8  11
BRANCH   1  18
ATOM     17  C   UNL     1      34.650  -2.191  16.837  0.00  0.00    +0.000 C 
ATOM     18  C   UNL     1      36.016  -1.559  16.934  0.00  0.00    +0.000 C 
ENDBRANCH   1  18
BRANCH   6  19
ATOM     19  S   UNL     1      37.947   4.116  14.371  0.00  0.00    +0.000 S 
BRANCH  19  20
ATOM     20  C   UNL     1      37.768   5.344  15.593  0.00  0.00    +0.000 C 
BRANCH  20  21
ATOM     21  C   UNL     1      38.689   5.451  16.704  0.00  0.00    +0.000 C 
ATOM     22  O   UNL     1      38.863   4.492  17.494  0.00  0.00    +0.000 OA
ATOM     23  N   UNL     1      39.454   6.640  16.991  0.00  0.00    +0.000 NA
BRANCH  23  24
ATOM     24  C   UNL     1      40.310   6.622  18.119  0.00  0.00    +0.000 A 
ATOM     25  C   UNL     1      39.840   6.755  19.396  0.00  0.00    +0.000 A 
ATOM     26  C   UNL     1      40.730   6.728  20.447  0.00  0.00    +0.000 A 
ATOM     27  C   UNL     1      42.079   6.569  20.237  0.00  0.00    +0.000 A 
ATOM     28  C   UNL     1      42.519   6.437  18.939  0.00  0.00    +0.000 A 
ATOM     29  C   UNL     1      41.656   6.462  17.876  0.00  0.00    +0.000 A 
BRANCH  29  30
ATOM     30  O   UNL     1      42.124   6.329  16.550  0.00  0.00    +0.000 OA
ATOM     31  C   UNL     1      43.103   7.225  16.122  0.00  0.00    +0.000 C 
ENDBRANCH  29  30
ENDBRANCH  23  24
ENDBRANCH  20  21
ENDBRANCH  19  20
ENDBRANCH   6  19
TORSDOF 7
ENDMDL
MODEL 5
REMARK VINA RESULT:      -7.7      2.855      8.255
REMARK  Name = 
REMARK  7 active torsions:
REMARK  status: ('A' for Active; 'I' for Inactive)
REMARK    1  A    between atoms: C_2  and  C_3
REMARK    2  A    between atoms: C_8  and  S_9
REMARK    3  A    between atoms: S_9  and  C_10
REMARK    4  A    between atoms: C_10  and  C_11
REMARK    5  A    between atoms: N_13  and  C_14
REMARK    6  A    between atoms: C_19  and  O_20
REMARK    7  A    between atoms: C_23  and  C_24
REMARK                            x       y       z     vdW  Elec       q    Type
REMARK                         _______ _______ _______ _____ _____    ______ ____
ROOT
ATOM      1  C   UNL     1      36.250   7.545  14.578  0.00  0.00    +0.000 A 
ATOM      2  C   UNL     1      35.277   7.332  13.639  0.00  0.00    +0.000 A 
ATOM      3  C   UNL     1      35.097   6.044  13.117  0.00  0.00    +0.000 A 
ATOM      4  C   UNL     1      35.868   4.986  13.522  0.00  0.00    +0.000 A 
ATOM      5  C   UNL     1      36.843   5.173  14.456  0.00  0.00    +0.000 A 
ATOM      6  C   UNL     1      37.632   4.139  14.902  0.00  0.00    +0.000 A 
ATOM      7  N   UNL     1      38.557   4.468  15.848  0.00  0.00    +0.000 NA
ATOM      8  C   UNL     1      38.735   5.675  16.346  0.00  0.00    +0.000 A 
ATOM      9  N   UNL     1      37.956   6.687  15.904  0.00  0.00    +0.000 NA
ATOM     10  C   UNL     1      37.026   6.457  14.979  0.00  0.00    +0.000 A 
ENDROOT
BRANCH   8  11
ATOM     11  C   UNL     1      39.759   5.948  17.369  0.00  0.00    +0.000 A 
ATOM     12  C   UNL     1      39.390   5.893  18.687  0.00  0.00    +0.000 A 
ATOM     13  C   UNL     1      40.336   6.159  19.682  0.00  0.00    +0.000 A 
ATOM     14  C   UNL     1      41.634   6.475  19.334  0.00  0.00    +0.000 A 
ATOM     15  C   UNL     1      42.019   6.536  18.032  0.00  0.00    +0.000 A 
ATOM     16  C   UNL     1      41.050   6.264  17.064  0.00  0.00    +0.000 A 
ENDBRANCH   8  11
BRANCH   1  18
ATOM     17  C   UNL     1      35.311   9.262  16.006  0.00  0.00    +0.000 C 
ATOM     18  C   UNL     1      36.495   8.884  15.152  0.00  0.00    +0.000 C 
ENDBRANCH   1  18
BRANCH   6  19
ATOM     19  S   UNL     1      37.458   2.487  14.344  0.00  0.00    +0.000 S 
BRANCH  19  20
ATOM     20  C   UNL     1      36.293   1.477  15.150  0.00  0.00    +0.000 C 
BRANCH  20  21
ATOM     21  C   UNL     1      36.641   0.163  15.649  0.00  0.00    +0.000 C 
ATOM     22  O   UNL     1      35.806  -0.774  15.640  0.00  0.00    +0.000 OA
ATOM     23  N   UNL     1      37.936  -0.164  16.192  0.00  0.00    +0.000 NA
BRANCH  23  24
ATOM     24  C   UNL     1      38.145  -1.483  16.663  0.00  0.00    +0.000 A 
ATOM     25  C   UNL     1      38.568  -2.493  15.844  0.00  0.00    +0.000 A 
ATOM     26  C   UNL     1      38.752  -3.752  16.369  0.00  0.00    +0.000 A 
ATOM     27  C   UNL     1      38.520  -4.014  17.698  0.00  0.00    +0.000 A 
ATOM     28  C   UNL     1      38.095  -2.975  18.496  0.00  0.00    +0.000 A 
ATOM     29  C   UNL     1      37.903  -1.713  17.998  0.00  0.00    +0.000 A 
BRANCH  29  30
ATOM     30  O   UNL     1      37.463  -0.658  18.829  0.00  0.00    +0.000 OA
ATOM     31  C   UNL     1      36.157  -0.725  19.314  0.00  0.00    +0.000 C 
ENDBRANCH  29  30
ENDBRANCH  23  24
ENDBRANCH  20  21
ENDBRANCH  19  20
ENDBRANCH   6  19
TORSDOF 7
ENDMDL
MODEL 6
REMARK VINA RESULT:      -7.7      2.410      7.771
REMARK  Name = 
REMARK  7 active torsions:
REMARK  status: ('A' for Active; 'I' for Inactive)
REMARK    1  A    between atoms: C_2  and  C_3
REMARK    2  A    between atoms: C_8  and  S_9
REMARK    3  A    between atoms: S_9  and  C_10
REMARK    4  A    between atoms: C_10  and  C_11
REMARK    5  A    between atoms: N_13  and  C_14
REMARK    6  A    between atoms: C_19  and  O_20
REMARK    7  A    between atoms: C_23  and  C_24
REMARK                            x       y       z     vdW  Elec       q    Type
REMARK                         _______ _______ _______ _____ _____    ______ ____
ROOT
ATOM      1  C   UNL     1      40.401   4.631  13.608  0.00  0.00    +0.000 A 
ATOM      2  C   UNL     1      40.186   3.981  12.423  0.00  0.00    +0.000 A 
ATOM      3  C   UNL     1      38.957   3.345  12.201  0.00  0.00    +0.000 A 
ATOM      4  C   UNL     1      37.958   3.356  13.139  0.00  0.00    +0.000 A 
ATOM      5  C   UNL     1      38.148   3.998  14.327  0.00  0.00    +0.000 A 
ATOM      6  C   UNL     1      37.169   4.047  15.292  0.00  0.00    +0.000 A 
ATOM      7  N   UNL     1      37.491   4.735  16.425  0.00  0.00    +0.000 NA
ATOM      8  C   UNL     1      38.643   5.336  16.643  0.00  0.00    +0.000 A 
ATOM      9  N   UNL     1      39.600   5.285  15.691  0.00  0.00    +0.000 NA
ATOM     10  C   UNL     1      39.373   4.633  14.552  0.00  0.00    +0.000 A 
ENDROOT
BRANCH   8  11
ATOM     11  C   UNL     1      38.913   6.061  17.897  0.00  0.00    +0.000 A 
ATOM     12  C   UNL     1      38.111   7.124  18.217  0.00  0.00    +0.000 A 
ATOM     13  C   UNL     1      38.348   7.840  19.395  0.00  0.00    +0.000 A 
ATOM     14  C   UNL     1      39.386   7.475  20.228  0.00  0.00    +0.000 A 
ATOM     15  C   UNL     1      40.193   6.424  19.927  0.00  0.00    +0.000 A 
ATOM     16  C   UNL     1      39.929   5.730  18.745  0.00  0.00    +0.000 A 
ENDBRANCH   8  11
BRANCH   1  18
ATOM     17  C   UNL     1      42.730   4.776  12.959  0.00  0.00    +0.000 C 
ATOM     18  C   UNL     1      41.681   5.306  13.904  0.00  0.00    +0.000 C 
ENDBRANCH   1  18
BRANCH   6  19
ATOM     19  S   UNL     1      35.586   3.321  15.095  0.00  0.00    +0.000 S 
BRANCH  19  20
ATOM     20  C   UNL     1      34.985   2.325  16.389  0.00  0.00    +0.000 C 
BRANCH  20  21
ATOM     21  C   UNL     1      35.828   1.359  17.060  0.00  0.00    +0.000 C 
ATOM     22  O   UNL     1      36.764   1.728  17.809  0.00  0.00    +0.000 OA
ATOM     23  N   UNL     1      35.673  -0.068  16.917  0.00  0.00    +0.000 NA
BRANCH  23  24
ATOM     24  C   UNL     1      36.574  -0.908  17.615  0.00  0.00    +0.000 A 
ATOM     25  C   UNL     1      36.475  -1.130  18.960  0.00  0.00    +0.000 A 
ATOM     26  C   UNL     1      37.386  -1.960  19.574  0.00  0.00    +0.000 A 
ATOM     27  C   UNL     1      38.391  -2.569  18.862  0.00  0.00    +0.000 A 
ATOM     28  C   UNL     1      38.463  -2.326  17.509  0.00  0.00    +0.000 A 
ATOM     29  C   UNL     1      37.570  -1.503  16.874  0.00  0.00    +0.000 A 
BRANCH  29  30
ATOM     30  O   UNL     1      37.660  -1.261  15.484  0.00  0.00    +0.000 OA
ATOM     31  C   UNL     1      38.742  -0.507  15.034  0.00  0.00    +0.000 C 
ENDBRANCH  29  30
ENDBRANCH  23  24
ENDBRANCH  20  21
ENDBRANCH  19  20
ENDBRANCH   6  19
TORSDOF 7
ENDMDL
MODEL 7
REMARK VINA RESULT:      -7.6      1.528      2.338
REMARK  Name = 
REMARK  7 active torsions:
REMARK  status: ('A' for Active; 'I' for Inactive)
REMARK    1  A    between atoms: C_2  and  C_3
REMARK    2  A    between atoms: C_8  and  S_9
REMARK    3  A    between atoms: S_9  and  C_10
REMARK    4  A    between atoms: C_10  and  C_11
REMARK    5  A    between atoms: N_13  and  C_14
REMARK    6  A    between atoms: C_19  and  O_20
REMARK    7  A    between atoms: C_23  and  C_24
REMARK                            x       y       z     vdW  Elec       q    Type
REMARK                         _______ _______ _______ _____ _____    ______ ____
ROOT
ATOM      1  C   UNL     1      35.736  -1.177  16.469  0.00  0.00    +0.000 A 
ATOM      2  C   UNL     1      34.754  -0.414  17.041  0.00  0.00    +0.000 A 
ATOM      3  C   UNL     1      34.797   0.979  16.903  0.00  0.00    +0.000 A 
ATOM      4  C   UNL     1      35.798   1.606  16.206  0.00  0.00    +0.000 A 
ATOM      5  C   UNL     1      36.788   0.868  15.627  0.00  0.00    +0.000 A 
ATOM      6  C   UNL     1      37.804   1.450  14.908  0.00  0.00    +0.000 A 
ATOM      7  N   UNL     1      38.718   0.591  14.373  0.00  0.00    +0.000 NA
ATOM      8  C   UNL     1      38.685  -0.721  14.496  0.00  0.00    +0.000 A 
ATOM      9  N   UNL     1      37.684  -1.288  15.204  0.00  0.00    +0.000 NA
ATOM     10  C   UNL     1      36.747  -0.524  15.764  0.00  0.00    +0.000 A 
ENDROOT
BRANCH   8  11
ATOM     11  C   UNL     1      39.712  -1.582  13.885  0.00  0.00    +0.000 A 
ATOM     12  C   UNL     1      39.527  -1.994  12.592  0.00  0.00    +0.000 A 
ATOM     13  C   UNL     1      40.478  -2.822  11.987  0.00  0.00    +0.000 A 
ATOM     14  C   UNL     1      41.596  -3.220  12.692  0.00  0.00    +0.000 A 
ATOM     15  C   UNL     1      41.797  -2.822  13.976  0.00  0.00    +0.000 A 
ATOM     16  C   UNL     1      40.829  -1.995  14.550  0.00  0.00    +0.000 A 
ENDBRANCH   8  11
BRANCH   1  18
ATOM     17  C   UNL     1      34.559  -3.202  15.851  0.00  0.00    +0.000 C 
ATOM     18  C   UNL     1      35.749  -2.648  16.594  0.00  0.00    +0.000 C 
ENDBRANCH   1  18
BRANCH   6  19
ATOM     19  S   UNL     1      37.926   3.179  14.642  0.00  0.00    +0.000 S 
BRANCH  19  20
ATOM     20  C   UNL     1      37.293   4.234  15.873  0.00  0.00    +0.000 C 
BRANCH  20  21
ATOM     21  C   UNL     1      38.126   4.744  16.940  0.00  0.00    +0.000 C 
ATOM     22  O   UNL     1      38.400   4.038  17.941  0.00  0.00    +0.000 OA
ATOM     23  N   UNL     1      38.687   6.073  16.946  0.00  0.00    +0.000 NA
BRANCH  23  24
ATOM     24  C   UNL     1      39.474   6.457  18.059  0.00  0.00    +0.000 A 
ATOM     25  C   UNL     1      40.771   6.054  18.211  0.00  0.00    +0.000 A 
ATOM     26  C   UNL     1      41.479   6.467  19.318  0.00  0.00    +0.000 A 
ATOM     27  C   UNL     1      40.907   7.275  20.271  0.00  0.00    +0.000 A 
ATOM     28  C   UNL     1      39.599   7.665  20.087  0.00  0.00    +0.000 A 
ATOM     29  C   UNL     1      38.873   7.267  18.996  0.00  0.00    +0.000 A 
BRANCH  29  30
ATOM     30  O   UNL     1      37.530   7.673  18.824  0.00  0.00    +0.000 OA
ATOM     31  C   UNL     1      37.023   8.611  19.722  0.00  0.00    +0.000 C 
ENDBRANCH  29  30
ENDBRANCH  23  24
ENDBRANCH  20  21
ENDBRANCH  19  20
ENDBRANCH   6  19
TORSDOF 7
ENDMDL
MODEL 8
REMARK VINA RESULT:      -7.6      2.742      7.492
REMARK  Name = 
REMARK  7 active torsions:
REMARK  status: ('A' for Active; 'I' for Inactive)
REMARK    1  A    between atoms: C_2  and  C_3
REMARK    2  A    between atoms: C_8  and  S_9
REMARK    3  A    between atoms: S_9  and  C_10
REMARK    4  A    between atoms: C_10  and  C_11
REMARK    5  A    between atoms: N_13  and  C_14
REMARK    6  A    between atoms: C_19  and  O_20
REMARK    7  A    between atoms: C_23  and  C_24
REMARK                            x       y       z     vdW  Elec       q    Type
REMARK                         _______ _______ _______ _____ _____    ______ ____
ROOT
ATOM      1  C   UNL     1      38.684   5.135  16.988  0.00  0.00    +0.000 A 
ATOM      2  C   UNL     1      39.315   6.165  16.345  0.00  0.00    +0.000 A 
ATOM      3  C   UNL     1      39.341   6.187  14.944  0.00  0.00    +0.000 A 
ATOM      4  C   UNL     1      38.750   5.204  14.194  0.00  0.00    +0.000 A 
ATOM      5  C   UNL     1      38.115   4.168  14.812  0.00  0.00    +0.000 A 
ATOM      6  C   UNL     1      37.495   3.166  14.102  0.00  0.00    +0.000 A 
ATOM      7  N   UNL     1      36.888   2.200  14.850  0.00  0.00    +0.000 NA
ATOM      8  C   UNL     1      36.857   2.171  16.167  0.00  0.00    +0.000 A 
ATOM      9  N   UNL     1      37.466   3.158  16.859  0.00  0.00    +0.000 NA
ATOM     10  C   UNL     1      38.086   4.143  16.211  0.00  0.00    +0.000 A 
ENDROOT
BRANCH   8  11
ATOM     11  C   UNL     1      36.177   1.091  16.901  0.00  0.00    +0.000 A 
ATOM     12  C   UNL     1      35.388   0.222  16.194  0.00  0.00    +0.000 A 
ATOM     13  C   UNL     1      34.718  -0.807  16.864  0.00  0.00    +0.000 A 
ATOM     14  C   UNL     1      34.855  -0.945  18.230  0.00  0.00    +0.000 A 
ATOM     15  C   UNL     1      35.632  -0.093  18.949  0.00  0.00    +0.000 A 
ATOM     16  C   UNL     1      36.287   0.923  18.251  0.00  0.00    +0.000 A 
ENDBRANCH   8  11
BRANCH   1  18
ATOM     17  C   UNL     1      39.707   5.951  19.026  0.00  0.00    +0.000 C 
ATOM     18  C   UNL     1      38.636   5.052  18.462  0.00  0.00    +0.000 C 
ENDBRANCH   1  18
BRANCH   6  19
ATOM     19  S   UNL     1      37.437   3.124  12.351  0.00  0.00    +0.000 S 
BRANCH  19  20
ATOM     20  C   UNL     1      38.170   1.764  11.548  0.00  0.00    +0.000 C 
BRANCH  20  21
ATOM     21  C   UNL     1      38.607   0.595  12.279  0.00  0.00    +0.000 C 
ATOM     22  O   UNL     1      38.071  -0.524  12.089  0.00  0.00    +0.000 OA
ATOM     23  N   UNL     1      39.658   0.620  13.267  0.00  0.00    +0.000 NA
BRANCH  23  24
ATOM     24  C   UNL     1      39.981  -0.591  13.925  0.00  0.00    +0.000 A 
ATOM     25  C   UNL     1      39.328  -1.009  15.052  0.00  0.00    +0.000 A 
ATOM     26  C   UNL     1      39.694  -2.199  15.639  0.00  0.00    +0.000 A 
ATOM     27  C   UNL     1      40.701  -2.975  15.116  0.00  0.00    +0.000 A 
ATOM     28  C   UNL     1      41.338  -2.527  13.980  0.00  0.00    +0.000 A 
ATOM     29  C   UNL     1      40.994  -1.346  13.377  0.00  0.00    +0.000 A 
BRANCH  29  30
ATOM     30  O   UNL     1      41.660  -0.897  12.214  0.00  0.00    +0.000 OA
ATOM     31  C   UNL     1      41.583  -1.704  11.080  0.00  0.00    +0.000 C 
ENDBRANCH  29  30
ENDBRANCH  23  24
ENDBRANCH  20  21
ENDBRANCH  19  20
ENDBRANCH   6  19
TORSDOF 7
ENDMDL
MODEL 9
REMARK VINA RESULT:      -7.5     25.997     29.768
REMARK  Name = 
REMARK  7 active torsions:
REMARK  status: ('A' for Active; 'I' for Inactive)
REMARK    1  A    between atoms: C_2  and  C_3
REMARK    2  A    between atoms: C_8  and  S_9
REMARK    3  A    between atoms: S_9  and  C_10
REMARK    4  A    between atoms: C_10  and  C_11
REMARK    5  A    between atoms: N_13  and  C_14
REMARK    6  A    between atoms: C_19  and  O_20
REMARK    7  A    between atoms: C_23  and  C_24
REMARK                            x       y       z     vdW  Elec       q    Type
REMARK                         _______ _______ _______ _____ _____    ______ ____
ROOT
ATOM      1  C   UNL     1      24.628  18.653  38.937  0.00  0.00    +0.000 A 
ATOM      2  C   UNL     1      24.731  18.907  40.278  0.00  0.00    +0.000 A 
ATOM      3  C   UNL     1      25.365  17.973  41.107  0.00  0.00    +0.000 A 
ATOM      4  C   UNL     1      25.889  16.806  40.614  0.00  0.00    +0.000 A 
ATOM      5  C   UNL     1      25.798  16.531  39.281  0.00  0.00    +0.000 A 
ATOM      6  C   UNL     1      26.321  15.381  38.739  0.00  0.00    +0.000 A 
ATOM      7  N   UNL     1      26.171  15.242  37.391  0.00  0.00    +0.000 NA
ATOM      8  C   UNL     1      25.577  16.115  36.602  0.00  0.00    +0.000 A 
ATOM      9  N   UNL     1      25.066  17.244  37.140  0.00  0.00    +0.000 NA
ATOM     10  C   UNL     1      25.166  17.462  38.450  0.00  0.00    +0.000 A 
ENDROOT
BRANCH   8  11
ATOM     11  C   UNL     1      25.456  15.890  35.151  0.00  0.00    +0.000 A 
ATOM     12  C   UNL     1      25.025  16.928  34.368  0.00  0.00    +0.000 A 
ATOM     13  C   UNL     1      24.887  16.744  32.988  0.00  0.00    +0.000 A 
ATOM     14  C   UNL     1      25.186  15.521  32.422  0.00  0.00    +0.000 A 
ATOM     15  C   UNL     1      25.615  14.479  33.182  0.00  0.00    +0.000 A 
ATOM     16  C   UNL     1      25.742  14.697  34.556  0.00  0.00    +0.000 A 
ENDBRANCH   8  11
BRANCH   1  18
ATOM     17  C   UNL     1      22.746  20.162  38.713  0.00  0.00    +0.000 C 
ATOM     18  C   UNL     1      23.958  19.595  38.017  0.00  0.00    +0.000 C 
ENDBRANCH   1  18
BRANCH   6  19
ATOM     19  S   UNL     1      27.167  14.170  39.683  0.00  0.00    +0.000 S 
BRANCH  19  20
ATOM     20  C   UNL     1      26.211  12.984  40.524  0.00  0.00    +0.000 C 
BRANCH  20  21
ATOM     21  C   UNL     1      26.814  11.831  41.158  0.00  0.00    +0.000 C 
ATOM     22  O   UNL     1      27.403  11.935  42.261  0.00  0.00    +0.000 OA
ATOM     23  N   UNL     1      26.798  10.508  40.584  0.00  0.00    +0.000 NA
BRANCH  23  24
ATOM     24  C   UNL     1      27.439   9.467  41.298  0.00  0.00    +0.000 A 
ATOM     25  C   UNL     1      28.795   9.292  41.276  0.00  0.00    +0.000 A 
ATOM     26  C   UNL     1      29.352   8.258  41.995  0.00  0.00    +0.000 A 
ATOM     27  C   UNL     1      28.572   7.400  42.733  0.00  0.00    +0.000 A 
ATOM     28  C   UNL     1      27.210   7.603  42.735  0.00  0.00    +0.000 A 
ATOM     29  C   UNL     1      26.631   8.624  42.027  0.00  0.00    +0.000 A 
BRANCH  29  30
ATOM     30  O   UNL     1      25.231   8.817  42.036  0.00  0.00    +0.000 OA
ATOM     31  C   UNL     1      24.583   8.755  43.268  0.00  0.00    +0.000 C 
ENDBRANCH  29  30
ENDBRANCH  23  24
ENDBRANCH  20  21
ENDBRANCH  19  20
ENDBRANCH   6  19
TORSDOF 7
ENDMDL
MODEL 10
REMARK VINA RESULT:      -7.4      2.925      8.144
REMARK  Name = 
REMARK  7 active torsions:
REMARK  status: ('A' for Active; 'I' for Inactive)
REMARK    1  A    between atoms: C_2  and  C_3
REMARK    2  A    between atoms: C_8  and  S_9
REMARK    3  A    between atoms: S_9  and  C_10
REMARK    4  A    between atoms: C_10  and  C_11
REMARK    5  A    between atoms: N_13  and  C_14
REMARK    6  A    between atoms: C_19  and  O_20
REMARK    7  A    between atoms: C_23  and  C_24
REMARK                            x       y       z     vdW  Elec       q    Type
REMARK                         _______ _______ _______ _____ _____    ______ ____
ROOT
ATOM      1  C   UNL     1      35.752   8.005  14.233  0.00  0.00    +0.000 A 
ATOM      2  C   UNL     1      34.893   7.891  13.174  0.00  0.00    +0.000 A 
ATOM      3  C   UNL     1      34.847   6.690  12.453  0.00  0.00    +0.000 A 
ATOM      4  C   UNL     1      35.639   5.620  12.780  0.00  0.00    +0.000 A 
ATOM      5  C   UNL     1      36.503   5.710  13.831  0.00  0.00    +0.000 A 
ATOM      6  C   UNL     1      37.308   4.659  14.204  0.00  0.00    +0.000 A 
ATOM      7  N   UNL     1      38.112   4.884  15.281  0.00  0.00    +0.000 NA
ATOM      8  C   UNL     1      38.163   6.009  15.966  0.00  0.00    +0.000 A 
ATOM      9  N   UNL     1      37.370   7.038  15.596  0.00  0.00    +0.000 NA
ATOM     10  C   UNL     1      36.552   6.907  14.552  0.00  0.00    +0.000 A 
ENDROOT
BRANCH   8  11
ATOM     11  C   UNL     1      39.061   6.172  17.122  0.00  0.00    +0.000 A 
ATOM     12  C   UNL     1      40.412   6.161  16.899  0.00  0.00    +0.000 A 
ATOM     13  C   UNL     1      41.293   6.302  17.977  0.00  0.00    +0.000 A 
ATOM     14  C   UNL     1      40.799   6.450  19.257  0.00  0.00    +0.000 A 
ATOM     15  C   UNL     1      39.461   6.463  19.498  0.00  0.00    +0.000 A 
ATOM     16  C   UNL     1      38.610   6.321  18.400  0.00  0.00    +0.000 A 
ENDBRANCH   8  11
BRANCH   1  18
ATOM     17  C   UNL     1      34.518   9.948  14.987  0.00  0.00    +0.000 C 
ATOM     18  C   UNL     1      35.855   9.251  15.020  0.00  0.00    +0.000 C 
ENDBRANCH   1  18
BRANCH   6  19
ATOM     19  S   UNL     1      37.295   3.104  13.394  0.00  0.00    +0.000 S 
BRANCH  19  20
ATOM     20  C   UNL     1      36.276   1.856  14.053  0.00  0.00    +0.000 C 
BRANCH  20  21
ATOM     21  C   UNL     1      36.592   1.197  15.302  0.00  0.00    +0.000 C 
ATOM     22  O   UNL     1      37.340   1.742  16.149  0.00  0.00    +0.000 OA
ATOM     23  N   UNL     1      36.096  -0.110  15.660  0.00  0.00    +0.000 NA
BRANCH  23  24
ATOM     24  C   UNL     1      36.493  -0.652  16.906  0.00  0.00    +0.000 A 
ATOM     25  C   UNL     1      35.877  -0.316  18.080  0.00  0.00    +0.000 A 
ATOM     26  C   UNL     1      36.314  -0.883  19.255  0.00  0.00    +0.000 A 
ATOM     27  C   UNL     1      37.356  -1.780  19.273  0.00  0.00    +0.000 A 
ATOM     28  C   UNL     1      37.954  -2.098  18.074  0.00  0.00    +0.000 A 
ATOM     29  C   UNL     1      37.539  -1.547  16.890  0.00  0.00    +0.000 A 
BRANCH  29  30
ATOM     30  O   UNL     1      38.166  -1.881  15.668  0.00  0.00    +0.000 OA
ATOM     31  C   UNL     1      39.551  -1.741  15.599  0.00  0.00    +0.000 C 
ENDBRANCH  29  30
ENDBRANCH  23  24
ENDBRANCH  20  21
ENDBRANCH  19  20
ENDBRANCH   6  19
TORSDOF 7
ENDMDL
