MODEL 1
REMARK VINA RESULT:      -7.2      0.000      0.000
REMARK  Name = 
REMARK  4 active torsions:
REMARK  status: ('A' for Active; 'I' for Inactive)
REMARK    1  A    between atoms: C_2  and  C_3
REMARK    2  A    between atoms: C_3  and  C_4
REMARK    3  A    between atoms: N_10  and  C_11
REMARK    4  A    between atoms: C_15  and  N_16
REMARK                            x       y       z     vdW  Elec       q    Type
REMARK                         _______ _______ _______ _____ _____    ______ ____
ROOT
ATOM      1  O   UNL     1      16.357  13.146  36.322  0.00  0.00    +0.000 OA
ATOM      2  C   UNL     1      15.652  12.151  36.551  0.00  0.00    +0.000 C 
ATOM      3  N   UNL     1      14.574  11.889  35.660  0.00  0.00    +0.000 NA
ENDROOT
BRANCH   3   4
ATOM      4  C   UNL     1      14.299  12.729  34.540  0.00  0.00    +0.000 A 
ATOM      5  C   UNL     1      13.575  13.866  34.779  0.00  0.00    +0.000 A 
ATOM      6  C   UNL     1      13.273  14.720  33.757  0.00  0.00    +0.000 A 
ATOM      7  C   UNL     1      13.684  14.457  32.483  0.00  0.00    +0.000 A 
ATOM      8  C   UNL     1      14.413  13.318  32.222  0.00  0.00    +0.000 A 
ATOM      9  C   UNL     1      14.716  12.457  33.266  0.00  0.00    +0.000 A 
BRANCH   8  10
ATOM     10  N   UNL     1      14.823  13.076  30.892  0.00  0.00    +0.000 N 
ATOM     11  O   UNL     1      14.429  12.074  30.246  0.00  0.00    +0.000 OA
ATOM     12  O   UNL     1      15.675  13.935  30.246  0.00  0.00    +0.000 OA
ENDBRANCH   8  10
ENDBRANCH   3   4
BRANCH   2  13
ATOM     13  C   UNL     1      15.841  11.210  37.680  0.00  0.00    +0.000 C 
BRANCH  13  14
ATOM     14  C   UNL     1      17.245  10.713  37.806  0.00  0.00    +0.000 C 
ATOM     15  C   UNL     1      17.711   9.996  36.566  0.00  0.00    +0.000 C 
ATOM     16  C   UNL     1      19.133   9.530  36.750  0.00  0.00    +0.000 C 
ATOM     17  C   UNL     1      19.614   9.718  38.171  0.00  0.00    +0.000 C 
ATOM     18  C   UNL     1      18.657   9.162  39.187  0.00  0.00    +0.000 C 
ATOM     19  C   UNL     1      17.315   9.812  39.020  0.00  0.00    +0.000 C 
ENDBRANCH  13  14
ENDBRANCH   2  13
TORSDOF 4
ENDMDL
MODEL 2
REMARK VINA RESULT:      -7.1      3.198      7.635
REMARK  Name = 
REMARK  4 active torsions:
REMARK  status: ('A' for Active; 'I' for Inactive)
REMARK    1  A    between atoms: C_2  and  C_3
REMARK    2  A    between atoms: C_3  and  C_4
REMARK    3  A    between atoms: N_10  and  C_11
REMARK    4  A    between atoms: C_15  and  N_16
REMARK                            x       y       z     vdW  Elec       q    Type
REMARK                         _______ _______ _______ _____ _____    ______ ____
ROOT
ATOM      1  O   UNL     1      17.021  12.118  34.472  0.00  0.00    +0.000 OA
ATOM      2  C   UNL     1      16.745  11.034  33.937  0.00  0.00    +0.000 C 
ATOM      3  N   UNL     1      17.099   9.846  34.637  0.00  0.00    +0.000 NA
ENDROOT
BRANCH   3   4
ATOM      4  C   UNL     1      17.747   9.883  35.907  0.00  0.00    +0.000 A 
ATOM      5  C   UNL     1      16.950  10.068  37.006  0.00  0.00    +0.000 A 
ATOM      6  C   UNL     1      17.497  10.114  38.256  0.00  0.00    +0.000 A 
ATOM      7  C   UNL     1      18.843   9.978  38.434  0.00  0.00    +0.000 A 
ATOM      8  C   UNL     1      19.662   9.792  37.342  0.00  0.00    +0.000 A 
ATOM      9  C   UNL     1      19.097   9.746  36.076  0.00  0.00    +0.000 A 
BRANCH   8  10
ATOM     10  N   UNL     1      21.050   9.655  37.562  0.00  0.00    +0.000 N 
ATOM     11  O   UNL     1      21.877   9.665  36.617  0.00  0.00    +0.000 OA
ATOM     12  O   UNL     1      21.555   9.506  38.828  0.00  0.00    +0.000 OA
ENDBRANCH   8  10
ENDBRANCH   3   4
BRANCH   2  13
ATOM     13  C   UNL     1      16.075  10.873  32.625  0.00  0.00    +0.000 C 
BRANCH  13  14
ATOM     14  C   UNL     1      15.576  12.160  32.054  0.00  0.00    +0.000 C 
ATOM     15  C   UNL     1      14.156  12.055  31.562  0.00  0.00    +0.000 C 
ATOM     16  C   UNL     1      13.707  13.384  31.010  0.00  0.00    +0.000 C 
ATOM     17  C   UNL     1      14.848  14.373  30.909  0.00  0.00    +0.000 C 
ATOM     18  C   UNL     1      16.052  13.802  30.215  0.00  0.00    +0.000 C 
ATOM     19  C   UNL     1      16.514  12.573  30.941  0.00  0.00    +0.000 C 
ENDBRANCH  13  14
ENDBRANCH   2  13
TORSDOF 4
ENDMDL
MODEL 3
REMARK VINA RESULT:      -6.8      2.698      7.666
REMARK  Name = 
REMARK  4 active torsions:
REMARK  status: ('A' for Active; 'I' for Inactive)
REMARK    1  A    between atoms: C_2  and  C_3
REMARK    2  A    between atoms: C_3  and  C_4
REMARK    3  A    between atoms: N_10  and  C_11
REMARK    4  A    between atoms: C_15  and  N_16
REMARK                            x       y       z     vdW  Elec       q    Type
REMARK                         _______ _______ _______ _____ _____    ______ ____
ROOT
ATOM      1  O   UNL     1      16.391  12.074  34.878  0.00  0.00    +0.000 OA
ATOM      2  C   UNL     1      16.264  11.059  34.178  0.00  0.00    +0.000 C 
ATOM      3  N   UNL     1      16.890   9.863  34.632  0.00  0.00    +0.000 NA
ENDROOT
BRANCH   3   4
ATOM      4  C   UNL     1      17.639   9.817  35.844  0.00  0.00    +0.000 A 
ATOM      5  C   UNL     1      19.002   9.741  35.729  0.00  0.00    +0.000 A 
ATOM      6  C   UNL     1      19.787   9.694  36.845  0.00  0.00    +0.000 A 
ATOM      7  C   UNL     1      19.232   9.721  38.091  0.00  0.00    +0.000 A 
ATOM      8  C   UNL     1      17.864   9.797  38.228  0.00  0.00    +0.000 A 
ATOM      9  C   UNL     1      17.073   9.846  37.090  0.00  0.00    +0.000 A 
BRANCH   8  10
ATOM     10  N   UNL     1      17.322   9.824  39.532  0.00  0.00    +0.000 N 
ATOM     11  O   UNL     1      18.038   9.670  40.553  0.00  0.00    +0.000 OA
ATOM     12  O   UNL     1      15.981  10.024  39.738  0.00  0.00    +0.000 OA
ENDBRANCH   8  10
ENDBRANCH   3   4
BRANCH   2  13
ATOM     13  C   UNL     1      15.511  10.987  32.904  0.00  0.00    +0.000 C 
BRANCH  13  14
ATOM     14  C   UNL     1      15.384  12.308  32.216  0.00  0.00    +0.000 C 
ATOM     15  C   UNL     1      13.958  12.626  31.848  0.00  0.00    +0.000 C 
ATOM     16  C   UNL     1      13.893  13.971  31.171  0.00  0.00    +0.000 C 
ATOM     17  C   UNL     1      15.269  14.521  30.865  0.00  0.00    +0.000 C 
ATOM     18  C   UNL     1      16.148  13.528  30.159  0.00  0.00    +0.000 C 
ATOM     19  C   UNL     1      16.276  12.288  30.995  0.00  0.00    +0.000 C 
ENDBRANCH  13  14
ENDBRANCH   2  13
TORSDOF 4
ENDMDL
MODEL 4
REMARK VINA RESULT:      -6.8     27.547     29.892
REMARK  Name = 
REMARK  4 active torsions:
REMARK  status: ('A' for Active; 'I' for Inactive)
REMARK    1  A    between atoms: C_2  and  C_3
REMARK    2  A    between atoms: C_3  and  C_4
REMARK    3  A    between atoms: N_10  and  C_11
REMARK    4  A    between atoms: C_15  and  N_16
REMARK                            x       y       z     vdW  Elec       q    Type
REMARK                         _______ _______ _______ _____ _____    ______ ____
ROOT
ATOM      1  O   UNL     1      30.723  20.507  13.245  0.00  0.00    +0.000 OA
ATOM      2  C   UNL     1      31.451  21.200  12.519  0.00  0.00    +0.000 C 
ATOM      3  N   UNL     1      30.953  22.470  12.109  0.00  0.00    +0.000 NA
ENDROOT
BRANCH   3   4
ATOM      4  C   UNL     1      29.669  22.942  12.509  0.00  0.00    +0.000 A 
ATOM      5  C   UNL     1      29.568  23.480  13.764  0.00  0.00    +0.000 A 
ATOM      6  C   UNL     1      28.372  23.954  14.219  0.00  0.00    +0.000 A 
ATOM      7  C   UNL     1      27.256  23.901  13.435  0.00  0.00    +0.000 A 
ATOM      8  C   UNL     1      27.336  23.363  12.169  0.00  0.00    +0.000 A 
ATOM      9  C   UNL     1      28.556  22.885  11.715  0.00  0.00    +0.000 A 
BRANCH   8  10
ATOM     10  N   UNL     1      26.163  23.324  11.384  0.00  0.00    +0.000 N 
ATOM     11  O   UNL     1      25.861  22.321  10.690  0.00  0.00    +0.000 OA
ATOM     12  O   UNL     1      25.298  24.387  11.347  0.00  0.00    +0.000 OA
ENDBRANCH   8  10
ENDBRANCH   3   4
BRANCH   2  13
ATOM     13  C   UNL     1      32.800  20.815  12.042  0.00  0.00    +0.000 C 
BRANCH  13  14
ATOM     14  C   UNL     1      33.095  21.292  10.657  0.00  0.00    +0.000 C 
ATOM     15  C   UNL     1      33.218  20.156   9.675  0.00  0.00    +0.000 C 
ATOM     16  C   UNL     1      33.503  20.700   8.298  0.00  0.00    +0.000 C 
ATOM     17  C   UNL     1      33.792  22.185   8.321  0.00  0.00    +0.000 C 
ATOM     18  C   UNL     1      34.822  22.560   9.348  0.00  0.00    +0.000 C 
ATOM     19  C   UNL     1      34.363  22.116  10.706  0.00  0.00    +0.000 C 
ENDBRANCH  13  14
ENDBRANCH   2  13
TORSDOF 4
ENDMDL
MODEL 5
REMARK VINA RESULT:      -6.7      1.906      2.751
REMARK  Name = 
REMARK  4 active torsions:
REMARK  status: ('A' for Active; 'I' for Inactive)
REMARK    1  A    between atoms: C_2  and  C_3
REMARK    2  A    between atoms: C_3  and  C_4
REMARK    3  A    between atoms: N_10  and  C_11
REMARK    4  A    between atoms: C_15  and  N_16
REMARK                            x       y       z     vdW  Elec       q    Type
REMARK                         _______ _______ _______ _____ _____    ______ ____
ROOT
ATOM      1  O   UNL     1      17.198  12.646  35.920  0.00  0.00    +0.000 OA
ATOM      2  C   UNL     1      16.891  11.498  36.274  0.00  0.00    +0.000 C 
ATOM      3  N   UNL     1      16.220  10.675  35.326  0.00  0.00    +0.000 NA
ENDROOT
BRANCH   3   4
ATOM      4  C   UNL     1      15.904  11.138  34.014  0.00  0.00    +0.000 A 
ATOM      5  C   UNL     1      16.533  10.516  32.968  0.00  0.00    +0.000 A 
ATOM      6  C   UNL     1      16.281  10.903  31.683  0.00  0.00    +0.000 A 
ATOM      7  C   UNL     1      15.402  11.912  31.417  0.00  0.00    +0.000 A 
ATOM      8  C   UNL     1      14.760  12.551  32.455  0.00  0.00    +0.000 A 
ATOM      9  C   UNL     1      15.020  12.151  33.758  0.00  0.00    +0.000 A 
BRANCH   8  10
ATOM     10  N   UNL     1      13.857  13.590  32.145  0.00  0.00    +0.000 N 
ATOM     11  O   UNL     1      13.497  14.436  33.001  0.00  0.00    +0.000 OA
ATOM     12  O   UNL     1      13.332  13.721  30.885  0.00  0.00    +0.000 OA
ENDBRANCH   8  10
ENDBRANCH   3   4
BRANCH   2  13
ATOM     13  C   UNL     1      17.168  10.910  37.605  0.00  0.00    +0.000 C 
BRANCH  13  14
ATOM     14  C   UNL     1      18.625  10.735  37.884  0.00  0.00    +0.000 C 
ATOM     15  C   UNL     1      19.333  12.051  38.074  0.00  0.00    +0.000 C 
ATOM     16  C   UNL     1      20.793  11.809  38.363  0.00  0.00    +0.000 C 
ATOM     17  C   UNL     1      21.177  10.358  38.175  0.00  0.00    +0.000 C 
ATOM     18  C   UNL     1      20.718   9.801  36.858  0.00  0.00    +0.000 C 
ATOM     19  C   UNL     1      19.229   9.946  36.743  0.00  0.00    +0.000 C 
ENDBRANCH  13  14
ENDBRANCH   2  13
TORSDOF 4
ENDMDL
MODEL 6
REMARK VINA RESULT:      -6.3      2.596      4.531
REMARK  Name = 
REMARK  4 active torsions:
REMARK  status: ('A' for Active; 'I' for Inactive)
REMARK    1  A    between atoms: C_2  and  C_3
REMARK    2  A    between atoms: C_3  and  C_4
REMARK    3  A    between atoms: N_10  and  C_11
REMARK    4  A    between atoms: C_15  and  N_16
REMARK                            x       y       z     vdW  Elec       q    Type
REMARK                         _______ _______ _______ _____ _____    ______ ____
ROOT
ATOM      1  O   UNL     1      19.532  10.697  37.575  0.00  0.00    +0.000 OA
ATOM      2  C   UNL     1      18.793   9.882  38.145  0.00  0.00    +0.000 C 
ATOM      3  N   UNL     1      17.596   9.500  37.475  0.00  0.00    +0.000 NA
ENDROOT
BRANCH   3   4
ATOM      4  C   UNL     1      17.245  10.025  36.197  0.00  0.00    +0.000 A 
ATOM      5  C   UNL     1      17.943   9.550  35.118  0.00  0.00    +0.000 A 
ATOM      6  C   UNL     1      17.665  10.005  33.861  0.00  0.00    +0.000 A 
ATOM      7  C   UNL     1      16.690  10.937  33.655  0.00  0.00    +0.000 A 
ATOM      8  C   UNL     1      15.977  11.428  34.727  0.00  0.00    +0.000 A 
ATOM      9  C   UNL     1      16.266  10.960  36.001  0.00  0.00    +0.000 A 
BRANCH   8  10
ATOM     10  N   UNL     1      14.975  12.391  34.480  0.00  0.00    +0.000 N 
ATOM     11  O   UNL     1      14.646  12.724  33.314  0.00  0.00    +0.000 OA
ATOM     12  O   UNL     1      14.314  13.006  35.511  0.00  0.00    +0.000 OA
ENDBRANCH   8  10
ENDBRANCH   3   4
BRANCH   2  13
ATOM     13  C   UNL     1      19.052   9.271  39.469  0.00  0.00    +0.000 C 
BRANCH  13  14
ATOM     14  C   UNL     1      17.814   8.785  40.149  0.00  0.00    +0.000 C 
ATOM     15  C   UNL     1      17.484   9.590  41.379  0.00  0.00    +0.000 C 
ATOM     16  C   UNL     1      16.222   9.061  42.013  0.00  0.00    +0.000 C 
ATOM     17  C   UNL     1      15.765   7.767  41.376  0.00  0.00    +0.000 C 
ATOM     18  C   UNL     1      16.865   6.749  41.273  0.00  0.00    +0.000 C 
ATOM     19  C   UNL     1      18.007   7.322  40.485  0.00  0.00    +0.000 C 
ENDBRANCH  13  14
ENDBRANCH   2  13
TORSDOF 4
ENDMDL
MODEL 7
REMARK VINA RESULT:      -6.2      2.859      7.243
REMARK  Name = 
REMARK  4 active torsions:
REMARK  status: ('A' for Active; 'I' for Inactive)
REMARK    1  A    between atoms: C_2  and  C_3
REMARK    2  A    between atoms: C_3  and  C_4
REMARK    3  A    between atoms: N_10  and  C_11
REMARK    4  A    between atoms: C_15  and  N_16
REMARK                            x       y       z     vdW  Elec       q    Type
REMARK                         _______ _______ _______ _____ _____    ______ ____
ROOT
ATOM      1  O   UNL     1      15.887  10.441  34.934  0.00  0.00    +0.000 OA
ATOM      2  C   UNL     1      15.703  11.619  35.274  0.00  0.00    +0.000 C 
ATOM      3  N   UNL     1      16.309  12.057  36.485  0.00  0.00    +0.000 NA
ENDROOT
BRANCH   3   4
ATOM      4  C   UNL     1      17.103  11.187  37.289  0.00  0.00    +0.000 A 
ATOM      5  C   UNL     1      16.484  10.590  38.355  0.00  0.00    +0.000 A 
ATOM      6  C   UNL     1      17.178   9.743  39.171  0.00  0.00    +0.000 A 
ATOM      7  C   UNL     1      18.497   9.478  38.942  0.00  0.00    +0.000 A 
ATOM      8  C   UNL     1      19.138  10.069  37.876  0.00  0.00    +0.000 A 
ATOM      9  C   UNL     1      18.425  10.927  37.051  0.00  0.00    +0.000 A 
BRANCH   8  10
ATOM     10  N   UNL     1      20.502   9.772  37.667  0.00  0.00    +0.000 N 
ATOM     11  O   UNL     1      21.278   9.507  38.619  0.00  0.00    +0.000 OA
ATOM     12  O   UNL     1      21.040   9.759  36.406  0.00  0.00    +0.000 OA
ENDBRANCH   8  10
ENDBRANCH   3   4
BRANCH   2  13
ATOM     13  C   UNL     1      14.900  12.612  34.521  0.00  0.00    +0.000 C 
BRANCH  13  14
ATOM     14  C   UNL     1      14.786  12.298  33.065  0.00  0.00    +0.000 C 
ATOM     15  C   UNL     1      16.126  12.033  32.430  0.00  0.00    +0.000 C 
ATOM     16  C   UNL     1      15.945  11.711  30.968  0.00  0.00    +0.000 C 
ATOM     17  C   UNL     1      14.523  11.947  30.506  0.00  0.00    +0.000 C 
ATOM     18  C   UNL     1      14.001  13.299  30.900  0.00  0.00    +0.000 C 
ATOM     19  C   UNL     1      14.077  13.452  32.391  0.00  0.00    +0.000 C 
ENDBRANCH  13  14
ENDBRANCH   2  13
TORSDOF 4
ENDMDL
MODEL 8
REMARK VINA RESULT:      -6.0      2.659      7.518
REMARK  Name = 
REMARK  4 active torsions:
REMARK  status: ('A' for Active; 'I' for Inactive)
REMARK    1  A    between atoms: C_2  and  C_3
REMARK    2  A    between atoms: C_3  and  C_4
REMARK    3  A    between atoms: N_10  and  C_11
REMARK    4  A    between atoms: C_15  and  N_16
REMARK                            x       y       z     vdW  Elec       q    Type
REMARK                         _______ _______ _______ _____ _____    ______ ____
ROOT
ATOM      1  O   UNL     1      14.719  10.758  35.354  0.00  0.00    +0.000 OA
ATOM      2  C   UNL     1      15.200  11.896  35.253  0.00  0.00    +0.000 C 
ATOM      3  N   UNL     1      16.406  12.166  35.961  0.00  0.00    +0.000 NA
ENDROOT
BRANCH   3   4
ATOM      4  C   UNL     1      17.050  11.176  36.760  0.00  0.00    +0.000 A 
ATOM      5  C   UNL     1      18.076  10.480  36.180  0.00  0.00    +0.000 A 
ATOM      6  C   UNL     1      18.741   9.516  36.882  0.00  0.00    +0.000 A 
ATOM      7  C   UNL     1      18.398   9.229  38.171  0.00  0.00    +0.000 A 
ATOM      8  C   UNL     1      17.368   9.918  38.773  0.00  0.00    +0.000 A 
ATOM      9  C   UNL     1      16.698  10.896  38.053  0.00  0.00    +0.000 A 
BRANCH   8  10
ATOM     10  N   UNL     1      17.038   9.597  40.108  0.00  0.00    +0.000 N 
ATOM     11  O   UNL     1      15.866   9.702  40.547  0.00  0.00    +0.000 OA
ATOM     12  O   UNL     1      17.993   9.150  40.986  0.00  0.00    +0.000 OA
ENDBRANCH   8  10
ENDBRANCH   3   4
BRANCH   2  13
ATOM     13  C   UNL     1      14.622  13.002  34.454  0.00  0.00    +0.000 C 
BRANCH  13  14
ATOM     14  C   UNL     1      14.529  12.691  32.995  0.00  0.00    +0.000 C 
ATOM     15  C   UNL     1      15.868  12.346  32.397  0.00  0.00    +0.000 C 
ATOM     16  C   UNL     1      15.707  12.031  30.931  0.00  0.00    +0.000 C 
ATOM     17  C   UNL     1      14.315  12.349  30.431  0.00  0.00    +0.000 C 
ATOM     18  C   UNL     1      13.862  13.731  30.809  0.00  0.00    +0.000 C 
ATOM     19  C   UNL     1      13.907  13.883  32.301  0.00  0.00    +0.000 C 
ENDBRANCH  13  14
ENDBRANCH   2  13
TORSDOF 4
ENDMDL
MODEL 9
REMARK VINA RESULT:      -6.0     28.233     30.842
REMARK  Name = 
REMARK  4 active torsions:
REMARK  status: ('A' for Active; 'I' for Inactive)
REMARK    1  A    between atoms: C_2  and  C_3
REMARK    2  A    between atoms: C_3  and  C_4
REMARK    3  A    between atoms: N_10  and  C_11
REMARK    4  A    between atoms: C_15  and  N_16
REMARK                            x       y       z     vdW  Elec       q    Type
REMARK                         _______ _______ _______ _____ _____    ______ ____
ROOT
ATOM      1  O   UNL     1      31.227  22.587  10.063  0.00  0.00    +0.000 OA
ATOM      2  C   UNL     1      30.509  21.682  10.514  0.00  0.00    +0.000 C 
ATOM      3  N   UNL     1      31.148  20.477  10.922  0.00  0.00    +0.000 NA
ENDROOT
BRANCH   3   4
ATOM      4  C   UNL     1      32.560  20.300  10.822  0.00  0.00    +0.000 A 
ATOM      5  C   UNL     1      33.282  20.404  11.981  0.00  0.00    +0.000 A 
ATOM      6  C   UNL     1      34.638  20.246  11.967  0.00  0.00    +0.000 A 
ATOM      7  C   UNL     1      35.298  19.984  10.801  0.00  0.00    +0.000 A 
ATOM      8  C   UNL     1      34.590  19.876   9.625  0.00  0.00    +0.000 A 
ATOM      9  C   UNL     1      33.212  20.037   9.649  0.00  0.00    +0.000 A 
BRANCH   8  10
ATOM     10  N   UNL     1      35.303  19.604   8.437  0.00  0.00    +0.000 N 
ATOM     11  O   UNL     1      35.416  20.454   7.519  0.00  0.00    +0.000 OA
ATOM     12  O   UNL     1      35.909  18.390   8.237  0.00  0.00    +0.000 OA
ENDBRANCH   8  10
ENDBRANCH   3   4
BRANCH   2  13
ATOM     13  C   UNL     1      29.037  21.752  10.664  0.00  0.00    +0.000 C 
BRANCH  13  14
ATOM     14  C   UNL     1      28.594  22.742  11.692  0.00  0.00    +0.000 C 
ATOM     15  C   UNL     1      29.412  22.660  12.955  0.00  0.00    +0.000 C 
ATOM     16  C   UNL     1      28.926  23.687  13.946  0.00  0.00    +0.000 C 
ATOM     17  C   UNL     1      27.647  24.355  13.492  0.00  0.00    +0.000 C 
ATOM     18  C   UNL     1      26.593  23.370  13.074  0.00  0.00    +0.000 C 
ATOM     19  C   UNL     1      27.126  22.502  11.971  0.00  0.00    +0.000 C 
ENDBRANCH  13  14
ENDBRANCH   2  13
TORSDOF 4
ENDMDL
MODEL 10
REMARK VINA RESULT:      -6.0     18.183     20.021
REMARK  Name = 
REMARK  4 active torsions:
REMARK  status: ('A' for Active; 'I' for Inactive)
REMARK    1  A    between atoms: C_2  and  C_3
REMARK    2  A    between atoms: C_3  and  C_4
REMARK    3  A    between atoms: N_10  and  C_11
REMARK    4  A    between atoms: C_15  and  N_16
REMARK                            x       y       z     vdW  Elec       q    Type
REMARK                         _______ _______ _______ _____ _____    ______ ____
ROOT
ATOM      1  O   UNL     1      30.039  24.404  26.333  0.00  0.00    +0.000 OA
ATOM      2  C   UNL     1      30.030  23.241  25.906  0.00  0.00    +0.000 C 
ATOM      3  N   UNL     1      29.665  22.208  26.815  0.00  0.00    +0.000 NA
ENDROOT
BRANCH   3   4
ATOM      4  C   UNL     1      29.319  22.484  28.171  0.00  0.00    +0.000 A 
ATOM      5  C   UNL     1      30.348  22.769  29.028  0.00  0.00    +0.000 A 
ATOM      6  C   UNL     1      30.097  23.045  30.342  0.00  0.00    +0.000 A 
ATOM      7  C   UNL     1      28.821  23.040  30.824  0.00  0.00    +0.000 A 
ATOM      8  C   UNL     1      27.771  22.755  29.978  0.00  0.00    +0.000 A 
ATOM      9  C   UNL     1      28.036  22.477  28.645  0.00  0.00    +0.000 A 
BRANCH   8  10
ATOM     10  N   UNL     1      26.463  22.759  30.509  0.00  0.00    +0.000 N 
ATOM     11  O   UNL     1      25.851  21.695  30.777  0.00  0.00    +0.000 OA
ATOM     12  O   UNL     1      25.803  23.935  30.759  0.00  0.00    +0.000 OA
ENDBRANCH   8  10
ENDBRANCH   3   4
BRANCH   2  13
ATOM     13  C   UNL     1      30.369  22.835  24.521  0.00  0.00    +0.000 C 
BRANCH  13  14
ATOM     14  C   UNL     1      29.345  23.252  23.516  0.00  0.00    +0.000 C 
ATOM     15  C   UNL     1      29.658  24.592  22.904  0.00  0.00    +0.000 C 
ATOM     16  C   UNL     1      28.599  24.951  21.892  0.00  0.00    +0.000 C 
ATOM     17  C   UNL     1      27.432  23.989  21.924  0.00  0.00    +0.000 C 
ATOM     18  C   UNL     1      26.897  23.771  23.310  0.00  0.00    +0.000 C 
ATOM     19  C   UNL     1      27.995  23.260  24.197  0.00  0.00    +0.000 C 
ENDBRANCH  13  14
ENDBRANCH   2  13
TORSDOF 4
ENDMDL
