MODEL 1
REMARK VINA RESULT:      -8.5      0.000      0.000
REMARK  Name = 
REMARK  7 active torsions:
REMARK  status: ('A' for Active; 'I' for Inactive)
REMARK    1  A    between atoms: O_2  and  C_3
REMARK    2  A    between atoms: C_7  and  C_8
REMARK    3  A    between atoms: C_8  and  N_9
REMARK    4  A    between atoms: C_10  and  C_12
REMARK    5  A    between atoms: C_14  and  S_15
REMARK    6  A    between atoms: S_15  and  C_16
REMARK    7  A    between atoms: C_19  and  C_20
REMARK                            x       y       z     vdW  Elec       q    Type
REMARK                         _______ _______ _______ _____ _____    ______ ____
ROOT
ATOM      1  C   UNL     1      37.945   0.119  14.988  0.00  0.00    +0.000 A 
ATOM      2  C   UNL     1      38.410   1.399  14.725  0.00  0.00    +0.000 A 
ATOM      3  C   UNL     1      37.748   2.528  15.157  0.00  0.00    +0.000 A 
ATOM      4  N   UNL     1      36.593   2.386  15.871  0.00  0.00    +0.000 NA
ATOM      5  C   UNL     1      36.107   1.166  16.147  0.00  0.00    +0.000 A 
ATOM      6  C   UNL     1      34.944   1.009  16.866  0.00  0.00    +0.000 A 
ATOM      7  C   UNL     1      34.432  -0.240  17.160  0.00  0.00    +0.000 A 
ATOM      8  C   UNL     1      35.132  -1.343  16.703  0.00  0.00    +0.000 A 
ATOM      9  C   UNL     1      36.302  -1.231  15.981  0.00  0.00    +0.000 A 
ATOM     10  C   UNL     1      36.769   0.040  15.715  0.00  0.00    +0.000 A 
ENDROOT
BRANCH   1  12
ATOM     11  N   UNL     1      39.685  -1.588  15.367  0.00  0.00    +0.000 NA
ATOM     12  C   UNL     1      38.648  -1.071  14.529  0.00  0.00    +0.000 C 
ATOM     13  O   UNL     1      38.387  -1.634  13.467  0.00  0.00    +0.000 OA
BRANCH  11  14
ATOM     14  C   UNL     1      40.459  -2.750  15.048  0.00  0.00    +0.000 C 
BRANCH  14  19
ATOM     15  C   UNL     1      42.851  -2.998  12.205  0.00  0.00    +0.000 A 
ATOM     16  C   UNL     1      43.777  -1.982  12.457  0.00  0.00    +0.000 A 
ATOM     17  C   UNL     1      43.549  -1.245  13.598  0.00  0.00    +0.000 A 
ATOM     18  C   UNL     1      42.493  -1.484  14.428  0.00  0.00    +0.000 A 
ATOM     19  C   UNL     1      41.601  -2.485  14.156  0.00  0.00    +0.000 A 
ATOM     20  C   UNL     1      41.781  -3.250  13.034  0.00  0.00    +0.000 A 
BRANCH  15  22
ATOM     21  C   UNL     1      44.392  -4.168  10.785  0.00  0.00    +0.000 C 
ATOM     22  O   UNL     1      43.077  -3.750  11.051  0.00  0.00    +0.000 OA
ENDBRANCH  15  22
ENDBRANCH  14  19
ENDBRANCH  11  14
ENDBRANCH   1  12
BRANCH   3  23
ATOM     23  S   UNL     1      38.318   4.190  14.841  0.00  0.00    +0.000 S 
BRANCH  23  24
ATOM     24  C   UNL     1      39.021   4.901  16.324  0.00  0.00    +0.000 A 
ATOM     25  C   UNL     1      40.137   5.706  16.305  0.00  0.00    +0.000 A 
ATOM     26  C   UNL     1      40.679   6.252  17.451  0.00  0.00    +0.000 A 
ATOM     27  C   UNL     1      40.119   6.009  18.686  0.00  0.00    +0.000 A 
ATOM     28  C   UNL     1      39.002   5.202  18.710  0.00  0.00    +0.000 A 
ATOM     29  C   UNL     1      38.449   4.652  17.576  0.00  0.00    +0.000 A 
BRANCH  27  30
ATOM     30  C   UNL     1      40.670   6.575  19.946  0.00  0.00    +0.000 C 
ATOM     31  C   UNL     1      40.315   8.052  20.075  0.00  0.00    +0.000 C 
ATOM     32  C   UNL     1      42.195   6.536  19.813  0.00  0.00    +0.000 C 
ENDBRANCH  27  30
ENDBRANCH  23  24
ENDBRANCH   3  23
TORSDOF 7
ENDMDL
MODEL 2
REMARK VINA RESULT:      -8.4      2.425      5.032
REMARK  Name = 
REMARK  7 active torsions:
REMARK  status: ('A' for Active; 'I' for Inactive)
REMARK    1  A    between atoms: O_2  and  C_3
REMARK    2  A    between atoms: C_7  and  C_8
REMARK    3  A    between atoms: C_8  and  N_9
REMARK    4  A    between atoms: C_10  and  C_12
REMARK    5  A    between atoms: C_14  and  S_15
REMARK    6  A    between atoms: S_15  and  C_16
REMARK    7  A    between atoms: C_19  and  C_20
REMARK                            x       y       z     vdW  Elec       q    Type
REMARK                         _______ _______ _______ _____ _____    ______ ____
ROOT
ATOM      1  C   UNL     1      38.555   0.542  14.804  0.00  0.00    +0.000 A 
ATOM      2  C   UNL     1      38.422   1.922  14.844  0.00  0.00    +0.000 A 
ATOM      3  C   UNL     1      39.403   2.773  14.385  0.00  0.00    +0.000 A 
ATOM      4  N   UNL     1      40.552   2.243  13.870  0.00  0.00    +0.000 NA
ATOM      5  C   UNL     1      40.723   0.913  13.812  0.00  0.00    +0.000 A 
ATOM      6  C   UNL     1      41.875   0.365  13.295  0.00  0.00    +0.000 A 
ATOM      7  C   UNL     1      42.066  -1.000  13.228  0.00  0.00    +0.000 A 
ATOM      8  C   UNL     1      41.051  -1.814  13.703  0.00  0.00    +0.000 A 
ATOM      9  C   UNL     1      39.881  -1.307  14.227  0.00  0.00    +0.000 A 
ATOM     10  C   UNL     1      39.741   0.065  14.271  0.00  0.00    +0.000 A 
ENDROOT
BRANCH   1  12
ATOM     11  N   UNL     1      37.516  -0.670  16.684  0.00  0.00    +0.000 NA
ATOM     12  C   UNL     1      37.515  -0.353  15.290  0.00  0.00    +0.000 C 
ATOM     13  O   UNL     1      36.653  -0.836  14.557  0.00  0.00    +0.000 OA
BRANCH  11  14
ATOM     14  C   UNL     1      36.555  -1.533  17.303  0.00  0.00    +0.000 C 
BRANCH  14  19
ATOM     15  C   UNL     1      36.189  -5.139  16.449  0.00  0.00    +0.000 A 
ATOM     16  C   UNL     1      37.402  -5.704  16.852  0.00  0.00    +0.000 A 
ATOM     17  C   UNL     1      38.307  -4.825  17.406  0.00  0.00    +0.000 A 
ATOM     18  C   UNL     1      38.043  -3.494  17.553  0.00  0.00    +0.000 A 
ATOM     19  C   UNL     1      36.847  -2.969  17.148  0.00  0.00    +0.000 A 
ATOM     20  C   UNL     1      35.910  -3.799  16.590  0.00  0.00    +0.000 A 
BRANCH  15  22
ATOM     21  C   UNL     1      34.520  -5.580  14.781  0.00  0.00    +0.000 C 
ATOM     22  O   UNL     1      35.267  -6.024  15.887  0.00  0.00    +0.000 OA
ENDBRANCH  15  22
ENDBRANCH  14  19
ENDBRANCH  11  14
ENDBRANCH   1  12
BRANCH   3  23
ATOM     23  S   UNL     1      39.264   4.552  14.417  0.00  0.00    +0.000 S 
BRANCH  23  24
ATOM     24  C   UNL     1      39.569   5.172  16.067  0.00  0.00    +0.000 A 
ATOM     25  C   UNL     1      40.597   6.040  16.356  0.00  0.00    +0.000 A 
ATOM     26  C   UNL     1      40.833   6.515  17.630  0.00  0.00    +0.000 A 
ATOM     27  C   UNL     1      40.036   6.133  18.688  0.00  0.00    +0.000 A 
ATOM     28  C   UNL     1      39.006   5.264  18.403  0.00  0.00    +0.000 A 
ATOM     29  C   UNL     1      38.758   4.783  17.137  0.00  0.00    +0.000 A 
BRANCH  27  30
ATOM     30  C   UNL     1      40.254   6.620  20.076  0.00  0.00    +0.000 C 
ATOM     31  C   UNL     1      40.053   8.129  20.158  0.00  0.00    +0.000 C 
ATOM     32  C   UNL     1      41.734   6.392  20.393  0.00  0.00    +0.000 C 
ENDBRANCH  27  30
ENDBRANCH  23  24
ENDBRANCH   3  23
TORSDOF 7
ENDMDL
MODEL 3
REMARK VINA RESULT:      -8.4      2.106      6.076
REMARK  Name = 
REMARK  7 active torsions:
REMARK  status: ('A' for Active; 'I' for Inactive)
REMARK    1  A    between atoms: O_2  and  C_3
REMARK    2  A    between atoms: C_7  and  C_8
REMARK    3  A    between atoms: C_8  and  N_9
REMARK    4  A    between atoms: C_10  and  C_12
REMARK    5  A    between atoms: C_14  and  S_15
REMARK    6  A    between atoms: S_15  and  C_16
REMARK    7  A    between atoms: C_19  and  C_20
REMARK                            x       y       z     vdW  Elec       q    Type
REMARK                         _______ _______ _______ _____ _____    ______ ____
ROOT
ATOM      1  C   UNL     1      39.789   0.726  14.253  0.00  0.00    +0.000 A 
ATOM      2  C   UNL     1      39.412   2.047  14.442  0.00  0.00    +0.000 A 
ATOM      3  C   UNL     1      40.138   3.102  13.933  0.00  0.00    +0.000 A 
ATOM      4  N   UNL     1      41.271   2.842  13.216  0.00  0.00    +0.000 NA
ATOM      5  C   UNL     1      41.673   1.579  13.010  0.00  0.00    +0.000 A 
ATOM      6  C   UNL     1      42.813   1.302  12.289  0.00  0.00    +0.000 A 
ATOM      7  C   UNL     1      43.239   0.007  12.068  0.00  0.00    +0.000 A 
ATOM      8  C   UNL     1      42.476  -1.018  12.599  0.00  0.00    +0.000 A 
ATOM      9  C   UNL     1      41.327  -0.786  13.326  0.00  0.00    +0.000 A 
ATOM     10  C   UNL     1      40.946   0.526  13.518  0.00  0.00    +0.000 A 
ENDROOT
BRANCH   1  12
ATOM     11  N   UNL     1      37.838  -0.774  14.084  0.00  0.00    +0.000 NA
ATOM     12  C   UNL     1      39.018  -0.385  14.791  0.00  0.00    +0.000 C 
ATOM     13  O   UNL     1      39.340  -0.989  15.815  0.00  0.00    +0.000 OA
BRANCH  11  14
ATOM     14  C   UNL     1      36.983  -1.848  14.493  0.00  0.00    +0.000 C 
BRANCH  14  19
ATOM     15  C   UNL     1      34.836   0.192  16.750  0.00  0.00    +0.000 A 
ATOM     16  C   UNL     1      34.122  -0.759  17.483  0.00  0.00    +0.000 A 
ATOM     17  C   UNL     1      34.402  -2.072  17.177  0.00  0.00    +0.000 A 
ATOM     18  C   UNL     1      35.313  -2.427  16.225  0.00  0.00    +0.000 A 
ATOM     19  C   UNL     1      35.997  -1.473  15.522  0.00  0.00    +0.000 A 
ATOM     20  C   UNL     1      35.757  -0.151  15.786  0.00  0.00    +0.000 A 
BRANCH  15  22
ATOM     21  C   UNL     1      35.190   2.521  16.290  0.00  0.00    +0.000 C 
ATOM     22  O   UNL     1      34.557   1.526  17.055  0.00  0.00    +0.000 OA
ENDBRANCH  15  22
ENDBRANCH  14  19
ENDBRANCH  11  14
ENDBRANCH   1  12
BRANCH   3  23
ATOM     23  S   UNL     1      39.681   4.814  14.152  0.00  0.00    +0.000 S 
BRANCH  23  24
ATOM     24  C   UNL     1      39.881   5.298  15.862  0.00  0.00    +0.000 A 
ATOM     25  C   UNL     1      40.860   6.171  16.277  0.00  0.00    +0.000 A 
ATOM     26  C   UNL     1      41.015   6.542  17.597  0.00  0.00    +0.000 A 
ATOM     27  C   UNL     1      40.181   6.045  18.576  0.00  0.00    +0.000 A 
ATOM     28  C   UNL     1      39.198   5.171  18.165  0.00  0.00    +0.000 A 
ATOM     29  C   UNL     1      39.032   4.793  16.852  0.00  0.00    +0.000 A 
BRANCH  27  30
ATOM     30  C   UNL     1      40.310   6.418  20.010  0.00  0.00    +0.000 C 
ATOM     31  C   UNL     1      39.680   7.780  20.274  0.00  0.00    +0.000 C 
ATOM     32  C   UNL     1      41.806   6.605  20.279  0.00  0.00    +0.000 C 
ENDBRANCH  27  30
ENDBRANCH  23  24
ENDBRANCH   3  23
TORSDOF 7
ENDMDL
MODEL 4
REMARK VINA RESULT:      -8.3      2.751      7.557
REMARK  Name = 
REMARK  7 active torsions:
REMARK  status: ('A' for Active; 'I' for Inactive)
REMARK    1  A    between atoms: O_2  and  C_3
REMARK    2  A    between atoms: C_7  and  C_8
REMARK    3  A    between atoms: C_8  and  N_9
REMARK    4  A    between atoms: C_10  and  C_12
REMARK    5  A    between atoms: C_14  and  S_15
REMARK    6  A    between atoms: S_15  and  C_16
REMARK    7  A    between atoms: C_19  and  C_20
REMARK                            x       y       z     vdW  Elec       q    Type
REMARK                         _______ _______ _______ _____ _____    ______ ____
ROOT
ATOM      1  C   UNL     1      36.975   0.838  15.052  0.00  0.00    +0.000 A 
ATOM      2  C   UNL     1      37.958   0.450  14.154  0.00  0.00    +0.000 A 
ATOM      3  C   UNL     1      38.214  -0.873  13.864  0.00  0.00    +0.000 A 
ATOM      4  N   UNL     1      37.475  -1.841  14.483  0.00  0.00    +0.000 NA
ATOM      5  C   UNL     1      36.514  -1.510  15.359  0.00  0.00    +0.000 A 
ATOM      6  C   UNL     1      35.762  -2.475  15.989  0.00  0.00    +0.000 A 
ATOM      7  C   UNL     1      34.769  -2.151  16.893  0.00  0.00    +0.000 A 
ATOM      8  C   UNL     1      34.551  -0.809  17.150  0.00  0.00    +0.000 A 
ATOM      9  C   UNL     1      35.280   0.191  16.541  0.00  0.00    +0.000 A 
ATOM     10  C   UNL     1      36.260  -0.188  15.647  0.00  0.00    +0.000 A 
ENDROOT
BRANCH   1  12
ATOM     11  N   UNL     1      37.445   2.834  16.424  0.00  0.00    +0.000 NA
ATOM     12  C   UNL     1      36.708   2.237  15.353  0.00  0.00    +0.000 C 
ATOM     13  O   UNL     1      35.886   2.910  14.732  0.00  0.00    +0.000 OA
BRANCH  11  14
ATOM     14  C   UNL     1      37.290   4.198  16.832  0.00  0.00    +0.000 C 
BRANCH  14  19
ATOM     15  C   UNL     1      40.072   5.834  18.688  0.00  0.00    +0.000 A 
ATOM     16  C   UNL     1      40.976   6.197  17.686  0.00  0.00    +0.000 A 
ATOM     17  C   UNL     1      40.599   5.867  16.404  0.00  0.00    +0.000 A 
ATOM     18  C   UNL     1      39.425   5.229  16.124  0.00  0.00    +0.000 A 
ATOM     19  C   UNL     1      38.559   4.886  17.126  0.00  0.00    +0.000 A 
ATOM     20  C   UNL     1      38.886   5.190  18.421  0.00  0.00    +0.000 A 
BRANCH  15  22
ATOM     21  C   UNL     1      41.795   6.493  20.224  0.00  0.00    +0.000 C 
ATOM     22  O   UNL     1      40.448   6.165  19.992  0.00  0.00    +0.000 OA
ENDBRANCH  15  22
ENDBRANCH  14  19
ENDBRANCH  11  14
ENDBRANCH   1  12
BRANCH   3  23
ATOM     23  S   UNL     1      39.467  -1.409  12.712  0.00  0.00    +0.000 S 
BRANCH  23  24
ATOM     24  C   UNL     1      41.091  -0.939  13.294  0.00  0.00    +0.000 A 
ATOM     25  C   UNL     1      41.680   0.261  12.965  0.00  0.00    +0.000 A 
ATOM     26  C   UNL     1      42.935   0.621  13.412  0.00  0.00    +0.000 A 
ATOM     27  C   UNL     1      43.667  -0.220  14.221  0.00  0.00    +0.000 A 
ATOM     28  C   UNL     1      43.082  -1.423  14.554  0.00  0.00    +0.000 A 
ATOM     29  C   UNL     1      41.831  -1.794  14.116  0.00  0.00    +0.000 A 
BRANCH  27  30
ATOM     30  C   UNL     1      45.023   0.126  14.727  0.00  0.00    +0.000 C 
ATOM     31  C   UNL     1      46.099  -0.608  13.936  0.00  0.00    +0.000 C 
ATOM     32  C   UNL     1      45.114  -0.433  16.150  0.00  0.00    +0.000 C 
ENDBRANCH  27  30
ENDBRANCH  23  24
ENDBRANCH   3  23
TORSDOF 7
ENDMDL
MODEL 5
REMARK VINA RESULT:      -8.2      2.945      3.880
REMARK  Name = 
REMARK  7 active torsions:
REMARK  status: ('A' for Active; 'I' for Inactive)
REMARK    1  A    between atoms: O_2  and  C_3
REMARK    2  A    between atoms: C_7  and  C_8
REMARK    3  A    between atoms: C_8  and  N_9
REMARK    4  A    between atoms: C_10  and  C_12
REMARK    5  A    between atoms: C_14  and  S_15
REMARK    6  A    between atoms: S_15  and  C_16
REMARK    7  A    between atoms: C_19  and  C_20
REMARK                            x       y       z     vdW  Elec       q    Type
REMARK                         _______ _______ _______ _____ _____    ______ ____
ROOT
ATOM      1  C   UNL     1      40.454   0.243  14.211  0.00  0.00    +0.000 A 
ATOM      2  C   UNL     1      40.195   1.605  14.166  0.00  0.00    +0.000 A 
ATOM      3  C   UNL     1      39.006   2.146  14.605  0.00  0.00    +0.000 A 
ATOM      4  N   UNL     1      38.045   1.314  15.105  0.00  0.00    +0.000 NA
ATOM      5  C   UNL     1      38.253  -0.009  15.167  0.00  0.00    +0.000 A 
ATOM      6  C   UNL     1      37.293  -0.859  15.669  0.00  0.00    +0.000 A 
ATOM      7  C   UNL     1      37.493  -2.223  15.740  0.00  0.00    +0.000 A 
ATOM      8  C   UNL     1      38.703  -2.719  15.286  0.00  0.00    +0.000 A 
ATOM      9  C   UNL     1      39.692  -1.904  14.777  0.00  0.00    +0.000 A 
ATOM     10  C   UNL     1      39.441  -0.548  14.728  0.00  0.00    +0.000 A 
ENDROOT
BRANCH   1  12
ATOM     11  N   UNL     1      42.838  -0.238  14.623  0.00  0.00    +0.000 NA
ATOM     12  C   UNL     1      41.712  -0.324  13.746  0.00  0.00    +0.000 C 
ATOM     13  O   UNL     1      41.837  -0.861  12.646  0.00  0.00    +0.000 OA
BRANCH  11  14
ATOM     14  C   UNL     1      44.136  -0.752  14.303  0.00  0.00    +0.000 C 
BRANCH  14  19
ATOM     15  C   UNL     1      46.062  -0.480  17.478  0.00  0.00    +0.000 A 
ATOM     16  C   UNL     1      46.500  -1.785  17.717  0.00  0.00    +0.000 A 
ATOM     17  C   UNL     1      46.119  -2.717  16.777  0.00  0.00    +0.000 A 
ATOM     18  C   UNL     1      45.365  -2.395  15.686  0.00  0.00    +0.000 A 
ATOM     19  C   UNL     1      44.949  -1.108  15.478  0.00  0.00    +0.000 A 
ATOM     20  C   UNL     1      45.300  -0.141  16.382  0.00  0.00    +0.000 A 
BRANCH  15  22
ATOM     21  C   UNL     1      47.812   0.776  18.535  0.00  0.00    +0.000 C 
ATOM     22  O   UNL     1      46.445   0.471  18.426  0.00  0.00    +0.000 OA
ENDBRANCH  15  22
ENDBRANCH  14  19
ENDBRANCH  11  14
ENDBRANCH   1  12
BRANCH   3  23
ATOM     23  S   UNL     1      38.640   3.892  14.566  0.00  0.00    +0.000 S 
BRANCH  23  24
ATOM     24  C   UNL     1      39.088   4.659  16.118  0.00  0.00    +0.000 A 
ATOM     25  C   UNL     1      40.101   5.584  16.226  0.00  0.00    +0.000 A 
ATOM     26  C   UNL     1      40.447   6.173  17.425  0.00  0.00    +0.000 A 
ATOM     27  C   UNL     1      39.782   5.853  18.589  0.00  0.00    +0.000 A 
ATOM     28  C   UNL     1      38.767   4.927  18.487  0.00  0.00    +0.000 A 
ATOM     29  C   UNL     1      38.410   4.333  17.297  0.00  0.00    +0.000 A 
BRANCH  27  30
ATOM     30  C   UNL     1      40.120   6.462  19.903  0.00  0.00    +0.000 C 
ATOM     31  C   UNL     1      39.253   7.686  20.172  0.00  0.00    +0.000 C 
ATOM     32  C   UNL     1      41.549   6.999  19.781  0.00  0.00    +0.000 C 
ENDBRANCH  27  30
ENDBRANCH  23  24
ENDBRANCH   3  23
TORSDOF 7
ENDMDL
MODEL 6
REMARK VINA RESULT:      -8.1     23.629     28.581
REMARK  Name = 
REMARK  7 active torsions:
REMARK  status: ('A' for Active; 'I' for Inactive)
REMARK    1  A    between atoms: O_2  and  C_3
REMARK    2  A    between atoms: C_7  and  C_8
REMARK    3  A    between atoms: C_8  and  N_9
REMARK    4  A    between atoms: C_10  and  C_12
REMARK    5  A    between atoms: C_14  and  S_15
REMARK    6  A    between atoms: S_15  and  C_16
REMARK    7  A    between atoms: C_19  and  C_20
REMARK                            x       y       z     vdW  Elec       q    Type
REMARK                         _______ _______ _______ _____ _____    ______ ____
ROOT
ATOM      1  C   UNL     1      13.184  -0.086  27.364  0.00  0.00    +0.000 A 
ATOM      2  C   UNL     1      12.711  -1.385  27.246  0.00  0.00    +0.000 A 
ATOM      3  C   UNL     1      11.426  -1.669  26.838  0.00  0.00    +0.000 A 
ATOM      4  N   UNL     1      10.584  -0.637  26.538  0.00  0.00    +0.000 NA
ATOM      5  C   UNL     1      10.999   0.635  26.638  0.00  0.00    +0.000 A 
ATOM      6  C   UNL     1      10.161   1.684  26.337  0.00  0.00    +0.000 A 
ATOM      7  C   UNL     1      10.574   2.998  26.435  0.00  0.00    +0.000 A 
ATOM      8  C   UNL     1      11.874   3.232  26.849  0.00  0.00    +0.000 A 
ATOM      9  C   UNL     1      12.747   2.211  27.159  0.00  0.00    +0.000 A 
ATOM     10  C   UNL     1      12.284   0.917  27.045  0.00  0.00    +0.000 A 
ENDROOT
BRANCH   1  12
ATOM     11  N   UNL     1      15.527   0.416  26.777  0.00  0.00    +0.000 NA
ATOM     12  C   UNL     1      14.543   0.209  27.794  0.00  0.00    +0.000 C 
ATOM     13  O   UNL     1      14.868   0.283  28.979  0.00  0.00    +0.000 OA
BRANCH  11  14
ATOM     14  C   UNL     1      16.901   0.716  27.050  0.00  0.00    +0.000 C 
BRANCH  14  19
ATOM     15  C   UNL     1      19.357   0.407  24.269  0.00  0.00    +0.000 A 
ATOM     16  C   UNL     1      19.646  -0.959  24.226  0.00  0.00    +0.000 A 
ATOM     17  C   UNL     1      18.985  -1.731  25.156  0.00  0.00    +0.000 A 
ATOM     18  C   UNL     1      18.109  -1.204  26.059  0.00  0.00    +0.000 A 
ATOM     19  C   UNL     1      17.846   0.139  26.078  0.00  0.00    +0.000 A 
ATOM     20  C   UNL     1      18.477   0.953  25.174  0.00  0.00    +0.000 A 
BRANCH  15  22
ATOM     21  C   UNL     1      21.271   0.749  22.861  0.00  0.00    +0.000 C 
ATOM     22  O   UNL     1      20.023   1.196  23.328  0.00  0.00    +0.000 OA
ENDBRANCH  15  22
ENDBRANCH  14  19
ENDBRANCH  11  14
ENDBRANCH   1  12
BRANCH   3  23
ATOM     23  S   UNL     1      10.785  -3.326  26.672  0.00  0.00    +0.000 S 
BRANCH  23  24
ATOM     24  C   UNL     1      11.727  -4.464  27.680  0.00  0.00    +0.000 A 
ATOM     25  C   UNL     1      11.804  -4.354  29.050  0.00  0.00    +0.000 A 
ATOM     26  C   UNL     1      12.534  -5.231  29.826  0.00  0.00    +0.000 A 
ATOM     27  C   UNL     1      13.231  -6.273  29.254  0.00  0.00    +0.000 A 
ATOM     28  C   UNL     1      13.158  -6.387  27.883  0.00  0.00    +0.000 A 
ATOM     29  C   UNL     1      12.433  -5.521  27.096  0.00  0.00    +0.000 A 
BRANCH  27  30
ATOM     30  C   UNL     1      14.030  -7.242  30.052  0.00  0.00    +0.000 C 
ATOM     31  C   UNL     1      13.146  -8.363  30.584  0.00  0.00    +0.000 C 
ATOM     32  C   UNL     1      14.519  -6.488  31.292  0.00  0.00    +0.000 C 
ENDBRANCH  27  30
ENDBRANCH  23  24
ENDBRANCH   3  23
TORSDOF 7
ENDMDL
MODEL 7
REMARK VINA RESULT:      -8.1      1.364      2.087
REMARK  Name = 
REMARK  7 active torsions:
REMARK  status: ('A' for Active; 'I' for Inactive)
REMARK    1  A    between atoms: O_2  and  C_3
REMARK    2  A    between atoms: C_7  and  C_8
REMARK    3  A    between atoms: C_8  and  N_9
REMARK    4  A    between atoms: C_10  and  C_12
REMARK    5  A    between atoms: C_14  and  S_15
REMARK    6  A    between atoms: S_15  and  C_16
REMARK    7  A    between atoms: C_19  and  C_20
REMARK                            x       y       z     vdW  Elec       q    Type
REMARK                         _______ _______ _______ _____ _____    ______ ____
ROOT
ATOM      1  C   UNL     1      37.742   0.018  15.040  0.00  0.00    +0.000 A 
ATOM      2  C   UNL     1      37.954   1.358  14.748  0.00  0.00    +0.000 A 
ATOM      3  C   UNL     1      37.140   2.358  15.235  0.00  0.00    +0.000 A 
ATOM      4  N   UNL     1      36.085   2.021  16.035  0.00  0.00    +0.000 NA
ATOM      5  C   UNL     1      35.843   0.738  16.342  0.00  0.00    +0.000 A 
ATOM      6  C   UNL     1      34.784   0.386  17.148  0.00  0.00    +0.000 A 
ATOM      7  C   UNL     1      34.523  -0.930  17.474  0.00  0.00    +0.000 A 
ATOM      8  C   UNL     1      35.369  -1.898  16.960  0.00  0.00    +0.000 A 
ATOM      9  C   UNL     1      36.442  -1.589  16.150  0.00  0.00    +0.000 A 
ATOM     10  C   UNL     1      36.658  -0.259  15.855  0.00  0.00    +0.000 A 
ENDROOT
BRANCH   1  12
ATOM     11  N   UNL     1      39.762  -1.375  15.293  0.00  0.00    +0.000 NA
ATOM     12  C   UNL     1      38.606  -1.034  14.524  0.00  0.00    +0.000 C 
ATOM     13  O   UNL     1      38.380  -1.627  13.469  0.00  0.00    +0.000 OA
BRANCH  11  14
ATOM     14  C   UNL     1      40.700  -2.389  14.911  0.00  0.00    +0.000 C 
BRANCH  14  19
ATOM     15  C   UNL     1      43.241  -0.113  13.419  0.00  0.00    +0.000 A 
ATOM     16  C   UNL     1      43.978  -0.944  12.571  0.00  0.00    +0.000 A 
ATOM     17  C   UNL     1      43.577  -2.261  12.540  0.00  0.00    +0.000 A 
ATOM     18  C   UNL     1      42.532  -2.728  13.284  0.00  0.00    +0.000 A 
ATOM     19  C   UNL     1      41.829  -1.892  14.106  0.00  0.00    +0.000 A 
ATOM     20  C   UNL     1      42.186  -0.571  14.175  0.00  0.00    +0.000 A 
BRANCH  15  22
ATOM     21  C   UNL     1      43.023   2.120  12.567  0.00  0.00    +0.000 C 
ATOM     22  O   UNL     1      43.642   1.224  13.456  0.00  0.00    +0.000 OA
ENDBRANCH  15  22
ENDBRANCH  14  19
ENDBRANCH  11  14
ENDBRANCH   1  12
BRANCH   3  23
ATOM     23  S   UNL     1      37.384   4.090  14.884  0.00  0.00    +0.000 S 
BRANCH  23  24
ATOM     24  C   UNL     1      38.536   4.806  16.049  0.00  0.00    +0.000 A 
ATOM     25  C   UNL     1      38.344   4.757  17.411  0.00  0.00    +0.000 A 
ATOM     26  C   UNL     1      39.233   5.312  18.308  0.00  0.00    +0.000 A 
ATOM     27  C   UNL     1      40.372   5.954  17.873  0.00  0.00    +0.000 A 
ATOM     28  C   UNL     1      40.569   6.006  16.510  0.00  0.00    +0.000 A 
ATOM     29  C   UNL     1      39.692   5.456  15.603  0.00  0.00    +0.000 A 
BRANCH  27  30
ATOM     30  C   UNL     1      41.357   6.567  18.804  0.00  0.00    +0.000 C 
ATOM     31  C   UNL     1      41.017   6.230  20.250  0.00  0.00    +0.000 C 
ATOM     32  C   UNL     1      41.181   8.084  18.690  0.00  0.00    +0.000 C 
ENDBRANCH  27  30
ENDBRANCH  23  24
ENDBRANCH   3  23
TORSDOF 7
ENDMDL
MODEL 8
REMARK VINA RESULT:      -8.0      2.254      2.500
REMARK  Name = 
REMARK  7 active torsions:
REMARK  status: ('A' for Active; 'I' for Inactive)
REMARK    1  A    between atoms: O_2  and  C_3
REMARK    2  A    between atoms: C_7  and  C_8
REMARK    3  A    between atoms: C_8  and  N_9
REMARK    4  A    between atoms: C_10  and  C_12
REMARK    5  A    between atoms: C_14  and  S_15
REMARK    6  A    between atoms: S_15  and  C_16
REMARK    7  A    between atoms: C_19  and  C_20
REMARK                            x       y       z     vdW  Elec       q    Type
REMARK                         _______ _______ _______ _____ _____    ______ ____
ROOT
ATOM      1  C   UNL     1      37.937   0.484  14.987  0.00  0.00    +0.000 A 
ATOM      2  C   UNL     1      38.183   1.834  14.778  0.00  0.00    +0.000 A 
ATOM      3  C   UNL     1      37.356   2.820  15.270  0.00  0.00    +0.000 A 
ATOM      4  N   UNL     1      36.252   2.460  15.990  0.00  0.00    +0.000 NA
ATOM      5  C   UNL     1      35.976   1.167  16.216  0.00  0.00    +0.000 A 
ATOM      6  C   UNL     1      34.868   0.791  16.940  0.00  0.00    +0.000 A 
ATOM      7  C   UNL     1      34.570  -0.536  17.181  0.00  0.00    +0.000 A 
ATOM      8  C   UNL     1      35.431  -1.489  16.666  0.00  0.00    +0.000 A 
ATOM      9  C   UNL     1      36.553  -1.157  15.936  0.00  0.00    +0.000 A 
ATOM     10  C   UNL     1      36.804   0.183  15.724  0.00  0.00    +0.000 A 
ENDROOT
BRANCH   1  12
ATOM     11  N   UNL     1      38.503  -1.097  13.181  0.00  0.00    +0.000 NA
ATOM     12  C   UNL     1      38.814  -0.554  14.466  0.00  0.00    +0.000 C 
ATOM     13  O   UNL     1      39.794  -0.972  15.082  0.00  0.00    +0.000 OA
BRANCH  11  14
ATOM     14  C   UNL     1      39.276  -2.120  12.541  0.00  0.00    +0.000 C 
BRANCH  14  19
ATOM     15  C   UNL     1      40.887  -2.325   9.191  0.00  0.00    +0.000 A 
ATOM     16  C   UNL     1      40.771  -1.028   8.683  0.00  0.00    +0.000 A 
ATOM     17  C   UNL     1      40.141  -0.125   9.511  0.00  0.00    +0.000 A 
ATOM     18  C   UNL     1      39.662  -0.466  10.742  0.00  0.00    +0.000 A 
ATOM     19  C   UNL     1      39.790  -1.744  11.213  0.00  0.00    +0.000 A 
ATOM     20  C   UNL     1      40.408  -2.683  10.430  0.00  0.00    +0.000 A 
BRANCH  15  22
ATOM     21  C   UNL     1      40.821  -3.710   7.232  0.00  0.00    +0.000 C 
ATOM     22  O   UNL     1      41.524  -3.246   8.357  0.00  0.00    +0.000 OA
ENDBRANCH  15  22
ENDBRANCH  14  19
ENDBRANCH  11  14
ENDBRANCH   1  12
BRANCH   3  23
ATOM     23  S   UNL     1      37.643   4.564  15.025  0.00  0.00    +0.000 S 
BRANCH  23  24
ATOM     24  C   UNL     1      38.182   5.328  16.550  0.00  0.00    +0.000 A 
ATOM     25  C   UNL     1      38.708   4.607  17.597  0.00  0.00    +0.000 A 
ATOM     26  C   UNL     1      39.121   5.197  18.774  0.00  0.00    +0.000 A 
ATOM     27  C   UNL     1      39.022   6.560  18.956  0.00  0.00    +0.000 A 
ATOM     28  C   UNL     1      38.496   7.287  17.910  0.00  0.00    +0.000 A 
ATOM     29  C   UNL     1      38.081   6.711  16.730  0.00  0.00    +0.000 A 
BRANCH  27  30
ATOM     30  C   UNL     1      39.454   7.239  20.207  0.00  0.00    +0.000 C 
ATOM     31  C   UNL     1      38.595   8.467  20.480  0.00  0.00    +0.000 C 
ATOM     32  C   UNL     1      40.862   7.781  19.945  0.00  0.00    +0.000 C 
ENDBRANCH  27  30
ENDBRANCH  23  24
ENDBRANCH   3  23
TORSDOF 7
ENDMDL
MODEL 9
REMARK VINA RESULT:      -8.0      7.902     13.483
REMARK  Name = 
REMARK  7 active torsions:
REMARK  status: ('A' for Active; 'I' for Inactive)
REMARK    1  A    between atoms: O_2  and  C_3
REMARK    2  A    between atoms: C_7  and  C_8
REMARK    3  A    between atoms: C_8  and  N_9
REMARK    4  A    between atoms: C_10  and  C_12
REMARK    5  A    between atoms: C_14  and  S_15
REMARK    6  A    between atoms: S_15  and  C_16
REMARK    7  A    between atoms: C_19  and  C_20
REMARK                            x       y       z     vdW  Elec       q    Type
REMARK                         _______ _______ _______ _____ _____    ______ ____
ROOT
ATOM      1  C   UNL     1      44.553   6.446  24.361  0.00  0.00    +0.000 A 
ATOM      2  C   UNL     1      44.534   6.188  22.998  0.00  0.00    +0.000 A 
ATOM      3  C   UNL     1      44.462   7.193  22.057  0.00  0.00    +0.000 A 
ATOM      4  N   UNL     1      44.407   8.491  22.478  0.00  0.00    +0.000 NA
ATOM      5  C   UNL     1      44.422   8.786  23.787  0.00  0.00    +0.000 A 
ATOM      6  C   UNL     1      44.368  10.090  24.224  0.00  0.00    +0.000 A 
ATOM      7  C   UNL     1      44.384  10.409  25.567  0.00  0.00    +0.000 A 
ATOM      8  C   UNL     1      44.456   9.365  26.474  0.00  0.00    +0.000 A 
ATOM      9  C   UNL     1      44.514   8.045  26.079  0.00  0.00    +0.000 A 
ATOM     10  C   UNL     1      44.495   7.781  24.725  0.00  0.00    +0.000 A 
ENDROOT
BRANCH   1  12
ATOM     11  N   UNL     1      43.425   5.026  26.033  0.00  0.00    +0.000 NA
ATOM     12  C   UNL     1      44.630   5.382  25.351  0.00  0.00    +0.000 C 
ATOM     13  O   UNL     1      45.676   4.790  25.617  0.00  0.00    +0.000 OA
BRANCH  11  14
ATOM     14  C   UNL     1      43.348   3.999  27.028  0.00  0.00    +0.000 C 
BRANCH  14  19
ATOM     15  C   UNL     1      40.730   5.660  29.089  0.00  0.00    +0.000 A 
ATOM     16  C   UNL     1      40.679   4.889  30.253  0.00  0.00    +0.000 A 
ATOM     17  C   UNL     1      41.548   3.821  30.291  0.00  0.00    +0.000 A 
ATOM     18  C   UNL     1      42.402   3.531  29.266  0.00  0.00    +0.000 A 
ATOM     19  C   UNL     1      42.429   4.304  28.138  0.00  0.00    +0.000 A 
ATOM     20  C   UNL     1      41.585   5.380  28.048  0.00  0.00    +0.000 A 
BRANCH  15  22
ATOM     21  C   UNL     1      38.861   6.831  30.037  0.00  0.00    +0.000 C 
ATOM     22  O   UNL     1      39.851   6.745  29.044  0.00  0.00    +0.000 OA
ENDBRANCH  15  22
ENDBRANCH  14  19
ENDBRANCH  11  14
ENDBRANCH   1  12
BRANCH   3  23
ATOM     23  S   UNL     1      44.440   6.899  20.297  0.00  0.00    +0.000 S 
BRANCH  23  24
ATOM     24  C   UNL     1      42.761   6.677  19.723  0.00  0.00    +0.000 A 
ATOM     25  C   UNL     1      41.688   6.590  20.580  0.00  0.00    +0.000 A 
ATOM     26  C   UNL     1      40.393   6.416  20.135  0.00  0.00    +0.000 A 
ATOM     27  C   UNL     1      40.113   6.319  18.789  0.00  0.00    +0.000 A 
ATOM     28  C   UNL     1      41.184   6.406  17.927  0.00  0.00    +0.000 A 
ATOM     29  C   UNL     1      42.480   6.580  18.356  0.00  0.00    +0.000 A 
BRANCH  27  30
ATOM     30  C   UNL     1      38.734   6.131  18.265  0.00  0.00    +0.000 C 
ATOM     31  C   UNL     1      38.555   4.727  17.701  0.00  0.00    +0.000 C 
ATOM     32  C   UNL     1      38.591   7.070  17.064  0.00  0.00    +0.000 C 
ENDBRANCH  27  30
ENDBRANCH  23  24
ENDBRANCH   3  23
TORSDOF 7
ENDMDL
MODEL 10
REMARK VINA RESULT:      -7.8      4.498      9.190
REMARK  Name = 
REMARK  7 active torsions:
REMARK  status: ('A' for Active; 'I' for Inactive)
REMARK    1  A    between atoms: O_2  and  C_3
REMARK    2  A    between atoms: C_7  and  C_8
REMARK    3  A    between atoms: C_8  and  N_9
REMARK    4  A    between atoms: C_10  and  C_12
REMARK    5  A    between atoms: C_14  and  S_15
REMARK    6  A    between atoms: S_15  and  C_16
REMARK    7  A    between atoms: C_19  and  C_20
REMARK                            x       y       z     vdW  Elec       q    Type
REMARK                         _______ _______ _______ _____ _____    ______ ____
ROOT
ATOM      1  C   UNL     1      38.082   4.382  16.587  0.00  0.00    +0.000 A 
ATOM      2  C   UNL     1      37.006   3.575  16.925  0.00  0.00    +0.000 A 
ATOM      3  C   UNL     1      36.596   2.523  16.135  0.00  0.00    +0.000 A 
ATOM      4  N   UNL     1      37.271   2.262  14.977  0.00  0.00    +0.000 NA
ATOM      5  C   UNL     1      38.318   3.018  14.612  0.00  0.00    +0.000 A 
ATOM      6  C   UNL     1      39.008   2.766  13.448  0.00  0.00    +0.000 A 
ATOM      7  C   UNL     1      40.087   3.534  13.059  0.00  0.00    +0.000 A 
ATOM      8  C   UNL     1      40.460   4.580  13.886  0.00  0.00    +0.000 A 
ATOM      9  C   UNL     1      39.798   4.867  15.061  0.00  0.00    +0.000 A 
ATOM     10  C   UNL     1      38.726   4.068  15.402  0.00  0.00    +0.000 A 
ENDROOT
BRANCH   1  12
ATOM     11  N   UNL     1      39.328   5.185  18.559  0.00  0.00    +0.000 NA
ATOM     12  C   UNL     1      38.512   5.492  17.426  0.00  0.00    +0.000 C 
ATOM     13  O   UNL     1      38.202   6.661  17.199  0.00  0.00    +0.000 OA
BRANCH  11  14
ATOM     14  C   UNL     1      39.827   6.172  19.470  0.00  0.00    +0.000 C 
BRANCH  14  19
ATOM     15  C   UNL     1      43.408   6.619  20.384  0.00  0.00    +0.000 A 
ATOM     16  C   UNL     1      44.037   6.871  19.162  0.00  0.00    +0.000 A 
ATOM     17  C   UNL     1      43.208   6.879  18.062  0.00  0.00    +0.000 A 
ATOM     18  C   UNL     1      41.864   6.657  18.153  0.00  0.00    +0.000 A 
ATOM     19  C   UNL     1      41.276   6.412  19.364  0.00  0.00    +0.000 A 
ATOM     20  C   UNL     1      42.055   6.392  20.491  0.00  0.00    +0.000 A 
BRANCH  15  22
ATOM     21  C   UNL     1      45.548   7.110  21.355  0.00  0.00    +0.000 C 
ATOM     22  O   UNL     1      44.243   6.609  21.504  0.00  0.00    +0.000 OA
ENDBRANCH  15  22
ENDBRANCH  14  19
ENDBRANCH  11  14
ENDBRANCH   1  12
BRANCH   3  23
ATOM     23  S   UNL     1      35.219   1.461  16.539  0.00  0.00    +0.000 S 
BRANCH  23  24
ATOM     24  C   UNL     1      35.640  -0.250  16.231  0.00  0.00    +0.000 A 
ATOM     25  C   UNL     1      36.193  -0.678  15.046  0.00  0.00    +0.000 A 
ATOM     26  C   UNL     1      36.515  -1.998  14.810  0.00  0.00    +0.000 A 
ATOM     27  C   UNL     1      36.290  -2.965  15.766  0.00  0.00    +0.000 A 
ATOM     28  C   UNL     1      35.736  -2.542  16.955  0.00  0.00    +0.000 A 
ATOM     29  C   UNL     1      35.411  -1.227  17.205  0.00  0.00    +0.000 A 
BRANCH  27  30
ATOM     30  C   UNL     1      36.621  -4.400  15.555  0.00  0.00    +0.000 C 
ATOM     31  C   UNL     1      35.374  -5.266  15.680  0.00  0.00    +0.000 C 
ATOM     32  C   UNL     1      37.521  -4.817  16.722  0.00  0.00    +0.000 C 
ENDBRANCH  27  30
ENDBRANCH  23  24
ENDBRANCH   3  23
TORSDOF 7
ENDMDL
