MODEL 1
REMARK VINA RESULT:      -6.8      0.000      0.000
REMARK  Name = 
REMARK  3 active torsions:
REMARK  status: ('A' for Active; 'I' for Inactive)
REMARK    1  A    between atoms: C_4  and  C_5
REMARK    2  A    between atoms: C_13  and  N_14
REMARK    3  A    between atoms: N_14  and  C_15
REMARK                            x       y       z     vdW  Elec       q    Type
REMARK                         _______ _______ _______ _____ _____    ______ ____
ROOT
ATOM      1  C   UNL     1      16.409  10.928  37.529  0.00  0.00    +0.000 A 
ATOM      2  N   UNL     1      15.629  10.621  38.573  0.00  0.00    +0.000 NA
ATOM      3  C   UNL     1      14.325  10.866  38.252  0.00  0.00    +0.000 A 
ATOM      4  N   UNL     1      13.212  10.704  38.989  0.00  0.00    +0.000 NA
ATOM      5  C   UNL     1      12.002  11.004  38.492  0.00  0.00    +0.000 A 
ATOM      6  C   UNL     1      11.905  11.486  37.204  0.00  0.00    +0.000 A 
ATOM      7  C   UNL     1      13.071  11.637  36.483  0.00  0.00    +0.000 A 
ATOM      8  N   UNL     1      14.286  11.339  36.976  0.00  0.00    +0.000 N 
ATOM      9  C   UNL     1      15.559  11.374  36.544  0.00  0.00    +0.000 A 
ENDROOT
BRANCH   1  13
ATOM     10  C   UNL     1      20.084  11.177  38.017  0.00  0.00    +0.000 A 
ATOM     11  C   UNL     1      20.373  10.180  37.134  0.00  0.00    +0.000 A 
ATOM     12  S   UNL     1      18.821   9.715  36.602  0.00  0.00    +0.000 S 
ATOM     13  C   UNL     1      17.866  10.793  37.511  0.00  0.00    +0.000 A 
ATOM     14  C   UNL     1      18.810  11.493  38.212  0.00  0.00    +0.000 A 
ENDBRANCH   1  13
BRANCH   9  15
ATOM     15  N   UNL     1      15.973  11.803  35.261  0.00  0.00    +0.000 NA
BRANCH  15  16
ATOM     16  C   UNL     1      15.575  11.279  34.004  0.00  0.00    +0.000 C 
ATOM     17  C   UNL     1      16.681  10.627  33.204  0.00  0.00    +0.000 C 
ATOM     18  C   UNL     1      16.258  10.760  31.755  0.00  0.00    +0.000 C 
ATOM     19  C   UNL     1      15.182  11.802  31.698  0.00  0.00    +0.000 C 
ATOM     20  C   UNL     1      14.982  12.337  33.101  0.00  0.00    +0.000 C 
ENDBRANCH  15  16
ENDBRANCH   9  15
TORSDOF 3
ENDMDL
MODEL 2
REMARK VINA RESULT:      -6.0     19.176     21.219
REMARK  Name = 
REMARK  3 active torsions:
REMARK  status: ('A' for Active; 'I' for Inactive)
REMARK    1  A    between atoms: C_4  and  C_5
REMARK    2  A    between atoms: C_13  and  N_14
REMARK    3  A    between atoms: N_14  and  C_15
REMARK                            x       y       z     vdW  Elec       q    Type
REMARK                         _______ _______ _______ _____ _____    ______ ____
ROOT
ATOM      1  C   UNL     1      30.322  23.186  25.737  0.00  0.00    +0.000 A 
ATOM      2  N   UNL     1      30.801  23.622  24.565  0.00  0.00    +0.000 NA
ATOM      3  C   UNL     1      29.776  23.731  23.670  0.00  0.00    +0.000 A 
ATOM      4  N   UNL     1      29.794  24.127  22.385  0.00  0.00    +0.000 NA
ATOM      5  C   UNL     1      28.668  24.170  21.656  0.00  0.00    +0.000 A 
ATOM      6  C   UNL     1      27.475  23.800  22.241  0.00  0.00    +0.000 A 
ATOM      7  C   UNL     1      27.501  23.400  23.561  0.00  0.00    +0.000 A 
ATOM      8  N   UNL     1      28.626  23.355  24.295  0.00  0.00    +0.000 N 
ATOM      9  C   UNL     1      28.968  23.025  25.553  0.00  0.00    +0.000 A 
ENDROOT
BRANCH   1  13
ATOM     10  C   UNL     1      31.975  21.907  28.810  0.00  0.00    +0.000 A 
ATOM     11  C   UNL     1      32.788  22.992  28.949  0.00  0.00    +0.000 A 
ATOM     12  S   UNL     1      32.331  23.951  27.615  0.00  0.00    +0.000 S 
ATOM     13  C   UNL     1      31.134  22.951  26.931  0.00  0.00    +0.000 A 
ATOM     14  C   UNL     1      31.132  21.882  27.785  0.00  0.00    +0.000 A 
ENDBRANCH   1  13
BRANCH   9  15
ATOM     15  N   UNL     1      28.072  22.577  26.551  0.00  0.00    +0.000 NA
BRANCH  15  16
ATOM     16  C   UNL     1      27.644  23.280  27.707  0.00  0.00    +0.000 C 
ATOM     17  C   UNL     1      27.479  22.430  28.948  0.00  0.00    +0.000 C 
ATOM     18  C   UNL     1      26.443  23.148  29.789  0.00  0.00    +0.000 C 
ATOM     19  C   UNL     1      25.741  24.126  28.895  0.00  0.00    +0.000 C 
ATOM     20  C   UNL     1      26.316  23.972  27.502  0.00  0.00    +0.000 C 
ENDBRANCH  15  16
ENDBRANCH   9  15
TORSDOF 3
ENDMDL
MODEL 3
REMARK VINA RESULT:      -6.0     18.844     20.786
REMARK  Name = 
REMARK  3 active torsions:
REMARK  status: ('A' for Active; 'I' for Inactive)
REMARK    1  A    between atoms: C_4  and  C_5
REMARK    2  A    between atoms: C_13  and  N_14
REMARK    3  A    between atoms: N_14  and  C_15
REMARK                            x       y       z     vdW  Elec       q    Type
REMARK                         _______ _______ _______ _____ _____    ______ ____
ROOT
ATOM      1  C   UNL     1      27.149  23.769  25.723  0.00  0.00    +0.000 A 
ATOM      2  N   UNL     1      26.225  24.291  26.540  0.00  0.00    +0.000 NA
ATOM      3  C   UNL     1      26.426  23.826  27.807  0.00  0.00    +0.000 A 
ATOM      4  N   UNL     1      25.745  24.083  28.937  0.00  0.00    +0.000 NA
ATOM      5  C   UNL     1      26.100  23.524  30.105  0.00  0.00    +0.000 A 
ATOM      6  C   UNL     1      27.184  22.671  30.138  0.00  0.00    +0.000 A 
ATOM      7  C   UNL     1      27.855  22.435  28.957  0.00  0.00    +0.000 A 
ATOM      8  N   UNL     1      27.503  22.992  27.786  0.00  0.00    +0.000 N 
ATOM      9  C   UNL     1      27.936  22.963  26.513  0.00  0.00    +0.000 A 
ENDROOT
BRANCH   1  13
ATOM     10  C   UNL     1      26.820  23.909  22.024  0.00  0.00    +0.000 A 
ATOM     11  C   UNL     1      27.768  24.876  21.873  0.00  0.00    +0.000 A 
ATOM     12  S   UNL     1      28.251  25.155  23.484  0.00  0.00    +0.000 S 
ATOM     13  C   UNL     1      27.242  24.044  24.289  0.00  0.00    +0.000 A 
ATOM     14  C   UNL     1      26.549  23.482  23.252  0.00  0.00    +0.000 A 
ENDBRANCH   1  13
BRANCH   9  15
ATOM     15  N   UNL     1      29.042  22.217  26.044  0.00  0.00    +0.000 NA
BRANCH  15  16
ATOM     16  C   UNL     1      30.396  22.636  25.965  0.00  0.00    +0.000 C 
ATOM     17  C   UNL     1      30.671  24.016  26.521  0.00  0.00    +0.000 C 
ATOM     18  C   UNL     1      31.892  24.512  25.774  0.00  0.00    +0.000 C 
ATOM     19  C   UNL     1      32.056  23.646  24.560  0.00  0.00    +0.000 C 
ATOM     20  C   UNL     1      30.910  22.655  24.543  0.00  0.00    +0.000 C 
ENDBRANCH  15  16
ENDBRANCH   9  15
TORSDOF 3
ENDMDL
MODEL 4
REMARK VINA RESULT:      -5.8      3.296      6.206
REMARK  Name = 
REMARK  3 active torsions:
REMARK  status: ('A' for Active; 'I' for Inactive)
REMARK    1  A    between atoms: C_4  and  C_5
REMARK    2  A    between atoms: C_13  and  N_14
REMARK    3  A    between atoms: N_14  and  C_15
REMARK                            x       y       z     vdW  Elec       q    Type
REMARK                         _______ _______ _______ _____ _____    ______ ____
ROOT
ATOM      1  C   UNL     1      18.211  10.235  37.969  0.00  0.00    +0.000 A 
ATOM      2  N   UNL     1      17.412   9.719  38.912  0.00  0.00    +0.000 NA
ATOM      3  C   UNL     1      18.060   9.737  40.113  0.00  0.00    +0.000 A 
ATOM      4  N   UNL     1      17.642   9.322  41.323  0.00  0.00    +0.000 NA
ATOM      5  C   UNL     1      18.433   9.423  42.402  0.00  0.00    +0.000 A 
ATOM      6  C   UNL     1      19.695   9.963  42.262  0.00  0.00    +0.000 A 
ATOM      7  C   UNL     1      20.083  10.376  41.005  0.00  0.00    +0.000 A 
ATOM      8  N   UNL     1      19.295  10.277  39.921  0.00  0.00    +0.000 N 
ATOM      9  C   UNL     1      19.379  10.576  38.612  0.00  0.00    +0.000 A 
ENDROOT
BRANCH   1  13
ATOM     10  C   UNL     1      17.734   9.933  34.296  0.00  0.00    +0.000 A 
ATOM     11  C   UNL     1      16.947  11.042  34.203  0.00  0.00    +0.000 A 
ATOM     12  S   UNL     1      16.885  11.570  35.823  0.00  0.00    +0.000 S 
ATOM     13  C   UNL     1      17.850  10.375  36.558  0.00  0.00    +0.000 A 
ATOM     14  C   UNL     1      18.195   9.589  35.493  0.00  0.00    +0.000 A 
ENDBRANCH   1  13
BRANCH   9  15
ATOM     15  N   UNL     1      20.501  11.161  37.980  0.00  0.00    +0.000 NA
BRANCH  15  16
ATOM     16  C   UNL     1      21.771  10.569  37.754  0.00  0.00    +0.000 C 
ATOM     17  C   UNL     1      22.932  11.538  37.734  0.00  0.00    +0.000 C 
ATOM     18  C   UNL     1      23.985  10.883  36.861  0.00  0.00    +0.000 C 
ATOM     19  C   UNL     1      23.305   9.800  36.079  0.00  0.00    +0.000 C 
ATOM     20  C   UNL     1      21.833   9.825  36.439  0.00  0.00    +0.000 C 
ENDBRANCH  15  16
ENDBRANCH   9  15
TORSDOF 3
ENDMDL
MODEL 5
REMARK VINA RESULT:      -5.8     21.309     23.023
REMARK  Name = 
REMARK  3 active torsions:
REMARK  status: ('A' for Active; 'I' for Inactive)
REMARK    1  A    between atoms: C_4  and  C_5
REMARK    2  A    between atoms: C_13  and  N_14
REMARK    3  A    between atoms: N_14  and  C_15
REMARK                            x       y       z     vdW  Elec       q    Type
REMARK                         _______ _______ _______ _____ _____    ______ ____
ROOT
ATOM      1  C   UNL     1      21.436  -7.182  25.086  0.00  0.00    +0.000 A 
ATOM      2  N   UNL     1      20.632  -6.120  25.221  0.00  0.00    +0.000 NA
ATOM      3  C   UNL     1      19.540  -6.469  25.962  0.00  0.00    +0.000 A 
ATOM      4  N   UNL     1      18.484  -5.728  26.342  0.00  0.00    +0.000 NA
ATOM      5  C   UNL     1      17.496  -6.256  27.081  0.00  0.00    +0.000 A 
ATOM      6  C   UNL     1      17.570  -7.582  27.452  0.00  0.00    +0.000 A 
ATOM      7  C   UNL     1      18.668  -8.306  27.040  0.00  0.00    +0.000 A 
ATOM      8  N   UNL     1      19.661  -7.782  26.301  0.00  0.00    +0.000 N 
ATOM      9  C   UNL     1      20.818  -8.208  25.763  0.00  0.00    +0.000 A 
ENDROOT
BRANCH   1  13
ATOM     10  C   UNL     1      24.846  -6.597  23.731  0.00  0.00    +0.000 A 
ATOM     11  C   UNL     1      24.737  -7.549  22.762  0.00  0.00    +0.000 A 
ATOM     12  S   UNL     1      23.163  -8.149  23.029  0.00  0.00    +0.000 S 
ATOM     13  C   UNL     1      22.701  -7.179  24.351  0.00  0.00    +0.000 A 
ATOM     14  C   UNL     1      23.812  -6.405  24.542  0.00  0.00    +0.000 A 
ENDBRANCH   1  13
BRANCH   9  15
ATOM     15  N   UNL     1      21.335  -9.520  25.874  0.00  0.00    +0.000 NA
BRANCH  15  16
ATOM     16  C   UNL     1      22.448  -9.948  26.644  0.00  0.00    +0.000 C 
ATOM     17  C   UNL     1      23.536 -10.648  25.860  0.00  0.00    +0.000 C 
ATOM     18  C   UNL     1      24.222 -11.562  26.855  0.00  0.00    +0.000 C 
ATOM     19  C   UNL     1      23.310 -11.697  28.039  0.00  0.00    +0.000 C 
ATOM     20  C   UNL     1      22.052 -10.906  27.745  0.00  0.00    +0.000 C 
ENDBRANCH  15  16
ENDBRANCH   9  15
TORSDOF 3
ENDMDL
MODEL 6
REMARK VINA RESULT:      -5.6      3.797      7.469
REMARK  Name = 
REMARK  3 active torsions:
REMARK  status: ('A' for Active; 'I' for Inactive)
REMARK    1  A    between atoms: C_4  and  C_5
REMARK    2  A    between atoms: C_13  and  N_14
REMARK    3  A    between atoms: N_14  and  C_15
REMARK                            x       y       z     vdW  Elec       q    Type
REMARK                         _______ _______ _______ _____ _____    ______ ____
ROOT
ATOM      1  C   UNL     1      19.691   9.828  37.635  0.00  0.00    +0.000 A 
ATOM      2  N   UNL     1      20.904  10.392  37.565  0.00  0.00    +0.000 NA
ATOM      3  C   UNL     1      21.644  10.010  38.647  0.00  0.00    +0.000 A 
ATOM      4  N   UNL     1      22.905  10.331  38.984  0.00  0.00    +0.000 NA
ATOM      5  C   UNL     1      23.469   9.848  40.102  0.00  0.00    +0.000 A 
ATOM      6  C   UNL     1      22.736   9.009  40.915  0.00  0.00    +0.000 A 
ATOM      7  C   UNL     1      21.447   8.705  40.533  0.00  0.00    +0.000 A 
ATOM      8  N   UNL     1      20.877   9.186  39.414  0.00  0.00    +0.000 N 
ATOM      9  C   UNL     1      19.690   9.081  38.791  0.00  0.00    +0.000 A 
ENDROOT
BRANCH   1  13
ATOM     10  C   UNL     1      17.342   9.682  34.760  0.00  0.00    +0.000 A 
ATOM     11  C   UNL     1      16.590  10.735  35.187  0.00  0.00    +0.000 A 
ATOM     12  S   UNL     1      17.381  11.173  36.632  0.00  0.00    +0.000 S 
ATOM     13  C   UNL     1      18.629  10.014  36.645  0.00  0.00    +0.000 A 
ATOM     14  C   UNL     1      18.380   9.312  35.498  0.00  0.00    +0.000 A 
ENDBRANCH   1  13
BRANCH   9  15
ATOM     15  N   UNL     1      18.593   8.315  39.248  0.00  0.00    +0.000 NA
BRANCH  15  16
ATOM     16  C   UNL     1      17.780   8.563  40.385  0.00  0.00    +0.000 C 
ATOM     17  C   UNL     1      17.076   7.347  40.945  0.00  0.00    +0.000 C 
ATOM     18  C   UNL     1      15.835   7.883  41.630  0.00  0.00    +0.000 C 
ATOM     19  C   UNL     1      15.615   9.278  41.127  0.00  0.00    +0.000 C 
ATOM     20  C   UNL     1      16.692   9.575  40.104  0.00  0.00    +0.000 C 
ENDBRANCH  15  16
ENDBRANCH   9  15
TORSDOF 3
ENDMDL
MODEL 7
REMARK VINA RESULT:      -5.5     17.702     19.403
REMARK  Name = 
REMARK  3 active torsions:
REMARK  status: ('A' for Active; 'I' for Inactive)
REMARK    1  A    between atoms: C_4  and  C_5
REMARK    2  A    between atoms: C_13  and  N_14
REMARK    3  A    between atoms: N_14  and  C_15
REMARK                            x       y       z     vdW  Elec       q    Type
REMARK                         _______ _______ _______ _____ _____    ______ ____
ROOT
ATOM      1  C   UNL     1      25.846  24.348  28.263  0.00  0.00    +0.000 A 
ATOM      2  N   UNL     1      25.016  25.321  28.661  0.00  0.00    +0.000 NA
ATOM      3  C   UNL     1      24.411  25.875  27.570  0.00  0.00    +0.000 A 
ATOM      4  N   UNL     1      23.511  26.871  27.499  0.00  0.00    +0.000 NA
ATOM      5  C   UNL     1      23.023  27.282  26.318  0.00  0.00    +0.000 A 
ATOM      6  C   UNL     1      23.456  26.667  25.162  0.00  0.00    +0.000 A 
ATOM      7  C   UNL     1      24.379  25.650  25.280  0.00  0.00    +0.000 A 
ATOM      8  N   UNL     1      24.871  25.234  26.460  0.00  0.00    +0.000 N 
ATOM      9  C   UNL     1      25.745  24.307  26.891  0.00  0.00    +0.000 A 
ENDROOT
BRANCH   1  13
ATOM     10  C   UNL     1      27.265  21.847  30.616  0.00  0.00    +0.000 A 
ATOM     11  C   UNL     1      28.498  22.427  30.651  0.00  0.00    +0.000 A 
ATOM     12  S   UNL     1      28.295  23.757  29.605  0.00  0.00    +0.000 S 
ATOM     13  C   UNL     1      26.666  23.535  29.161  0.00  0.00    +0.000 A 
ATOM     14  C   UNL     1      26.330  22.407  29.859  0.00  0.00    +0.000 A 
ENDBRANCH   1  13
BRANCH   9  15
ATOM     15  N   UNL     1      26.460  23.413  26.061  0.00  0.00    +0.000 NA
BRANCH  15  16
ATOM     16  C   UNL     1      27.720  23.627  25.444  0.00  0.00    +0.000 C 
ATOM     17  C   UNL     1      27.708  23.571  23.932  0.00  0.00    +0.000 C 
ATOM     18  C   UNL     1      29.110  23.153  23.536  0.00  0.00    +0.000 C 
ATOM     19  C   UNL     1      29.769  22.587  24.759  0.00  0.00    +0.000 C 
ATOM     20  C   UNL     1      28.756  22.618  25.885  0.00  0.00    +0.000 C 
ENDBRANCH  15  16
ENDBRANCH   9  15
TORSDOF 3
ENDMDL
MODEL 8
REMARK VINA RESULT:      -5.5     19.895     22.071
REMARK  Name = 
REMARK  3 active torsions:
REMARK  status: ('A' for Active; 'I' for Inactive)
REMARK    1  A    between atoms: C_4  and  C_5
REMARK    2  A    between atoms: C_13  and  N_14
REMARK    3  A    between atoms: N_14  and  C_15
REMARK                            x       y       z     vdW  Elec       q    Type
REMARK                         _______ _______ _______ _____ _____    ______ ____
ROOT
ATOM      1  C   UNL     1      27.763  24.724  25.371  0.00  0.00    +0.000 A 
ATOM      2  N   UNL     1      27.401  25.809  24.675  0.00  0.00    +0.000 NA
ATOM      3  C   UNL     1      27.949  25.749  23.426  0.00  0.00    +0.000 A 
ATOM      4  N   UNL     1      27.852  26.615  22.401  0.00  0.00    +0.000 NA
ATOM      5  C   UNL     1      28.470  26.379  21.233  0.00  0.00    +0.000 A 
ATOM      6  C   UNL     1      29.216  25.228  21.088  0.00  0.00    +0.000 A 
ATOM      7  C   UNL     1      29.289  24.368  22.164  0.00  0.00    +0.000 A 
ATOM      8  N   UNL     1      28.672  24.599  23.335  0.00  0.00    +0.000 N 
ATOM      9  C   UNL     1      28.554  23.981  24.524  0.00  0.00    +0.000 A 
ENDROOT
BRANCH   1  13
ATOM     10  C   UNL     1      26.178  23.585  28.533  0.00  0.00    +0.000 A 
ATOM     11  C   UNL     1      27.043  24.268  29.334  0.00  0.00    +0.000 A 
ATOM     12  S   UNL     1      28.062  25.023  28.194  0.00  0.00    +0.000 S 
ATOM     13  C   UNL     1      27.362  24.449  26.751  0.00  0.00    +0.000 A 
ATOM     14  C   UNL     1      26.337  23.674  27.218  0.00  0.00    +0.000 A 
ENDBRANCH   1  13
BRANCH   9  15
ATOM     15  N   UNL     1      29.151  22.745  24.864  0.00  0.00    +0.000 NA
BRANCH  15  16
ATOM     16  C   UNL     1      30.323  22.535  25.635  0.00  0.00    +0.000 C 
ATOM     17  C   UNL     1      30.084  21.984  27.024  0.00  0.00    +0.000 C 
ATOM     18  C   UNL     1      31.263  22.457  27.851  0.00  0.00    +0.000 C 
ATOM     19  C   UNL     1      31.922  23.569  27.092  0.00  0.00    +0.000 C 
ATOM     20  C   UNL     1      31.120  23.805  25.828  0.00  0.00    +0.000 C 
ENDBRANCH  15  16
ENDBRANCH   9  15
TORSDOF 3
ENDMDL
MODEL 9
REMARK VINA RESULT:      -5.5     20.903     22.568
REMARK  Name = 
REMARK  3 active torsions:
REMARK  status: ('A' for Active; 'I' for Inactive)
REMARK    1  A    between atoms: C_4  and  C_5
REMARK    2  A    between atoms: C_13  and  N_14
REMARK    3  A    between atoms: N_14  and  C_15
REMARK                            x       y       z     vdW  Elec       q    Type
REMARK                         _______ _______ _______ _____ _____    ______ ____
ROOT
ATOM      1  C   UNL     1      16.282  -9.649  26.980  0.00  0.00    +0.000 A 
ATOM      2  N   UNL     1      16.465 -10.875  27.486  0.00  0.00    +0.000 NA
ATOM      3  C   UNL     1      17.442 -10.831  28.438  0.00  0.00    +0.000 A 
ATOM      4  N   UNL     1      17.948 -11.818  29.199  0.00  0.00    +0.000 NA
ATOM      5  C   UNL     1      18.918 -11.577  30.094  0.00  0.00    +0.000 A 
ATOM      6  C   UNL     1      19.401 -10.292  30.231  0.00  0.00    +0.000 A 
ATOM      7  C   UNL     1      18.855  -9.310  29.431  0.00  0.00    +0.000 A 
ATOM      8  N   UNL     1      17.883  -9.546  28.533  0.00  0.00    +0.000 N 
ATOM      9  C   UNL     1      17.172  -8.834  27.642  0.00  0.00    +0.000 A 
ENDROOT
BRANCH   1  13
ATOM     10  C   UNL     1      13.315  -8.741  24.937  0.00  0.00    +0.000 A 
ATOM     11  C   UNL     1      13.987  -8.790  23.752  0.00  0.00    +0.000 A 
ATOM     12  S   UNL     1      15.560  -9.216  24.253  0.00  0.00    +0.000 S 
ATOM     13  C   UNL     1      15.314  -9.316  25.935  0.00  0.00    +0.000 A 
ATOM     14  C   UNL     1      13.986  -9.008  26.050  0.00  0.00    +0.000 A 
ENDBRANCH   1  13
BRANCH   9  15
ATOM     15  N   UNL     1      17.310  -7.445  27.412  0.00  0.00    +0.000 NA
BRANCH  15  16
ATOM     16  C   UNL     1      18.093  -6.808  26.414  0.00  0.00    +0.000 C 
ATOM     17  C   UNL     1      19.369  -7.534  26.045  0.00  0.00    +0.000 C 
ATOM     18  C   UNL     1      20.311  -6.457  25.547  0.00  0.00    +0.000 C 
ATOM     19  C   UNL     1      19.763  -5.137  26.003  0.00  0.00    +0.000 C 
ATOM     20  C   UNL     1      18.515  -5.413  26.817  0.00  0.00    +0.000 C 
ENDBRANCH  15  16
ENDBRANCH   9  15
TORSDOF 3
ENDMDL
MODEL 10
REMARK VINA RESULT:      -5.5      4.477      8.052
REMARK  Name = 
REMARK  3 active torsions:
REMARK  status: ('A' for Active; 'I' for Inactive)
REMARK    1  A    between atoms: C_4  and  C_5
REMARK    2  A    between atoms: C_13  and  N_14
REMARK    3  A    between atoms: N_14  and  C_15
REMARK                            x       y       z     vdW  Elec       q    Type
REMARK                         _______ _______ _______ _____ _____    ______ ____
ROOT
ATOM      1  C   UNL     1      20.453  10.615  37.594  0.00  0.00    +0.000 A 
ATOM      2  N   UNL     1      21.117   9.755  36.810  0.00  0.00    +0.000 NA
ATOM      3  C   UNL     1      22.434  10.110  36.764  0.00  0.00    +0.000 A 
ATOM      4  N   UNL     1      23.458   9.536  36.106  0.00  0.00    +0.000 NA
ATOM      5  C   UNL     1      24.701  10.036  36.186  0.00  0.00    +0.000 A 
ATOM      6  C   UNL     1      24.926  11.157  36.957  0.00  0.00    +0.000 A 
ATOM      7  C   UNL     1      23.849  11.714  37.614  0.00  0.00    +0.000 A 
ATOM      8  N   UNL     1      22.602  11.217  37.538  0.00  0.00    +0.000 N 
ATOM      9  C   UNL     1      21.391  11.518  38.039  0.00  0.00    +0.000 A 
ENDROOT
BRANCH   1  13
ATOM     10  C   UNL     1      17.040   9.991  38.925  0.00  0.00    +0.000 A 
ATOM     11  C   UNL     1      16.417  10.719  37.955  0.00  0.00    +0.000 A 
ATOM     12  S   UNL     1      17.733  11.256  37.014  0.00  0.00    +0.000 S 
ATOM     13  C   UNL     1      19.019  10.546  37.875  0.00  0.00    +0.000 A 
ATOM     14  C   UNL     1      18.364   9.900  38.888  0.00  0.00    +0.000 A 
ENDBRANCH   1  13
BRANCH   9  15
ATOM     15  N   UNL     1      21.111  12.603  38.902  0.00  0.00    +0.000 NA
BRANCH  15  16
ATOM     16  C   UNL     1      21.101  13.985  38.577  0.00  0.00    +0.000 C 
ATOM     17  C   UNL     1      22.293  14.768  39.082  0.00  0.00    +0.000 C 
ATOM     18  C   UNL     1      21.798  16.192  39.239  0.00  0.00    +0.000 C 
ATOM     19  C   UNL     1      20.299  16.147  39.233  0.00  0.00    +0.000 C 
ATOM     20  C   UNL     1      19.882  14.695  39.119  0.00  0.00    +0.000 C 
ENDBRANCH  15  16
ENDBRANCH   9  15
TORSDOF 3
ENDMDL
