MODEL 1
REMARK VINA RESULT:      -7.0      0.000      0.000
REMARK  Name = 
REMARK  3 active torsions:
REMARK  status: ('A' for Active; 'I' for Inactive)
REMARK    1  A    between atoms: O_2  and  C_3
REMARK    2  A    between atoms: C_3  and  C_5
REMARK    3  A    between atoms: C_16  and  C_17
REMARK                            x       y       z     vdW  Elec       q    Type
REMARK                         _______ _______ _______ _____ _____    ______ ____
ROOT
ATOM      1  C   UNL     1      26.286  23.278  29.293  0.00  0.00    +0.000 C 
ATOM      2  C   UNL     1      25.826  24.435  29.716  0.00  0.00    +0.000 C 
ATOM      3  N   UNL     1      25.785  24.607  31.166  0.00  0.00    +0.000 NA
ATOM      4  O   UNL     1      25.378  25.434  28.899  0.00  0.00    +0.000 OA
ATOM      5  C   UNL     1      25.400  25.202  27.528  0.00  0.00    +0.000 C 
ATOM      6  C   UNL     1      25.816  24.124  26.984  0.00  0.00    +0.000 C 
ATOM      7  C   UNL     1      25.807  23.893  25.523  0.00  0.00    +0.000 C 
ATOM      8  O   UNL     1      25.894  22.701  25.249  0.00  0.00    +0.000 OA
ATOM      9  C   UNL     1      25.695  25.069  24.657  0.00  0.00    +0.000 C 
ATOM     10  C   UNL     1      24.540  25.870  25.286  0.00  0.00    +0.000 C 
ATOM     11  C   UNL     1      24.889  26.331  26.652  0.00  0.00    +0.000 C 
ATOM     12  C   UNL     1      26.522  23.028  27.808  0.00  0.00    +0.000 C 
ENDROOT
BRANCH  12  13
ATOM     13  C   UNL     1      28.035  23.329  27.517  0.00  0.00    +0.000 A 
ATOM     14  C   UNL     1      28.699  22.221  27.109  0.00  0.00    +0.000 A 
ATOM     15  C   UNL     1      30.047  22.229  26.820  0.00  0.00    +0.000 A 
ATOM     16  C   UNL     1      30.710  23.430  26.965  0.00  0.00    +0.000 A 
ATOM     17  C   UNL     1      30.032  24.559  27.381  0.00  0.00    +0.000 A 
ATOM     18  C   UNL     1      28.643  24.490  27.664  0.00  0.00    +0.000 A 
ATOM     19  F   UNL     1      28.121  25.683  28.029  0.00  0.00    +0.000 F 
ENDBRANCH  12  13
BRANCH   1  20
ATOM     20  C   UNL     1      26.688  22.261  30.267  0.00  0.00    +0.000 C 
ATOM     21  O   UNL     1      25.803  21.606  30.804  0.00  0.00    +0.000 OA
BRANCH  20  23
ATOM     22  C   UNL     1      28.944  22.942  30.995  0.00  0.00    +0.000 C 
ATOM     23  O   UNL     1      27.984  21.988  30.621  0.00  0.00    +0.000 OA
ENDBRANCH  20  23
ENDBRANCH   1  20
TORSDOF 3
ENDMDL
MODEL 2
REMARK VINA RESULT:      -6.6     17.297     19.330
REMARK  Name = 
REMARK  3 active torsions:
REMARK  status: ('A' for Active; 'I' for Inactive)
REMARK    1  A    between atoms: O_2  and  C_3
REMARK    2  A    between atoms: C_3  and  C_5
REMARK    3  A    between atoms: C_16  and  C_17
REMARK                            x       y       z     vdW  Elec       q    Type
REMARK                         _______ _______ _______ _____ _____    ______ ____
ROOT
ATOM      1  C   UNL     1      18.076   8.894  39.112  0.00  0.00    +0.000 C 
ATOM      2  C   UNL     1      17.082   9.496  39.727  0.00  0.00    +0.000 C 
ATOM      3  N   UNL     1      16.876   9.111  41.120  0.00  0.00    +0.000 NA
ATOM      4  O   UNL     1      16.249  10.408  39.142  0.00  0.00    +0.000 OA
ATOM      5  C   UNL     1      16.464  10.706  37.801  0.00  0.00    +0.000 C 
ATOM      6  C   UNL     1      17.388  10.192  37.085  0.00  0.00    +0.000 C 
ATOM      7  C   UNL     1      17.580  10.510  35.653  0.00  0.00    +0.000 C 
ATOM      8  O   UNL     1      18.259   9.662  35.084  0.00  0.00    +0.000 OA
ATOM      9  C   UNL     1      16.955  11.733  35.146  0.00  0.00    +0.000 C 
ATOM     10  C   UNL     1      15.520  11.661  35.701  0.00  0.00    +0.000 C 
ATOM     11  C   UNL     1      15.516  11.718  37.183  0.00  0.00    +0.000 C 
ATOM     12  C   UNL     1      18.492   9.314  37.707  0.00  0.00    +0.000 C 
ENDROOT
BRANCH  12  13
ATOM     13  C   UNL     1      19.675  10.336  37.854  0.00  0.00    +0.000 A 
ATOM     14  C   UNL     1      19.320  11.411  38.597  0.00  0.00    +0.000 A 
ATOM     15  C   UNL     1      20.182  12.459  38.843  0.00  0.00    +0.000 A 
ATOM     16  C   UNL     1      21.445  12.371  38.293  0.00  0.00    +0.000 A 
ATOM     17  C   UNL     1      21.805  11.274  37.536  0.00  0.00    +0.000 A 
ATOM     18  C   UNL     1      20.874  10.224  37.317  0.00  0.00    +0.000 A 
ATOM     19  F   UNL     1      21.387   9.211  36.584  0.00  0.00    +0.000 F 
ENDBRANCH  12  13
BRANCH   1  20
ATOM     20  C   UNL     1      18.868   7.893  39.828  0.00  0.00    +0.000 C 
ATOM     21  O   UNL     1      19.821   8.287  40.490  0.00  0.00    +0.000 OA
BRANCH  20  23
ATOM     22  C   UNL     1      18.216   5.778  40.918  0.00  0.00    +0.000 C 
ATOM     23  O   UNL     1      18.621   6.544  39.812  0.00  0.00    +0.000 OA
ENDBRANCH  20  23
ENDBRANCH   1  20
TORSDOF 3
ENDMDL
MODEL 3
REMARK VINA RESULT:      -6.5      3.558      6.574
REMARK  Name = 
REMARK  3 active torsions:
REMARK  status: ('A' for Active; 'I' for Inactive)
REMARK    1  A    between atoms: O_2  and  C_3
REMARK    2  A    between atoms: C_3  and  C_5
REMARK    3  A    between atoms: C_16  and  C_17
REMARK                            x       y       z     vdW  Elec       q    Type
REMARK                         _______ _______ _______ _____ _____    ______ ____
ROOT
ATOM      1  C   UNL     1      28.032  23.958  22.839  0.00  0.00    +0.000 C 
ATOM      2  C   UNL     1      29.321  23.941  22.580  0.00  0.00    +0.000 C 
ATOM      3  N   UNL     1      29.699  24.342  21.227  0.00  0.00    +0.000 NA
ATOM      4  O   UNL     1      30.284  23.559  23.471  0.00  0.00    +0.000 OA
ATOM      5  C   UNL     1      29.866  23.146  24.731  0.00  0.00    +0.000 C 
ATOM      6  C   UNL     1      28.647  23.109  25.112  0.00  0.00    +0.000 C 
ATOM      7  C   UNL     1      28.227  22.643  26.452  0.00  0.00    +0.000 C 
ATOM      8  O   UNL     1      27.039  22.345  26.480  0.00  0.00    +0.000 OA
ATOM      9  C   UNL     1      29.249  22.604  27.501  0.00  0.00    +0.000 C 
ATOM     10  C   UNL     1      30.440  21.908  26.816  0.00  0.00    +0.000 C 
ATOM     11  C   UNL     1      30.962  22.722  25.692  0.00  0.00    +0.000 C 
ATOM     12  C   UNL     1      27.517  23.708  24.252  0.00  0.00    +0.000 C 
ENDROOT
BRANCH  12  13
ATOM     13  C   UNL     1      27.305  25.110  24.927  0.00  0.00    +0.000 A 
ATOM     14  C   UNL     1      25.997  25.348  25.189  0.00  0.00    +0.000 A 
ATOM     15  C   UNL     1      25.558  26.526  25.756  0.00  0.00    +0.000 A 
ATOM     16  C   UNL     1      26.518  27.472  26.053  0.00  0.00    +0.000 A 
ATOM     17  C   UNL     1      27.850  27.228  25.785  0.00  0.00    +0.000 A 
ATOM     18  C   UNL     1      28.243  25.995  25.200  0.00  0.00    +0.000 A 
ATOM     19  F   UNL     1      29.581  25.896  25.030  0.00  0.00    +0.000 F 
ENDBRANCH  12  13
BRANCH   1  20
ATOM     20  C   UNL     1      27.088  24.336  21.785  0.00  0.00    +0.000 C 
ATOM     21  O   UNL     1      26.246  23.511  21.452  0.00  0.00    +0.000 OA
BRANCH  20  23
ATOM     22  C   UNL     1      27.164  26.802  21.772  0.00  0.00    +0.000 C 
ATOM     23  O   UNL     1      27.078  25.548  21.144  0.00  0.00    +0.000 OA
ENDBRANCH  20  23
ENDBRANCH   1  20
TORSDOF 3
ENDMDL
MODEL 4
REMARK VINA RESULT:      -6.5      3.389      5.577
REMARK  Name = 
REMARK  3 active torsions:
REMARK  status: ('A' for Active; 'I' for Inactive)
REMARK    1  A    between atoms: O_2  and  C_3
REMARK    2  A    between atoms: C_3  and  C_5
REMARK    3  A    between atoms: C_16  and  C_17
REMARK                            x       y       z     vdW  Elec       q    Type
REMARK                         _______ _______ _______ _____ _____    ______ ____
ROOT
ATOM      1  C   UNL     1      26.937  24.281  23.399  0.00  0.00    +0.000 C 
ATOM      2  C   UNL     1      25.944  23.492  23.743  0.00  0.00    +0.000 C 
ATOM      3  N   UNL     1      25.330  22.738  22.654  0.00  0.00    +0.000 NA
ATOM      4  O   UNL     1      25.462  23.365  25.015  0.00  0.00    +0.000 OA
ATOM      5  C   UNL     1      26.055  24.138  26.007  0.00  0.00    +0.000 C 
ATOM      6  C   UNL     1      27.023  24.948  25.810  0.00  0.00    +0.000 C 
ATOM      7  C   UNL     1      27.621  25.777  26.880  0.00  0.00    +0.000 C 
ATOM      8  O   UNL     1      28.258  26.720  26.424  0.00  0.00    +0.000 OA
ATOM      9  C   UNL     1      27.372  25.370  28.264  0.00  0.00    +0.000 C 
ATOM     10  C   UNL     1      25.855  25.107  28.295  0.00  0.00    +0.000 C 
ATOM     11  C   UNL     1      25.489  23.977  27.406  0.00  0.00    +0.000 C 
ATOM     12  C   UNL     1      27.760  25.007  24.457  0.00  0.00    +0.000 C 
ENDROOT
BRANCH  12  13
ATOM     13  C   UNL     1      29.031  24.130  24.744  0.00  0.00    +0.000 A 
ATOM     14  C   UNL     1      30.165  24.735  24.314  0.00  0.00    +0.000 A 
ATOM     15  C   UNL     1      31.407  24.147  24.430  0.00  0.00    +0.000 A 
ATOM     16  C   UNL     1      31.454  22.896  25.011  0.00  0.00    +0.000 A 
ATOM     17  C   UNL     1      30.298  22.282  25.448  0.00  0.00    +0.000 A 
ATOM     18  C   UNL     1      29.046  22.936  25.302  0.00  0.00    +0.000 A 
ATOM     19  F   UNL     1      28.017  22.219  25.806  0.00  0.00    +0.000 F 
ENDBRANCH  12  13
BRANCH   1  20
ATOM     20  C   UNL     1      27.332  24.374  21.992  0.00  0.00    +0.000 C 
ATOM     21  O   UNL     1      27.944  23.429  21.509  0.00  0.00    +0.000 OA
BRANCH  20  23
ATOM     22  C   UNL     1      27.800  26.638  21.132  0.00  0.00    +0.000 C 
ATOM     23  O   UNL     1      27.065  25.442  21.174  0.00  0.00    +0.000 OA
ENDBRANCH  20  23
ENDBRANCH   1  20
TORSDOF 3
ENDMDL
MODEL 5
REMARK VINA RESULT:      -6.3      3.834      5.223
REMARK  Name = 
REMARK  3 active torsions:
REMARK  status: ('A' for Active; 'I' for Inactive)
REMARK    1  A    between atoms: O_2  and  C_3
REMARK    2  A    between atoms: C_3  and  C_5
REMARK    3  A    between atoms: C_16  and  C_17
REMARK                            x       y       z     vdW  Elec       q    Type
REMARK                         _______ _______ _______ _____ _____    ______ ____
ROOT
ATOM      1  C   UNL     1      27.302  24.595  24.304  0.00  0.00    +0.000 C 
ATOM      2  C   UNL     1      26.717  25.762  24.456  0.00  0.00    +0.000 C 
ATOM      3  N   UNL     1      25.802  25.868  25.589  0.00  0.00    +0.000 NA
ATOM      4  O   UNL     1      26.897  26.831  23.624  0.00  0.00    +0.000 OA
ATOM      5  C   UNL     1      27.747  26.663  22.536  0.00  0.00    +0.000 C 
ATOM      6  C   UNL     1      28.374  25.583  22.270  0.00  0.00    +0.000 C 
ATOM      7  C   UNL     1      29.255  25.423  21.092  0.00  0.00    +0.000 C 
ATOM      8  O   UNL     1      29.453  24.243  20.827  0.00  0.00    +0.000 OA
ATOM      9  C   UNL     1      29.736  26.644  20.441  0.00  0.00    +0.000 C 
ATOM     10  C   UNL     1      28.464  27.502  20.302  0.00  0.00    +0.000 C 
ATOM     11  C   UNL     1      27.917  27.869  21.631  0.00  0.00    +0.000 C 
ATOM     12  C   UNL     1      28.391  24.398  23.256  0.00  0.00    +0.000 C 
ENDROOT
BRANCH  12  13
ATOM     13  C   UNL     1      29.773  24.594  23.973  0.00  0.00    +0.000 A 
ATOM     14  C   UNL     1      30.029  25.901  24.224  0.00  0.00    +0.000 A 
ATOM     15  C   UNL     1      31.196  26.326  24.823  0.00  0.00    +0.000 A 
ATOM     16  C   UNL     1      32.113  25.353  25.164  0.00  0.00    +0.000 A 
ATOM     17  C   UNL     1      31.851  24.022  24.908  0.00  0.00    +0.000 A 
ATOM     18  C   UNL     1      30.631  23.644  24.289  0.00  0.00    +0.000 A 
ATOM     19  F   UNL     1      30.512  22.306  24.136  0.00  0.00    +0.000 F 
ENDBRANCH  12  13
BRANCH   1  20
ATOM     20  C   UNL     1      26.989  23.504  25.230  0.00  0.00    +0.000 C 
ATOM     21  O   UNL     1      26.173  22.666  24.868  0.00  0.00    +0.000 OA
BRANCH  20  23
ATOM     22  C   UNL     1      28.446  22.340  26.846  0.00  0.00    +0.000 C 
ATOM     23  O   UNL     1      27.545  23.353  26.474  0.00  0.00    +0.000 OA
ENDBRANCH  20  23
ENDBRANCH   1  20
TORSDOF 3
ENDMDL
MODEL 6
REMARK VINA RESULT:      -5.7      3.604      6.073
REMARK  Name = 
REMARK  3 active torsions:
REMARK  status: ('A' for Active; 'I' for Inactive)
REMARK    1  A    between atoms: O_2  and  C_3
REMARK    2  A    between atoms: C_3  and  C_5
REMARK    3  A    between atoms: C_16  and  C_17
REMARK                            x       y       z     vdW  Elec       q    Type
REMARK                         _______ _______ _______ _____ _____    ______ ____
ROOT
ATOM      1  C   UNL     1      28.311  24.810  24.099  0.00  0.00    +0.000 C 
ATOM      2  C   UNL     1      27.708  23.648  23.971  0.00  0.00    +0.000 C 
ATOM      3  N   UNL     1      27.144  23.371  22.653  0.00  0.00    +0.000 NA
ATOM      4  O   UNL     1      27.567  22.735  24.978  0.00  0.00    +0.000 OA
ATOM      5  C   UNL     1      28.086  23.068  26.225  0.00  0.00    +0.000 C 
ATOM      6  C   UNL     1      28.689  24.162  26.488  0.00  0.00    +0.000 C 
ATOM      7  C   UNL     1      29.211  24.502  27.830  0.00  0.00    +0.000 C 
ATOM      8  O   UNL     1      29.412  25.705  27.950  0.00  0.00    +0.000 OA
ATOM      9  C   UNL     1      29.398  23.401  28.777  0.00  0.00    +0.000 C 
ATOM     10  C   UNL     1      28.079  22.611  28.675  0.00  0.00    +0.000 C 
ATOM     11  C   UNL     1      27.905  22.033  27.320  0.00  0.00    +0.000 C 
ATOM     12  C   UNL     1      29.070  25.158  25.374  0.00  0.00    +0.000 C 
ENDROOT
BRANCH  12  13
ATOM     13  C   UNL     1      30.581  24.807  25.129  0.00  0.00    +0.000 A 
ATOM     14  C   UNL     1      31.385  25.878  25.335  0.00  0.00    +0.000 A 
ATOM     15  C   UNL     1      32.751  25.824  25.154  0.00  0.00    +0.000 A 
ATOM     16  C   UNL     1      33.281  24.616  24.750  0.00  0.00    +0.000 A 
ATOM     17  C   UNL     1      32.460  23.525  24.542  0.00  0.00    +0.000 A 
ATOM     18  C   UNL     1      31.059  23.641  24.744  0.00  0.00    +0.000 A 
ATOM     19  F   UNL     1      30.400  22.480  24.529  0.00  0.00    +0.000 F 
ENDBRANCH  12  13
BRANCH   1  20
ATOM     20  C   UNL     1      28.353  25.731  22.962  0.00  0.00    +0.000 C 
ATOM     21  O   UNL     1      27.386  26.462  22.785  0.00  0.00    +0.000 OA
BRANCH  20  23
ATOM     22  C   UNL     1      29.320  25.600  20.696  0.00  0.00    +0.000 C 
ATOM     23  O   UNL     1      29.397  25.835  22.079  0.00  0.00    +0.000 OA
ENDBRANCH  20  23
ENDBRANCH   1  20
TORSDOF 3
ENDMDL
MODEL 7
REMARK VINA RESULT:      -5.7      4.388      6.810
REMARK  Name = 
REMARK  3 active torsions:
REMARK  status: ('A' for Active; 'I' for Inactive)
REMARK    1  A    between atoms: O_2  and  C_3
REMARK    2  A    between atoms: C_3  and  C_5
REMARK    3  A    between atoms: C_16  and  C_17
REMARK                            x       y       z     vdW  Elec       q    Type
REMARK                         _______ _______ _______ _____ _____    ______ ____
ROOT
ATOM      1  C   UNL     1      29.558  25.288  22.803  0.00  0.00    +0.000 C 
ATOM      2  C   UNL     1      29.156  26.539  22.791  0.00  0.00    +0.000 C 
ATOM      3  N   UNL     1      28.242  26.899  21.710  0.00  0.00    +0.000 NA
ATOM      4  O   UNL     1      29.554  27.489  23.689  0.00  0.00    +0.000 OA
ATOM      5  C   UNL     1      30.459  27.103  24.673  0.00  0.00    +0.000 C 
ATOM      6  C   UNL     1      30.932  25.924  24.797  0.00  0.00    +0.000 C 
ATOM      7  C   UNL     1      31.912  25.545  25.839  0.00  0.00    +0.000 C 
ATOM      8  O   UNL     1      32.496  24.505  25.560  0.00  0.00    +0.000 OA
ATOM      9  C   UNL     1      32.038  26.432  26.997  0.00  0.00    +0.000 C 
ATOM     10  C   UNL     1      32.133  27.835  26.367  0.00  0.00    +0.000 C 
ATOM     11  C   UNL     1      30.884  28.185  25.648  0.00  0.00    +0.000 C 
ATOM     12  C   UNL     1      30.390  24.747  23.960  0.00  0.00    +0.000 C 
ENDROOT
BRANCH  12  13
ATOM     13  C   UNL     1      29.401  24.063  24.969  0.00  0.00    +0.000 A 
ATOM     14  C   UNL     1      28.433  24.917  25.382  0.00  0.00    +0.000 A 
ATOM     15  C   UNL     1      27.463  24.554  26.293  0.00  0.00    +0.000 A 
ATOM     16  C   UNL     1      27.514  23.262  26.777  0.00  0.00    +0.000 A 
ATOM     17  C   UNL     1      28.499  22.393  26.354  0.00  0.00    +0.000 A 
ATOM     18  C   UNL     1      29.472  22.824  25.414  0.00  0.00    +0.000 A 
ATOM     19  F   UNL     1      30.348  21.849  25.079  0.00  0.00    +0.000 F 
ENDBRANCH  12  13
BRANCH   1  20
ATOM     20  C   UNL     1      29.104  24.373  21.754  0.00  0.00    +0.000 C 
ATOM     21  O   UNL     1      29.675  24.419  20.672  0.00  0.00    +0.000 OA
BRANCH  20  23
ATOM     22  C   UNL     1      26.768  23.775  22.278  0.00  0.00    +0.000 C 
ATOM     23  O   UNL     1      28.085  23.466  21.896  0.00  0.00    +0.000 OA
ENDBRANCH  20  23
ENDBRANCH   1  20
TORSDOF 3
ENDMDL
MODEL 8
REMARK VINA RESULT:      -5.6      3.223      4.883
REMARK  Name = 
REMARK  3 active torsions:
REMARK  status: ('A' for Active; 'I' for Inactive)
REMARK    1  A    between atoms: O_2  and  C_3
REMARK    2  A    between atoms: C_3  and  C_5
REMARK    3  A    between atoms: C_16  and  C_17
REMARK                            x       y       z     vdW  Elec       q    Type
REMARK                         _______ _______ _______ _____ _____    ______ ____
ROOT
ATOM      1  C   UNL     1      25.730  26.090  24.670  0.00  0.00    +0.000 C 
ATOM      2  C   UNL     1      26.211  27.301  24.501  0.00  0.00    +0.000 C 
ATOM      3  N   UNL     1      25.554  28.355  25.270  0.00  0.00    +0.000 NA
ATOM      4  O   UNL     1      27.237  27.615  23.655  0.00  0.00    +0.000 OA
ATOM      5  C   UNL     1      27.799  26.580  22.914  0.00  0.00    +0.000 C 
ATOM      6  C   UNL     1      27.426  25.361  22.979  0.00  0.00    +0.000 C 
ATOM      7  C   UNL     1      28.025  24.282  22.162  0.00  0.00    +0.000 C 
ATOM      8  O   UNL     1      27.299  23.296  22.105  0.00  0.00    +0.000 OA
ATOM      9  C   UNL     1      29.337  24.541  21.565  0.00  0.00    +0.000 C 
ATOM     10  C   UNL     1      29.178  25.940  20.940  0.00  0.00    +0.000 C 
ATOM     11  C   UNL     1      28.932  26.967  21.981  0.00  0.00    +0.000 C 
ATOM     12  C   UNL     1      26.420  24.883  24.045  0.00  0.00    +0.000 C 
ENDROOT
BRANCH  12  13
ATOM     13  C   UNL     1      27.370  24.269  25.134  0.00  0.00    +0.000 A 
ATOM     14  C   UNL     1      27.011  23.003  25.459  0.00  0.00    +0.000 A 
ATOM     15  C   UNL     1      27.679  22.266  26.414  0.00  0.00    +0.000 A 
ATOM     16  C   UNL     1      28.747  22.876  27.039  0.00  0.00    +0.000 A 
ATOM     17  C   UNL     1      29.111  24.166  26.707  0.00  0.00    +0.000 A 
ATOM     18  C   UNL     1      28.386  24.876  25.715  0.00  0.00    +0.000 A 
ATOM     19  F   UNL     1      28.884  26.111  25.483  0.00  0.00    +0.000 F 
ENDBRANCH  12  13
BRANCH   1  20
ATOM     20  C   UNL     1      24.590  25.883  25.565  0.00  0.00    +0.000 C 
ATOM     21  O   UNL     1      23.484  26.226  25.166  0.00  0.00    +0.000 OA
BRANCH  20  23
ATOM     22  C   UNL     1      25.405  25.860  27.893  0.00  0.00    +0.000 C 
ATOM     23  O   UNL     1      24.670  25.333  26.818  0.00  0.00    +0.000 OA
ENDBRANCH  20  23
ENDBRANCH   1  20
TORSDOF 3
ENDMDL
MODEL 9
REMARK VINA RESULT:      -5.6     14.911     17.709
REMARK  Name = 
REMARK  3 active torsions:
REMARK  status: ('A' for Active; 'I' for Inactive)
REMARK    1  A    between atoms: O_2  and  C_3
REMARK    2  A    between atoms: C_3  and  C_5
REMARK    3  A    between atoms: C_16  and  C_17
REMARK                            x       y       z     vdW  Elec       q    Type
REMARK                         _______ _______ _______ _____ _____    ______ ____
ROOT
ATOM      1  C   UNL     1      10.631  24.400  20.191  0.00  0.00    +0.000 C 
ATOM      2  C   UNL     1      10.746  25.249  21.188  0.00  0.00    +0.000 C 
ATOM      3  N   UNL     1       9.605  26.138  21.395  0.00  0.00    +0.000 NA
ATOM      4  O   UNL     1      11.845  25.354  21.992  0.00  0.00    +0.000 OA
ATOM      5  C   UNL     1      12.920  24.513  21.724  0.00  0.00    +0.000 C 
ATOM      6  C   UNL     1      12.943  23.647  20.786  0.00  0.00    +0.000 C 
ATOM      7  C   UNL     1      14.110  22.781  20.507  0.00  0.00    +0.000 C 
ATOM      8  O   UNL     1      14.066  22.306  19.378  0.00  0.00    +0.000 OA
ATOM      9  C   UNL     1      15.103  22.627  21.572  0.00  0.00    +0.000 C 
ATOM     10  C   UNL     1      15.352  24.073  22.042  0.00  0.00    +0.000 C 
ATOM     11  C   UNL     1      14.126  24.663  22.633  0.00  0.00    +0.000 C 
ATOM     12  C   UNL     1      11.682  23.320  19.962  0.00  0.00    +0.000 C 
ENDROOT
BRANCH  12  13
ATOM     13  C   UNL     1      11.169  22.012  20.662  0.00  0.00    +0.000 A 
ATOM     14  C   UNL     1      11.202  20.947  19.824  0.00  0.00    +0.000 A 
ATOM     15  C   UNL     1      10.774  19.693  20.203  0.00  0.00    +0.000 A 
ATOM     16  C   UNL     1      10.301  19.557  21.492  0.00  0.00    +0.000 A 
ATOM     17  C   UNL     1      10.268  20.643  22.345  0.00  0.00    +0.000 A 
ATOM     18  C   UNL     1      10.723  21.911  21.898  0.00  0.00    +0.000 A 
ATOM     19  F   UNL     1      10.656  22.861  22.858  0.00  0.00    +0.000 F 
ENDBRANCH  12  13
BRANCH   1  20
ATOM     20  C   UNL     1       9.424  24.417  19.363  0.00  0.00    +0.000 C 
ATOM     21  O   UNL     1       8.510  23.662  19.673  0.00  0.00    +0.000 OA
BRANCH  20  23
ATOM     22  C   UNL     1      10.206  25.479  17.278  0.00  0.00    +0.000 C 
ATOM     23  O   UNL     1       9.241  25.217  18.265  0.00  0.00    +0.000 OA
ENDBRANCH  20  23
ENDBRANCH   1  20
TORSDOF 3
ENDMDL
MODEL 10
REMARK VINA RESULT:      -5.6      3.226      5.276
REMARK  Name = 
REMARK  3 active torsions:
REMARK  status: ('A' for Active; 'I' for Inactive)
REMARK    1  A    between atoms: O_2  and  C_3
REMARK    2  A    between atoms: C_3  and  C_5
REMARK    3  A    between atoms: C_16  and  C_17
REMARK                            x       y       z     vdW  Elec       q    Type
REMARK                         _______ _______ _______ _____ _____    ______ ____
ROOT
ATOM      1  C   UNL     1      28.462  24.616  24.189  0.00  0.00    +0.000 C 
ATOM      2  C   UNL     1      27.391  23.883  23.982  0.00  0.00    +0.000 C 
ATOM      3  N   UNL     1      27.304  23.249  22.669  0.00  0.00    +0.000 NA
ATOM      4  O   UNL     1      26.383  23.711  24.888  0.00  0.00    +0.000 OA
ATOM      5  C   UNL     1      26.496  24.371  26.107  0.00  0.00    +0.000 C 
ATOM      6  C   UNL     1      27.480  25.117  26.437  0.00  0.00    +0.000 C 
ATOM      7  C   UNL     1      27.564  25.827  27.731  0.00  0.00    +0.000 C 
ATOM      8  O   UNL     1      28.373  26.747  27.696  0.00  0.00    +0.000 OA
ATOM      9  C   UNL     1      26.704  25.351  28.817  0.00  0.00    +0.000 C 
ATOM     10  C   UNL     1      25.326  25.203  28.144  0.00  0.00    +0.000 C 
ATOM     11  C   UNL     1      25.356  24.163  27.087  0.00  0.00    +0.000 C 
ATOM     12  C   UNL     1      28.748  25.207  25.565  0.00  0.00    +0.000 C 
ENDROOT
BRANCH  12  13
ATOM     13  C   UNL     1      29.720  24.221  26.305  0.00  0.00    +0.000 A 
ATOM     14  C   UNL     1      29.238  22.954  26.317  0.00  0.00    +0.000 A 
ATOM     15  C   UNL     1      29.901  21.915  26.934  0.00  0.00    +0.000 A 
ATOM     16  C   UNL     1      31.098  22.217  27.552  0.00  0.00    +0.000 A 
ATOM     17  C   UNL     1      31.588  23.508  27.538  0.00  0.00    +0.000 A 
ATOM     18  C   UNL     1      30.860  24.538  26.886  0.00  0.00    +0.000 A 
ATOM     19  F   UNL     1      31.486  25.735  26.935  0.00  0.00    +0.000 F 
ENDBRANCH  12  13
BRANCH   1  20
ATOM     20  C   UNL     1      29.451  24.769  23.120  0.00  0.00    +0.000 C 
ATOM     21  O   UNL     1      30.330  23.921  23.032  0.00  0.00    +0.000 OA
BRANCH  20  23
ATOM     22  C   UNL     1      29.312  25.649  20.820  0.00  0.00    +0.000 C 
ATOM     23  O   UNL     1      29.463  25.793  22.209  0.00  0.00    +0.000 OA
ENDBRANCH  20  23
ENDBRANCH   1  20
TORSDOF 3
ENDMDL
