MODEL 1
REMARK VINA RESULT:      -6.4      0.000      0.000
REMARK  Name = 
REMARK  5 active torsions:
REMARK  status: ('A' for Active; 'I' for Inactive)
REMARK    1  A    between atoms: C_2  and  O_3
REMARK    2  A    between atoms: O_3  and  C_4
REMARK    3  A    between atoms: C_4  and  C_6
REMARK    4  A    between atoms: C_6  and  N_7
REMARK    5  A    between atoms: C_11  and  C_12
REMARK                            x       y       z     vdW  Elec       q    Type
REMARK                         _______ _______ _______ _____ _____    ______ ____
ROOT
ATOM      1  N   UNL     1      15.630  10.998  33.793  0.00  0.00    +0.000 N 
ATOM      2  N   UNL     1      14.794  11.597  34.632  0.00  0.00    +0.000 NA
ATOM      3  C   UNL     1      15.326  11.707  35.854  0.00  0.00    +0.000 A 
ATOM      4  C   UNL     1      14.616  12.340  36.994  0.00  0.00    +0.000 C 
ATOM      5  C   UNL     1      16.586  11.143  35.810  0.00  0.00    +0.000 A 
ATOM      6  C   UNL     1      16.746  10.711  34.511  0.00  0.00    +0.000 A 
ATOM      7  N   UNL     1      17.931  10.062  34.071  0.00  0.00    +0.000 NA
ENDROOT
BRANCH   5   8
ATOM      8  C   UNL     1      17.509  11.063  36.927  0.00  0.00    +0.000 A 
ATOM      9  C   UNL     1      18.376  12.086  37.259  0.00  0.00    +0.000 A 
ATOM     10  C   UNL     1      19.251  11.999  38.317  0.00  0.00    +0.000 A 
ATOM     11  C   UNL     1      19.315  10.869  39.122  0.00  0.00    +0.000 A 
ATOM     12  C   UNL     1      18.450   9.833  38.799  0.00  0.00    +0.000 A 
ATOM     13  C   UNL     1      17.579   9.927  37.740  0.00  0.00    +0.000 A 
ENDBRANCH   5   8
BRANCH   1  14
ATOM     14  C   UNL     1      15.452  10.708  32.397  0.00  0.00    +0.000 C 
BRANCH  14  15
ATOM     15  C   UNL     1      15.322  11.975  31.651  0.00  0.00    +0.000 C 
ATOM     16  O   UNL     1      16.335  12.636  31.268  0.00  0.00    +0.000 OA
BRANCH  15  17
ATOM     17  O   UNL     1      14.058  12.444  31.362  0.00  0.00    +0.000 OA
BRANCH  17  19
ATOM     18  C   UNL     1      13.562  14.376  32.640  0.00  0.00    +0.000 C 
ATOM     19  C   UNL     1      13.901  13.865  31.245  0.00  0.00    +0.000 C 
ENDBRANCH  17  19
ENDBRANCH  15  17
ENDBRANCH  14  15
ENDBRANCH   1  14
TORSDOF 5
ENDMDL
MODEL 2
REMARK VINA RESULT:      -5.8     19.060     20.523
REMARK  Name = 
REMARK  5 active torsions:
REMARK  status: ('A' for Active; 'I' for Inactive)
REMARK    1  A    between atoms: C_2  and  O_3
REMARK    2  A    between atoms: O_3  and  C_4
REMARK    3  A    between atoms: C_4  and  C_6
REMARK    4  A    between atoms: C_6  and  N_7
REMARK    5  A    between atoms: C_11  and  C_12
REMARK                            x       y       z     vdW  Elec       q    Type
REMARK                         _______ _______ _______ _____ _____    ______ ____
ROOT
ATOM      1  N   UNL     1      33.438   1.598  34.608  0.00  0.00    +0.000 N 
ATOM      2  N   UNL     1      33.766   1.463  35.888  0.00  0.00    +0.000 NA
ATOM      3  C   UNL     1      34.254   2.602  36.389  0.00  0.00    +0.000 A 
ATOM      4  C   UNL     1      34.696   2.745  37.799  0.00  0.00    +0.000 C 
ATOM      5  C   UNL     1      34.247   3.539  35.373  0.00  0.00    +0.000 A 
ATOM      6  C   UNL     1      33.732   2.881  34.276  0.00  0.00    +0.000 A 
ATOM      7  N   UNL     1      33.573   3.522  33.017  0.00  0.00    +0.000 NA
ENDROOT
BRANCH   5   8
ATOM      8  C   UNL     1      34.689   4.915  35.497  0.00  0.00    +0.000 A 
ATOM      9  C   UNL     1      36.013   5.291  35.379  0.00  0.00    +0.000 A 
ATOM     10  C   UNL     1      36.424   6.598  35.502  0.00  0.00    +0.000 A 
ATOM     11  C   UNL     1      35.526   7.626  35.755  0.00  0.00    +0.000 A 
ATOM     12  C   UNL     1      34.192   7.263  35.876  0.00  0.00    +0.000 A 
ATOM     13  C   UNL     1      33.789   5.955  35.751  0.00  0.00    +0.000 A 
ENDBRANCH   5   8
BRANCH   1  14
ATOM     14  C   UNL     1      32.868   0.628  33.716  0.00  0.00    +0.000 C 
BRANCH  14  15
ATOM     15  C   UNL     1      33.953  -0.146  33.082  0.00  0.00    +0.000 C 
ATOM     16  O   UNL     1      34.662   0.335  32.146  0.00  0.00    +0.000 OA
BRANCH  15  17
ATOM     17  O   UNL     1      34.200  -1.427  33.530  0.00  0.00    +0.000 OA
BRANCH  17  19
ATOM     18  C   UNL     1      33.066  -3.487  33.816  0.00  0.00    +0.000 C 
ATOM     19  C   UNL     1      33.175  -2.052  34.316  0.00  0.00    +0.000 C 
ENDBRANCH  17  19
ENDBRANCH  15  17
ENDBRANCH  14  15
ENDBRANCH   1  14
TORSDOF 5
ENDMDL
MODEL 3
REMARK VINA RESULT:      -5.4     19.394     20.994
REMARK  Name = 
REMARK  5 active torsions:
REMARK  status: ('A' for Active; 'I' for Inactive)
REMARK    1  A    between atoms: C_2  and  O_3
REMARK    2  A    between atoms: O_3  and  C_4
REMARK    3  A    between atoms: C_4  and  C_6
REMARK    4  A    between atoms: C_6  and  N_7
REMARK    5  A    between atoms: C_11  and  C_12
REMARK                            x       y       z     vdW  Elec       q    Type
REMARK                         _______ _______ _______ _____ _____    ______ ____
ROOT
ATOM      1  N   UNL     1      33.776   1.193  35.831  0.00  0.00    +0.000 N 
ATOM      2  N   UNL     1      33.515   1.448  34.553  0.00  0.00    +0.000 NA
ATOM      3  C   UNL     1      33.769   2.725  34.250  0.00  0.00    +0.000 A 
ATOM      4  C   UNL     1      33.574   3.290  32.891  0.00  0.00    +0.000 C 
ATOM      5  C   UNL     1      34.220   3.343  35.401  0.00  0.00    +0.000 A 
ATOM      6  C   UNL     1      34.213   2.360  36.367  0.00  0.00    +0.000 A 
ATOM      7  N   UNL     1      34.612   2.617  37.707  0.00  0.00    +0.000 NA
ENDROOT
BRANCH   5   8
ATOM      8  C   UNL     1      34.616   4.735  35.506  0.00  0.00    +0.000 A 
ATOM      9  C   UNL     1      33.709   5.761  35.683  0.00  0.00    +0.000 A 
ATOM     10  C   UNL     1      34.093   7.080  35.777  0.00  0.00    +0.000 A 
ATOM     11  C   UNL     1      35.426   7.459  35.700  0.00  0.00    +0.000 A 
ATOM     12  C   UNL     1      36.349   6.438  35.521  0.00  0.00    +0.000 A 
ATOM     13  C   UNL     1      35.957   5.124  35.428  0.00  0.00    +0.000 A 
ENDBRANCH   5   8
BRANCH   1  14
ATOM     14  C   UNL     1      33.657  -0.048  36.544  0.00  0.00    +0.000 C 
BRANCH  14  15
ATOM     15  C   UNL     1      34.909  -0.815  36.394  0.00  0.00    +0.000 C 
ATOM     16  O   UNL     1      35.826  -0.783  37.270  0.00  0.00    +0.000 OA
BRANCH  15  17
ATOM     17  O   UNL     1      35.077  -1.590  35.266  0.00  0.00    +0.000 OA
BRANCH  17  19
ATOM     18  C   UNL     1      33.513  -2.353  33.657  0.00  0.00    +0.000 C 
ATOM     19  C   UNL     1      34.108  -2.623  35.034  0.00  0.00    +0.000 C 
ENDBRANCH  17  19
ENDBRANCH  15  17
ENDBRANCH  14  15
ENDBRANCH   1  14
TORSDOF 5
ENDMDL
MODEL 4
REMARK VINA RESULT:      -5.3     18.748     19.900
REMARK  Name = 
REMARK  5 active torsions:
REMARK  status: ('A' for Active; 'I' for Inactive)
REMARK    1  A    between atoms: C_2  and  O_3
REMARK    2  A    between atoms: O_3  and  C_4
REMARK    3  A    between atoms: C_4  and  C_6
REMARK    4  A    between atoms: C_6  and  N_7
REMARK    5  A    between atoms: C_11  and  C_12
REMARK                            x       y       z     vdW  Elec       q    Type
REMARK                         _______ _______ _______ _____ _____    ______ ____
ROOT
ATOM      1  N   UNL     1      28.300  23.302  23.474  0.00  0.00    +0.000 N 
ATOM      2  N   UNL     1      29.471  23.027  24.036  0.00  0.00    +0.000 NA
ATOM      3  C   UNL     1      29.359  22.912  25.364  0.00  0.00    +0.000 A 
ATOM      4  C   UNL     1      30.509  22.603  26.251  0.00  0.00    +0.000 C 
ATOM      5  C   UNL     1      28.034  23.127  25.688  0.00  0.00    +0.000 A 
ATOM      6  C   UNL     1      27.400  23.367  24.488  0.00  0.00    +0.000 A 
ATOM      7  N   UNL     1      26.007  23.642  24.411  0.00  0.00    +0.000 NA
ENDROOT
BRANCH   5   8
ATOM      8  C   UNL     1      27.480  23.085  27.029  0.00  0.00    +0.000 A 
ATOM      9  C   UNL     1      27.828  22.118  27.953  0.00  0.00    +0.000 A 
ATOM     10  C   UNL     1      27.295  22.083  29.222  0.00  0.00    +0.000 A 
ATOM     11  C   UNL     1      26.370  23.025  29.652  0.00  0.00    +0.000 A 
ATOM     12  C   UNL     1      26.012  24.002  28.734  0.00  0.00    +0.000 A 
ATOM     13  C   UNL     1      26.549  24.030  27.469  0.00  0.00    +0.000 A 
ENDBRANCH   5   8
BRANCH   1  14
ATOM     14  C   UNL     1      27.987  23.481  22.084  0.00  0.00    +0.000 C 
BRANCH  14  15
ATOM     15  C   UNL     1      28.722  24.654  21.570  0.00  0.00    +0.000 C 
ATOM     16  O   UNL     1      29.699  24.537  20.769  0.00  0.00    +0.000 OA
BRANCH  15  17
ATOM     17  O   UNL     1      28.323  25.911  21.973  0.00  0.00    +0.000 OA
BRANCH  17  19
ATOM     18  C   UNL     1      29.701  26.615  23.767  0.00  0.00    +0.000 C 
ATOM     19  C   UNL     1      29.358  26.849  22.301  0.00  0.00    +0.000 C 
ENDBRANCH  17  19
ENDBRANCH  15  17
ENDBRANCH  14  15
ENDBRANCH   1  14
TORSDOF 5
ENDMDL
MODEL 5
REMARK VINA RESULT:      -5.3     19.791     21.085
REMARK  Name = 
REMARK  5 active torsions:
REMARK  status: ('A' for Active; 'I' for Inactive)
REMARK    1  A    between atoms: C_2  and  O_3
REMARK    2  A    between atoms: O_3  and  C_4
REMARK    3  A    between atoms: C_4  and  C_6
REMARK    4  A    between atoms: C_6  and  N_7
REMARK    5  A    between atoms: C_11  and  C_12
REMARK                            x       y       z     vdW  Elec       q    Type
REMARK                         _______ _______ _______ _____ _____    ______ ____
ROOT
ATOM      1  N   UNL     1      28.107  25.343  22.805  0.00  0.00    +0.000 N 
ATOM      2  N   UNL     1      27.003  24.656  22.537  0.00  0.00    +0.000 NA
ATOM      3  C   UNL     1      26.588  23.965  23.603  0.00  0.00    +0.000 A 
ATOM      4  C   UNL     1      25.373  23.111  23.595  0.00  0.00    +0.000 C 
ATOM      5  C   UNL     1      27.477  24.215  24.631  0.00  0.00    +0.000 A 
ATOM      6  C   UNL     1      28.412  25.078  24.101  0.00  0.00    +0.000 A 
ATOM      7  N   UNL     1      29.508  25.564  24.863  0.00  0.00    +0.000 NA
ENDROOT
BRANCH   5   8
ATOM      8  C   UNL     1      27.387  23.665  25.971  0.00  0.00    +0.000 A 
ATOM      9  C   UNL     1      28.175  22.618  26.406  0.00  0.00    +0.000 A 
ATOM     10  C   UNL     1      28.080  22.100  27.678  0.00  0.00    +0.000 A 
ATOM     11  C   UNL     1      27.179  22.604  28.606  0.00  0.00    +0.000 A 
ATOM     12  C   UNL     1      26.381  23.657  28.182  0.00  0.00    +0.000 A 
ATOM     13  C   UNL     1      26.482  24.168  26.911  0.00  0.00    +0.000 A 
ENDBRANCH   5   8
BRANCH   1  14
ATOM     14  C   UNL     1      28.855  26.218  21.946  0.00  0.00    +0.000 C 
BRANCH  14  15
ATOM     15  C   UNL     1      29.485  25.424  20.874  0.00  0.00    +0.000 C 
ATOM     16  O   UNL     1      29.699  24.179  20.997  0.00  0.00    +0.000 OA
BRANCH  15  17
ATOM     17  O   UNL     1      29.845  26.061  19.705  0.00  0.00    +0.000 OA
BRANCH  17  19
ATOM     18  C   UNL     1      30.843  27.943  18.668  0.00  0.00    +0.000 C 
ATOM     19  C   UNL     1      29.827  27.495  19.712  0.00  0.00    +0.000 C 
ENDBRANCH  17  19
ENDBRANCH  15  17
ENDBRANCH  14  15
ENDBRANCH   1  14
TORSDOF 5
ENDMDL
MODEL 6
REMARK VINA RESULT:      -5.3      2.850      4.784
REMARK  Name = 
REMARK  5 active torsions:
REMARK  status: ('A' for Active; 'I' for Inactive)
REMARK    1  A    between atoms: C_2  and  O_3
REMARK    2  A    between atoms: O_3  and  C_4
REMARK    3  A    between atoms: C_4  and  C_6
REMARK    4  A    between atoms: C_6  and  N_7
REMARK    5  A    between atoms: C_11  and  C_12
REMARK                            x       y       z     vdW  Elec       q    Type
REMARK                         _______ _______ _______ _____ _____    ______ ____
ROOT
ATOM      1  N   UNL     1      17.372  11.844  37.289  0.00  0.00    +0.000 N 
ATOM      2  N   UNL     1      18.644  11.708  37.646  0.00  0.00    +0.000 NA
ATOM      3  C   UNL     1      18.783  10.799  38.617  0.00  0.00    +0.000 A 
ATOM      4  C   UNL     1      20.096  10.437  39.208  0.00  0.00    +0.000 C 
ATOM      5  C   UNL     1      17.524  10.313  38.913  0.00  0.00    +0.000 A 
ATOM      6  C   UNL     1      16.667  10.984  38.068  0.00  0.00    +0.000 A 
ATOM      7  N   UNL     1      15.264  10.758  38.079  0.00  0.00    +0.000 NA
ENDROOT
BRANCH   5   8
ATOM      8  C   UNL     1      17.229   9.298  39.908  0.00  0.00    +0.000 A 
ATOM      9  C   UNL     1      17.815   8.048  39.901  0.00  0.00    +0.000 A 
ATOM     10  C   UNL     1      17.526   7.090  40.846  0.00  0.00    +0.000 A 
ATOM     11  C   UNL     1      16.621   7.326  41.872  0.00  0.00    +0.000 A 
ATOM     12  C   UNL     1      16.024   8.579  41.891  0.00  0.00    +0.000 A 
ATOM     13  C   UNL     1      16.318   9.530  40.944  0.00  0.00    +0.000 A 
ENDBRANCH   5   8
BRANCH   1  14
ATOM     14  C   UNL     1      16.806  12.694  36.280  0.00  0.00    +0.000 C 
BRANCH  14  15
ATOM     15  C   UNL     1      16.441  11.876  35.106  0.00  0.00    +0.000 C 
ATOM     16  O   UNL     1      15.272  11.893  34.612  0.00  0.00    +0.000 OA
BRANCH  15  17
ATOM     17  O   UNL     1      17.407  11.075  34.533  0.00  0.00    +0.000 OA
BRANCH  17  19
ATOM     18  C   UNL     1      17.910   8.885  35.284  0.00  0.00    +0.000 C 
ATOM     19  C   UNL     1      17.065   9.699  34.311  0.00  0.00    +0.000 C 
ENDBRANCH  17  19
ENDBRANCH  15  17
ENDBRANCH  14  15
ENDBRANCH   1  14
TORSDOF 5
ENDMDL
MODEL 7
REMARK VINA RESULT:      -5.2     18.554     20.374
REMARK  Name = 
REMARK  5 active torsions:
REMARK  status: ('A' for Active; 'I' for Inactive)
REMARK    1  A    between atoms: C_2  and  O_3
REMARK    2  A    between atoms: O_3  and  C_4
REMARK    3  A    between atoms: C_4  and  C_6
REMARK    4  A    between atoms: C_6  and  N_7
REMARK    5  A    between atoms: C_11  and  C_12
REMARK                            x       y       z     vdW  Elec       q    Type
REMARK                         _______ _______ _______ _____ _____    ______ ____
ROOT
ATOM      1  N   UNL     1      27.940  22.723  26.103  0.00  0.00    +0.000 N 
ATOM      2  N   UNL     1      26.797  22.585  25.442  0.00  0.00    +0.000 NA
ATOM      3  C   UNL     1      26.796  23.304  24.315  0.00  0.00    +0.000 A 
ATOM      4  C   UNL     1      25.648  23.335  23.374  0.00  0.00    +0.000 C 
ATOM      5  C   UNL     1      28.013  23.952  24.236  0.00  0.00    +0.000 A 
ATOM      6  C   UNL     1      28.703  23.569  25.366  0.00  0.00    +0.000 A 
ATOM      7  N   UNL     1      30.014  24.042  25.647  0.00  0.00    +0.000 NA
ENDROOT
BRANCH   5   8
ATOM      8  C   UNL     1      28.427  24.832  23.158  0.00  0.00    +0.000 A 
ATOM      9  C   UNL     1      28.315  26.207  23.227  0.00  0.00    +0.000 A 
ATOM     10  C   UNL     1      28.706  27.033  22.198  0.00  0.00    +0.000 A 
ATOM     11  C   UNL     1      29.242  26.530  21.020  0.00  0.00    +0.000 A 
ATOM     12  C   UNL     1      29.360  25.149  20.938  0.00  0.00    +0.000 A 
ATOM     13  C   UNL     1      28.967  24.331  21.969  0.00  0.00    +0.000 A 
ENDBRANCH   5   8
BRANCH   1  14
ATOM     14  C   UNL     1      28.348  22.110  27.337  0.00  0.00    +0.000 C 
BRANCH  14  15
ATOM     15  C   UNL     1      27.973  22.989  28.462  0.00  0.00    +0.000 C 
ATOM     16  O   UNL     1      28.838  23.637  29.126  0.00  0.00    +0.000 OA
BRANCH  15  17
ATOM     17  O   UNL     1      26.639  23.107  28.791  0.00  0.00    +0.000 OA
BRANCH  17  19
ATOM     18  C   UNL     1      26.309  21.528  30.527  0.00  0.00    +0.000 C 
ATOM     19  C   UNL     1      26.299  23.012  30.182  0.00  0.00    +0.000 C 
ENDBRANCH  17  19
ENDBRANCH  15  17
ENDBRANCH  14  15
ENDBRANCH   1  14
TORSDOF 5
ENDMDL
MODEL 8
REMARK VINA RESULT:      -5.2     20.577     22.236
REMARK  Name = 
REMARK  5 active torsions:
REMARK  status: ('A' for Active; 'I' for Inactive)
REMARK    1  A    between atoms: C_2  and  O_3
REMARK    2  A    between atoms: O_3  and  C_4
REMARK    3  A    between atoms: C_4  and  C_6
REMARK    4  A    between atoms: C_6  and  N_7
REMARK    5  A    between atoms: C_11  and  C_12
REMARK                            x       y       z     vdW  Elec       q    Type
REMARK                         _______ _______ _______ _____ _____    ______ ____
ROOT
ATOM      1  N   UNL     1      15.489 -10.096  26.862  0.00  0.00    +0.000 N 
ATOM      2  N   UNL     1      16.242 -10.310  27.935  0.00  0.00    +0.000 NA
ATOM      3  C   UNL     1      17.252  -9.437  28.003  0.00  0.00    +0.000 A 
ATOM      4  C   UNL     1      18.251  -9.436  29.101  0.00  0.00    +0.000 C 
ATOM      5  C   UNL     1      17.155  -8.603  26.905  0.00  0.00    +0.000 A 
ATOM      6  C   UNL     1      16.045  -9.041  26.214  0.00  0.00    +0.000 A 
ATOM      7  N   UNL     1      15.618  -8.427  25.005  0.00  0.00    +0.000 NA
ENDROOT
BRANCH   5   8
ATOM      8  C   UNL     1      18.055  -7.506  26.602  0.00  0.00    +0.000 A 
ATOM      9  C   UNL     1      19.239  -7.676  25.912  0.00  0.00    +0.000 A 
ATOM     10  C   UNL     1      20.088  -6.630  25.632  0.00  0.00    +0.000 A 
ATOM     11  C   UNL     1      19.803  -5.331  26.031  0.00  0.00    +0.000 A 
ATOM     12  C   UNL     1      18.616  -5.146  26.725  0.00  0.00    +0.000 A 
ATOM     13  C   UNL     1      17.773  -6.195  27.000  0.00  0.00    +0.000 A 
ENDBRANCH   5   8
BRANCH   1  14
ATOM     14  C   UNL     1      14.308 -10.793  26.436  0.00  0.00    +0.000 C 
BRANCH  14  15
ATOM     15  C   UNL     1      13.129 -10.198  27.097  0.00  0.00    +0.000 C 
ATOM     16  O   UNL     1      12.656  -9.075  26.743  0.00  0.00    +0.000 OA
BRANCH  15  17
ATOM     17  O   UNL     1      12.528 -10.893  28.125  0.00  0.00    +0.000 OA
BRANCH  17  19
ATOM     18  C   UNL     1      11.802 -10.420  30.330  0.00  0.00    +0.000 C 
ATOM     19  C   UNL     1      11.493 -10.216  28.852  0.00  0.00    +0.000 C 
ENDBRANCH  17  19
ENDBRANCH  15  17
ENDBRANCH  14  15
ENDBRANCH   1  14
TORSDOF 5
ENDMDL
MODEL 9
REMARK VINA RESULT:      -5.2      3.225      4.627
REMARK  Name = 
REMARK  5 active torsions:
REMARK  status: ('A' for Active; 'I' for Inactive)
REMARK    1  A    between atoms: C_2  and  O_3
REMARK    2  A    between atoms: O_3  and  C_4
REMARK    3  A    between atoms: C_4  and  C_6
REMARK    4  A    between atoms: C_6  and  N_7
REMARK    5  A    between atoms: C_11  and  C_12
REMARK                            x       y       z     vdW  Elec       q    Type
REMARK                         _______ _______ _______ _____ _____    ______ ____
ROOT
ATOM      1  N   UNL     1      17.827  11.314  37.609  0.00  0.00    +0.000 N 
ATOM      2  N   UNL     1      18.504  12.396  37.979  0.00  0.00    +0.000 NA
ATOM      3  C   UNL     1      19.817  12.152  38.035  0.00  0.00    +0.000 A 
ATOM      4  C   UNL     1      20.818  13.182  38.414  0.00  0.00    +0.000 C 
ATOM      5  C   UNL     1      20.010  10.830  37.682  0.00  0.00    +0.000 A 
ATOM      6  C   UNL     1      18.750  10.337  37.423  0.00  0.00    +0.000 A 
ATOM      7  N   UNL     1      18.533   8.987  37.031  0.00  0.00    +0.000 NA
ENDROOT
BRANCH   5   8
ATOM      8  C   UNL     1      21.295  10.160  37.606  0.00  0.00    +0.000 A 
ATOM      9  C   UNL     1      21.982   9.987  36.420  0.00  0.00    +0.000 A 
ATOM     10  C   UNL     1      23.198   9.347  36.358  0.00  0.00    +0.000 A 
ATOM     11  C   UNL     1      23.813   8.833  37.492  0.00  0.00    +0.000 A 
ATOM     12  C   UNL     1      23.134   9.001  38.690  0.00  0.00    +0.000 A 
ATOM     13  C   UNL     1      21.920   9.641  38.745  0.00  0.00    +0.000 A 
ENDBRANCH   5   8
BRANCH   1  14
ATOM     14  C   UNL     1      16.413  11.161  37.411  0.00  0.00    +0.000 C 
BRANCH  14  15
ATOM     15  C   UNL     1      16.046  11.707  36.090  0.00  0.00    +0.000 C 
ATOM     16  O   UNL     1      15.638  12.900  35.946  0.00  0.00    +0.000 OA
BRANCH  15  17
ATOM     17  O   UNL     1      16.157  10.890  34.984  0.00  0.00    +0.000 OA
BRANCH  17  19
ATOM     18  C   UNL     1      16.141  11.465  32.686  0.00  0.00    +0.000 C 
ATOM     19  C   UNL     1      17.017  11.338  33.926  0.00  0.00    +0.000 C 
ENDBRANCH  17  19
ENDBRANCH  15  17
ENDBRANCH  14  15
ENDBRANCH   1  14
TORSDOF 5
ENDMDL
MODEL 10
REMARK VINA RESULT:      -5.1     20.747     22.439
REMARK  Name = 
REMARK  5 active torsions:
REMARK  status: ('A' for Active; 'I' for Inactive)
REMARK    1  A    between atoms: C_2  and  O_3
REMARK    2  A    between atoms: O_3  and  C_4
REMARK    3  A    between atoms: C_4  and  C_6
REMARK    4  A    between atoms: C_6  and  N_7
REMARK    5  A    between atoms: C_11  and  C_12
REMARK                            x       y       z     vdW  Elec       q    Type
REMARK                         _______ _______ _______ _____ _____    ______ ____
ROOT
ATOM      1  N   UNL     1      16.847 -10.440  28.588  0.00  0.00    +0.000 N 
ATOM      2  N   UNL     1      16.052 -10.266  27.538  0.00  0.00    +0.000 NA
ATOM      3  C   UNL     1      16.440  -9.219  26.803  0.00  0.00    +0.000 A 
ATOM      4  C   UNL     1      15.739  -8.792  25.565  0.00  0.00    +0.000 C 
ATOM      5  C   UNL     1      17.556  -8.675  27.410  0.00  0.00    +0.000 A 
ATOM      6  C   UNL     1      17.783  -9.460  28.520  0.00  0.00    +0.000 A 
ATOM      7  N   UNL     1      18.857  -9.207  29.416  0.00  0.00    +0.000 NA
ENDROOT
BRANCH   5   8
ATOM      8  C   UNL     1      18.298  -7.525  26.928  0.00  0.00    +0.000 A 
ATOM      9  C   UNL     1      17.931  -6.224  27.210  0.00  0.00    +0.000 A 
ATOM     10  C   UNL     1      18.638  -5.139  26.745  0.00  0.00    +0.000 A 
ATOM     11  C   UNL     1      19.772  -5.289  25.958  0.00  0.00    +0.000 A 
ATOM     12  C   UNL     1      20.152  -6.592  25.667  0.00  0.00    +0.000 A 
ATOM     13  C   UNL     1      19.441  -7.670  26.135  0.00  0.00    +0.000 A 
ENDBRANCH   5   8
BRANCH   1  14
ATOM     14  C   UNL     1      16.787 -11.453  29.604  0.00  0.00    +0.000 C 
BRANCH  14  15
ATOM     15  C   UNL     1      15.972 -10.961  30.732  0.00  0.00    +0.000 C 
ATOM     16  O   UNL     1      16.478 -10.297  31.688  0.00  0.00    +0.000 OA
BRANCH  15  17
ATOM     17  O   UNL     1      14.620 -11.232  30.737  0.00  0.00    +0.000 OA
BRANCH  17  19
ATOM     18  C   UNL     1      13.089 -11.894  29.054  0.00  0.00    +0.000 C 
ATOM     19  C   UNL     1      14.183 -12.381  29.997  0.00  0.00    +0.000 C 
ENDBRANCH  17  19
ENDBRANCH  15  17
ENDBRANCH  14  15
ENDBRANCH   1  14
TORSDOF 5
ENDMDL
