MODEL 1
REMARK VINA RESULT:      -7.1      0.000      0.000
REMARK  Name = 
REMARK  4 active torsions:
REMARK  status: ('A' for Active; 'I' for Inactive)
REMARK    1  A    between atoms: C_2  and  C_3
REMARK    2  A    between atoms: C_4  and  N_5
REMARK    3  A    between atoms: N_5  and  C_6
REMARK    4  A    between atoms: C_6  and  C_7
REMARK                            x       y       z     vdW  Elec       q    Type
REMARK                         _______ _______ _______ _____ _____    ______ ____
ROOT
ATOM      1  C   UNL     1      15.782  11.636  33.708  0.00  0.00    +0.000 A 
ATOM      2  C   UNL     1      15.124  12.140  34.791  0.00  0.00    +0.000 A 
ATOM      3  S   UNL     1      14.040  13.278  34.077  0.00  0.00    +0.000 S 
ATOM      4  C   UNL     1      14.467  13.066  32.440  0.00  0.00    +0.000 A 
ATOM      5  C   UNL     1      15.446  12.109  32.501  0.00  0.00    +0.000 A 
ATOM      6  C   UNL     1      15.978  11.762  31.124  0.00  0.00    +0.000 C 
ATOM      7  C   UNL     1      16.433  13.078  30.527  0.00  0.00    +0.000 C 
ATOM      8  C   UNL     1      15.331  14.086  30.431  0.00  0.00    +0.000 C 
ATOM      9  C   UNL     1      14.053  13.631  31.101  0.00  0.00    +0.000 C 
ENDROOT
BRANCH   1  11
ATOM     10  N   UNL     1      17.684   9.831  34.053  0.00  0.00    +0.000 NA
ATOM     11  C   UNL     1      16.827  10.628  33.905  0.00  0.00    +0.000 C 
ENDBRANCH   1  11
BRANCH   2  12
ATOM     12  N   UNL     1      15.189  11.883  36.176  0.00  0.00    +0.000 NA
BRANCH  12  13
ATOM     13  C   UNL     1      15.990  12.565  37.128  0.00  0.00    +0.000 C 
BRANCH  13  14
ATOM     14  C   UNL     1      17.166  11.718  37.458  0.00  0.00    +0.000 A 
ATOM     15  C   UNL     1      18.402  12.338  37.605  0.00  0.00    +0.000 A 
ATOM     16  C   UNL     1      19.493  11.527  37.921  0.00  0.00    +0.000 A 
ATOM     17  C   UNL     1      19.344  10.167  38.080  0.00  0.00    +0.000 A 
ATOM     18  O   UNL     1      20.478   9.430  38.394  0.00  0.00    +0.000 OA
ATOM     19  C   UNL     1      18.113   9.555  37.933  0.00  0.00    +0.000 A 
ATOM     20  C   UNL     1      17.048  10.355  37.622  0.00  0.00    +0.000 A 
ENDBRANCH  13  14
ENDBRANCH  12  13
ENDBRANCH   2  12
TORSDOF 4
ENDMDL
MODEL 2
REMARK VINA RESULT:      -7.0      1.478      1.909
REMARK  Name = 
REMARK  4 active torsions:
REMARK  status: ('A' for Active; 'I' for Inactive)
REMARK    1  A    between atoms: C_2  and  C_3
REMARK    2  A    between atoms: C_4  and  N_5
REMARK    3  A    between atoms: N_5  and  C_6
REMARK    4  A    between atoms: C_6  and  C_7
REMARK                            x       y       z     vdW  Elec       q    Type
REMARK                         _______ _______ _______ _____ _____    ______ ____
ROOT
ATOM      1  C   UNL     1      15.821  11.716  34.035  0.00  0.00    +0.000 A 
ATOM      2  C   UNL     1      15.261  12.322  35.121  0.00  0.00    +0.000 A 
ATOM      3  S   UNL     1      14.116  13.398  34.404  0.00  0.00    +0.000 S 
ATOM      4  C   UNL     1      14.397  13.033  32.762  0.00  0.00    +0.000 A 
ATOM      5  C   UNL     1      15.379  12.079  32.825  0.00  0.00    +0.000 A 
ATOM      6  C   UNL     1      15.787  11.603  31.444  0.00  0.00    +0.000 C 
ATOM      7  C   UNL     1      16.185  12.856  30.690  0.00  0.00    +0.000 C 
ATOM      8  C   UNL     1      15.078  13.858  30.599  0.00  0.00    +0.000 C 
ATOM      9  C   UNL     1      13.865  13.476  31.419  0.00  0.00    +0.000 C 
ENDROOT
BRANCH   1  11
ATOM     10  N   UNL     1      17.735   9.921  34.365  0.00  0.00    +0.000 NA
ATOM     11  C   UNL     1      16.881  10.723  34.231  0.00  0.00    +0.000 C 
ENDBRANCH   1  11
BRANCH   2  12
ATOM     12  N   UNL     1      15.448  12.194  36.513  0.00  0.00    +0.000 NA
BRANCH  12  13
ATOM     13  C   UNL     1      14.686  11.391  37.400  0.00  0.00    +0.000 C 
BRANCH  13  14
ATOM     14  C   UNL     1      15.612  10.700  38.335  0.00  0.00    +0.000 A 
ATOM     15  C   UNL     1      15.107  10.256  39.553  0.00  0.00    +0.000 A 
ATOM     16  C   UNL     1      15.990   9.604  40.414  0.00  0.00    +0.000 A 
ATOM     17  C   UNL     1      17.308   9.411  40.067  0.00  0.00    +0.000 A 
ATOM     18  O   UNL     1      18.122   8.754  40.980  0.00  0.00    +0.000 OA
ATOM     19  C   UNL     1      17.806   9.855  38.856  0.00  0.00    +0.000 A 
ATOM     20  C   UNL     1      16.937  10.493  38.016  0.00  0.00    +0.000 A 
ENDBRANCH  13  14
ENDBRANCH  12  13
ENDBRANCH   2  12
TORSDOF 4
ENDMDL
MODEL 3
REMARK VINA RESULT:      -7.0      3.469      6.215
REMARK  Name = 
REMARK  4 active torsions:
REMARK  status: ('A' for Active; 'I' for Inactive)
REMARK    1  A    between atoms: C_2  and  C_3
REMARK    2  A    between atoms: C_4  and  N_5
REMARK    3  A    between atoms: N_5  and  C_6
REMARK    4  A    between atoms: C_6  and  C_7
REMARK                            x       y       z     vdW  Elec       q    Type
REMARK                         _______ _______ _______ _____ _____    ______ ____
ROOT
ATOM      1  C   UNL     1      15.418  11.249  37.190  0.00  0.00    +0.000 A 
ATOM      2  C   UNL     1      15.806  11.712  35.968  0.00  0.00    +0.000 A 
ATOM      3  S   UNL     1      14.359  12.435  35.362  0.00  0.00    +0.000 S 
ATOM      4  C   UNL     1      13.329  12.120  36.683  0.00  0.00    +0.000 A 
ATOM      5  C   UNL     1      14.148  11.458  37.559  0.00  0.00    +0.000 A 
ATOM      6  C   UNL     1      13.417  11.077  38.832  0.00  0.00    +0.000 C 
ATOM      7  C   UNL     1      12.215  10.274  38.378  0.00  0.00    +0.000 C 
ATOM      8  C   UNL     1      11.315  11.040  37.459  0.00  0.00    +0.000 C 
ATOM      9  C   UNL     1      11.887  12.381  37.054  0.00  0.00    +0.000 C 
ENDROOT
BRANCH   1  11
ATOM     10  N   UNL     1      17.164   9.982  38.720  0.00  0.00    +0.000 NA
ATOM     11  C   UNL     1      16.384  10.536  38.030  0.00  0.00    +0.000 C 
ENDBRANCH   1  11
BRANCH   2  12
ATOM     12  N   UNL     1      17.027  11.696  35.263  0.00  0.00    +0.000 NA
BRANCH  12  13
ATOM     13  C   UNL     1      17.403  10.790  34.238  0.00  0.00    +0.000 C 
BRANCH  13  14
ATOM     14  C   UNL     1      16.494  10.975  33.078  0.00  0.00    +0.000 A 
ATOM     15  C   UNL     1      16.671  12.098  32.276  0.00  0.00    +0.000 A 
ATOM     16  C   UNL     1      15.812  12.251  31.187  0.00  0.00    +0.000 A 
ATOM     17  C   UNL     1      14.829  11.324  30.922  0.00  0.00    +0.000 A 
ATOM     18  O   UNL     1      14.015  11.548  29.820  0.00  0.00    +0.000 OA
ATOM     19  C   UNL     1      14.657  10.209  31.721  0.00  0.00    +0.000 A 
ATOM     20  C   UNL     1      15.501  10.064  32.787  0.00  0.00    +0.000 A 
ENDBRANCH  13  14
ENDBRANCH  12  13
ENDBRANCH   2  12
TORSDOF 4
ENDMDL
MODEL 4
REMARK VINA RESULT:      -6.5      1.498      2.451
REMARK  Name = 
REMARK  4 active torsions:
REMARK  status: ('A' for Active; 'I' for Inactive)
REMARK    1  A    between atoms: C_2  and  C_3
REMARK    2  A    between atoms: C_4  and  N_5
REMARK    3  A    between atoms: N_5  and  C_6
REMARK    4  A    between atoms: C_6  and  C_7
REMARK                            x       y       z     vdW  Elec       q    Type
REMARK                         _______ _______ _______ _____ _____    ______ ____
ROOT
ATOM      1  C   UNL     1      14.824  12.396  34.479  0.00  0.00    +0.000 A 
ATOM      2  C   UNL     1      15.729  11.463  34.892  0.00  0.00    +0.000 A 
ATOM      3  S   UNL     1      16.642  11.162  33.458  0.00  0.00    +0.000 S 
ATOM      4  C   UNL     1      15.839  12.232  32.400  0.00  0.00    +0.000 A 
ATOM      5  C   UNL     1      14.880  12.792  33.202  0.00  0.00    +0.000 A 
ATOM      6  C   UNL     1      14.033  13.797  32.445  0.00  0.00    +0.000 C 
ATOM      7  C   UNL     1      13.482  13.039  31.254  0.00  0.00    +0.000 C 
ATOM      8  C   UNL     1      14.554  12.479  30.372  0.00  0.00    +0.000 C 
ATOM      9  C   UNL     1      15.942  12.646  30.950  0.00  0.00    +0.000 C 
ENDROOT
BRANCH   1  11
ATOM     10  N   UNL     1      13.014  13.310  36.178  0.00  0.00    +0.000 NA
ATOM     11  C   UNL     1      13.831  12.906  35.429  0.00  0.00    +0.000 C 
ENDBRANCH   1  11
BRANCH   2  12
ATOM     12  N   UNL     1      15.984  10.834  36.128  0.00  0.00    +0.000 NA
BRANCH  12  13
ATOM     13  C   UNL     1      16.595  11.418  37.267  0.00  0.00    +0.000 C 
BRANCH  13  14
ATOM     14  C   UNL     1      18.030  11.034  37.290  0.00  0.00    +0.000 A 
ATOM     15  C   UNL     1      18.903  11.792  38.064  0.00  0.00    +0.000 A 
ATOM     16  C   UNL     1      20.245  11.411  38.078  0.00  0.00    +0.000 A 
ATOM     17  C   UNL     1      20.682  10.325  37.353  0.00  0.00    +0.000 A 
ATOM     18  O   UNL     1      22.033  10.011  37.419  0.00  0.00    +0.000 OA
ATOM     19  C   UNL     1      19.812   9.574  36.585  0.00  0.00    +0.000 A 
ATOM     20  C   UNL     1      18.497   9.952  36.574  0.00  0.00    +0.000 A 
ENDBRANCH  13  14
ENDBRANCH  12  13
ENDBRANCH   2  12
TORSDOF 4
ENDMDL
MODEL 5
REMARK VINA RESULT:      -6.1      3.040      6.949
REMARK  Name = 
REMARK  4 active torsions:
REMARK  status: ('A' for Active; 'I' for Inactive)
REMARK    1  A    between atoms: C_2  and  C_3
REMARK    2  A    between atoms: C_4  and  N_5
REMARK    3  A    between atoms: N_5  and  C_6
REMARK    4  A    between atoms: C_6  and  C_7
REMARK                            x       y       z     vdW  Elec       q    Type
REMARK                         _______ _______ _______ _____ _____    ______ ____
ROOT
ATOM      1  C   UNL     1      15.857  11.383  37.688  0.00  0.00    +0.000 A 
ATOM      2  C   UNL     1      15.932  12.367  36.747  0.00  0.00    +0.000 A 
ATOM      3  S   UNL     1      17.598  12.330  36.294  0.00  0.00    +0.000 S 
ATOM      4  C   UNL     1      18.125  11.071  37.315  0.00  0.00    +0.000 A 
ATOM      5  C   UNL     1      16.981  10.717  37.980  0.00  0.00    +0.000 A 
ATOM      6  C   UNL     1      17.229   9.587  38.960  0.00  0.00    +0.000 C 
ATOM      7  C   UNL     1      18.345  10.076  39.861  0.00  0.00    +0.000 C 
ATOM      8  C   UNL     1      19.596  10.411  39.111  0.00  0.00    +0.000 C 
ATOM      9  C   UNL     1      19.419  10.348  37.610  0.00  0.00    +0.000 C 
ENDROOT
BRANCH   1  11
ATOM     10  N   UNL     1      13.551  10.868  38.875  0.00  0.00    +0.000 NA
ATOM     11  C   UNL     1      14.576  11.111  38.346  0.00  0.00    +0.000 C 
ENDBRANCH   1  11
BRANCH   2  12
ATOM     12  N   UNL     1      14.986  13.246  36.180  0.00  0.00    +0.000 NA
BRANCH  12  13
ATOM     13  C   UNL     1      13.840  12.886  35.426  0.00  0.00    +0.000 C 
BRANCH  13  14
ATOM     14  C   UNL     1      14.152  13.032  33.981  0.00  0.00    +0.000 A 
ATOM     15  C   UNL     1      14.992  12.094  33.391  0.00  0.00    +0.000 A 
ATOM     16  C   UNL     1      15.269  12.244  32.032  0.00  0.00    +0.000 A 
ATOM     17  C   UNL     1      14.728  13.282  31.307  0.00  0.00    +0.000 A 
ATOM     18  O   UNL     1      15.052  13.362  29.960  0.00  0.00    +0.000 OA
ATOM     19  C   UNL     1      13.894  14.213  31.897  0.00  0.00    +0.000 A 
ATOM     20  C   UNL     1      13.626  14.062  33.230  0.00  0.00    +0.000 A 
ENDBRANCH  13  14
ENDBRANCH  12  13
ENDBRANCH   2  12
TORSDOF 4
ENDMDL
MODEL 6
REMARK VINA RESULT:      -6.1     18.638     20.596
REMARK  Name = 
REMARK  4 active torsions:
REMARK  status: ('A' for Active; 'I' for Inactive)
REMARK    1  A    between atoms: C_2  and  C_3
REMARK    2  A    between atoms: C_4  and  N_5
REMARK    3  A    between atoms: N_5  and  C_6
REMARK    4  A    between atoms: C_6  and  C_7
REMARK                            x       y       z     vdW  Elec       q    Type
REMARK                         _______ _______ _______ _____ _____    ______ ____
ROOT
ATOM      1  C   UNL     1      30.145  22.766  27.127  0.00  0.00    +0.000 A 
ATOM      2  C   UNL     1      28.791  22.868  27.246  0.00  0.00    +0.000 A 
ATOM      3  S   UNL     1      28.562  22.877  28.958  0.00  0.00    +0.000 S 
ATOM      4  C   UNL     1      30.191  22.751  29.446  0.00  0.00    +0.000 A 
ATOM      5  C   UNL     1      30.865  22.706  28.253  0.00  0.00    +0.000 A 
ATOM      6  C   UNL     1      32.363  22.593  28.460  0.00  0.00    +0.000 C 
ATOM      7  C   UNL     1      32.556  21.367  29.329  0.00  0.00    +0.000 C 
ATOM      8  C   UNL     1      31.846  21.466  30.643  0.00  0.00    +0.000 C 
ATOM      9  C   UNL     1      30.960  22.688  30.745  0.00  0.00    +0.000 C 
ENDROOT
BRANCH   1  11
ATOM     10  N   UNL     1      31.255  22.663  24.728  0.00  0.00    +0.000 NA
ATOM     11  C   UNL     1      30.748  22.706  25.792  0.00  0.00    +0.000 C 
ENDBRANCH   1  11
BRANCH   2  12
ATOM     12  N   UNL     1      27.735  22.969  26.316  0.00  0.00    +0.000 NA
BRANCH  12  13
ATOM     13  C   UNL     1      27.262  24.154  25.697  0.00  0.00    +0.000 C 
BRANCH  13  14
ATOM     14  C   UNL     1      27.933  24.308  24.380  0.00  0.00    +0.000 A 
ATOM     15  C   UNL     1      27.709  23.338  23.409  0.00  0.00    +0.000 A 
ATOM     16  C   UNL     1      28.343  23.503  22.178  0.00  0.00    +0.000 A 
ATOM     17  C   UNL     1      29.157  24.587  21.938  0.00  0.00    +0.000 A 
ATOM     18  O   UNL     1      29.752  24.679  20.687  0.00  0.00    +0.000 OA
ATOM     19  C   UNL     1      29.378  25.550  22.906  0.00  0.00    +0.000 A 
ATOM     20  C   UNL     1      28.754  25.382  24.112  0.00  0.00    +0.000 A 
ENDBRANCH  13  14
ENDBRANCH  12  13
ENDBRANCH   2  12
TORSDOF 4
ENDMDL
MODEL 7
REMARK VINA RESULT:      -6.1     18.768     20.860
REMARK  Name = 
REMARK  4 active torsions:
REMARK  status: ('A' for Active; 'I' for Inactive)
REMARK    1  A    between atoms: C_2  and  C_3
REMARK    2  A    between atoms: C_4  and  N_5
REMARK    3  A    between atoms: N_5  and  C_6
REMARK    4  A    between atoms: C_6  and  C_7
REMARK                            x       y       z     vdW  Elec       q    Type
REMARK                         _______ _______ _______ _____ _____    ______ ____
ROOT
ATOM      1  C   UNL     1      33.795   1.893  35.424  0.00  0.00    +0.000 A 
ATOM      2  C   UNL     1      33.499   1.469  34.163  0.00  0.00    +0.000 A 
ATOM      3  S   UNL     1      33.668   2.912  33.230  0.00  0.00    +0.000 S 
ATOM      4  C   UNL     1      34.107   3.988  34.478  0.00  0.00    +0.000 A 
ATOM      5  C   UNL     1      34.108   3.184  35.588  0.00  0.00    +0.000 A 
ATOM      6  C   UNL     1      34.481   3.957  36.839  0.00  0.00    +0.000 C 
ATOM      7  C   UNL     1      33.498   5.108  36.906  0.00  0.00    +0.000 C 
ATOM      8  C   UNL     1      33.553   5.993  35.701  0.00  0.00    +0.000 C 
ATOM      9  C   UNL     1      34.453   5.453  34.611  0.00  0.00    +0.000 C 
ENDROOT
BRANCH   1  11
ATOM     10  N   UNL     1      33.720   0.182  37.439  0.00  0.00    +0.000 NA
ATOM     11  C   UNL     1      33.742   0.940  36.536  0.00  0.00    +0.000 C 
ENDBRANCH   1  11
BRANCH   2  12
ATOM     12  N   UNL     1      33.151   0.218  33.612  0.00  0.00    +0.000 NA
BRANCH  12  13
ATOM     13  C   UNL     1      34.031  -0.858  33.329  0.00  0.00    +0.000 C 
BRANCH  13  14
ATOM     14  C   UNL     1      33.388  -2.128  33.757  0.00  0.00    +0.000 A 
ATOM     15  C   UNL     1      32.518  -2.092  34.842  0.00  0.00    +0.000 A 
ATOM     16  C   UNL     1      31.919  -3.292  35.224  0.00  0.00    +0.000 A 
ATOM     17  C   UNL     1      32.183  -4.464  34.550  0.00  0.00    +0.000 A 
ATOM     18  O   UNL     1      31.547  -5.616  34.992  0.00  0.00    +0.000 OA
ATOM     19  C   UNL     1      33.048  -4.495  33.472  0.00  0.00    +0.000 A 
ATOM     20  C   UNL     1      33.633  -3.316  33.102  0.00  0.00    +0.000 A 
ENDBRANCH  13  14
ENDBRANCH  12  13
ENDBRANCH   2  12
TORSDOF 4
ENDMDL
MODEL 8
REMARK VINA RESULT:      -6.0      4.156      5.555
REMARK  Name = 
REMARK  4 active torsions:
REMARK  status: ('A' for Active; 'I' for Inactive)
REMARK    1  A    between atoms: C_2  and  C_3
REMARK    2  A    between atoms: C_4  and  N_5
REMARK    3  A    between atoms: N_5  and  C_6
REMARK    4  A    between atoms: C_6  and  C_7
REMARK                            x       y       z     vdW  Elec       q    Type
REMARK                         _______ _______ _______ _____ _____    ______ ____
ROOT
ATOM      1  C   UNL     1      15.682  10.484  38.925  0.00  0.00    +0.000 A 
ATOM      2  C   UNL     1      16.726  10.656  38.064  0.00  0.00    +0.000 A 
ATOM      3  S   UNL     1      15.994  11.500  36.748  0.00  0.00    +0.000 S 
ATOM      4  C   UNL     1      14.400  11.598  37.345  0.00  0.00    +0.000 A 
ATOM      5  C   UNL     1      14.489  10.967  38.558  0.00  0.00    +0.000 A 
ATOM      6  C   UNL     1      13.153  10.942  39.276  0.00  0.00    +0.000 C 
ATOM      7  C   UNL     1      12.189  10.289  38.306  0.00  0.00    +0.000 C 
ATOM      8  C   UNL     1      12.079  11.027  37.009  0.00  0.00    +0.000 C 
ATOM      9  C   UNL     1      13.074  12.160  36.887  0.00  0.00    +0.000 C 
ENDROOT
BRANCH   1  11
ATOM     10  N   UNL     1      16.086   9.183  41.192  0.00  0.00    +0.000 NA
ATOM     11  C   UNL     1      15.899   9.772  40.188  0.00  0.00    +0.000 C 
ENDBRANCH   1  11
BRANCH   2  12
ATOM     12  N   UNL     1      18.092  10.310  38.110  0.00  0.00    +0.000 NA
BRANCH  12  13
ATOM     13  C   UNL     1      18.876   9.808  37.039  0.00  0.00    +0.000 C 
BRANCH  13  14
ATOM     14  C   UNL     1      20.273  10.286  37.202  0.00  0.00    +0.000 A 
ATOM     15  C   UNL     1      21.276   9.646  36.483  0.00  0.00    +0.000 A 
ATOM     16  C   UNL     1      22.581  10.114  36.644  0.00  0.00    +0.000 A 
ATOM     17  C   UNL     1      22.858  11.168  37.486  0.00  0.00    +0.000 A 
ATOM     18  O   UNL     1      24.181  11.573  37.592  0.00  0.00    +0.000 OA
ATOM     19  C   UNL     1      21.857  11.801  38.200  0.00  0.00    +0.000 A 
ATOM     20  C   UNL     1      20.581  11.339  38.038  0.00  0.00    +0.000 A 
ENDBRANCH  13  14
ENDBRANCH  12  13
ENDBRANCH   2  12
TORSDOF 4
ENDMDL
MODEL 9
REMARK VINA RESULT:      -6.0      2.448      3.446
REMARK  Name = 
REMARK  4 active torsions:
REMARK  status: ('A' for Active; 'I' for Inactive)
REMARK    1  A    between atoms: C_2  and  C_3
REMARK    2  A    between atoms: C_4  and  N_5
REMARK    3  A    between atoms: N_5  and  C_6
REMARK    4  A    between atoms: C_6  and  C_7
REMARK                            x       y       z     vdW  Elec       q    Type
REMARK                         _______ _______ _______ _____ _____    ______ ____
ROOT
ATOM      1  C   UNL     1      15.665  11.452  35.035  0.00  0.00    +0.000 A 
ATOM      2  C   UNL     1      16.613  10.540  35.393  0.00  0.00    +0.000 A 
ATOM      3  S   UNL     1      17.343  10.141  33.880  0.00  0.00    +0.000 S 
ATOM      4  C   UNL     1      16.417  11.147  32.862  0.00  0.00    +0.000 A 
ATOM      5  C   UNL     1      15.563  11.765  33.737  0.00  0.00    +0.000 A 
ATOM      6  C   UNL     1      14.630  12.726  33.026  0.00  0.00    +0.000 C 
ATOM      7  C   UNL     1      13.937  11.899  31.963  0.00  0.00    +0.000 C 
ATOM      8  C   UNL     1      14.892  11.275  30.995  0.00  0.00    +0.000 C 
ATOM      9  C   UNL     1      16.341  11.467  31.387  0.00  0.00    +0.000 C 
ENDROOT
BRANCH   1  11
ATOM     10  N   UNL     1      14.082  12.475  36.890  0.00  0.00    +0.000 NA
ATOM     11  C   UNL     1      14.796  12.030  36.063  0.00  0.00    +0.000 C 
ENDBRANCH   1  11
BRANCH   2  12
ATOM     12  N   UNL     1      17.017   9.988  36.626  0.00  0.00    +0.000 NA
BRANCH  12  13
ATOM     13  C   UNL     1      17.951  10.545  37.538  0.00  0.00    +0.000 C 
BRANCH  13  14
ATOM     14  C   UNL     1      17.573  10.139  38.917  0.00  0.00    +0.000 A 
ATOM     15  C   UNL     1      16.221  10.040  39.227  0.00  0.00    +0.000 A 
ATOM     16  C   UNL     1      15.887   9.650  40.524  0.00  0.00    +0.000 A 
ATOM     17  C   UNL     1      16.863   9.375  41.457  0.00  0.00    +0.000 A 
ATOM     18  O   UNL     1      16.448   8.994  42.726  0.00  0.00    +0.000 OA
ATOM     19  C   UNL     1      18.205   9.475  41.144  0.00  0.00    +0.000 A 
ATOM     20  C   UNL     1      18.528   9.858  39.871  0.00  0.00    +0.000 A 
ENDBRANCH  13  14
ENDBRANCH  12  13
ENDBRANCH   2  12
TORSDOF 4
ENDMDL
MODEL 10
REMARK VINA RESULT:      -5.9     16.986     19.140
REMARK  Name = 
REMARK  4 active torsions:
REMARK  status: ('A' for Active; 'I' for Inactive)
REMARK    1  A    between atoms: C_2  and  C_3
REMARK    2  A    between atoms: C_4  and  N_5
REMARK    3  A    between atoms: N_5  and  C_6
REMARK    4  A    between atoms: C_6  and  C_7
REMARK                            x       y       z     vdW  Elec       q    Type
REMARK                         _______ _______ _______ _____ _____    ______ ____
ROOT
ATOM      1  C   UNL     1      25.543  24.759  28.389  0.00  0.00    +0.000 A 
ATOM      2  C   UNL     1      25.851  24.540  27.078  0.00  0.00    +0.000 A 
ATOM      3  S   UNL     1      25.229  25.952  26.303  0.00  0.00    +0.000 S 
ATOM      4  C   UNL     1      24.608  26.757  27.672  0.00  0.00    +0.000 A 
ATOM      5  C   UNL     1      24.906  25.896  28.695  0.00  0.00    +0.000 A 
ATOM      6  C   UNL     1      24.433  26.429  30.034  0.00  0.00    +0.000 C 
ATOM      7  C   UNL     1      22.952  26.694  29.858  0.00  0.00    +0.000 C 
ATOM      8  C   UNL     1      22.660  27.674  28.764  0.00  0.00    +0.000 C 
ATOM      9  C   UNL     1      23.890  28.054  27.968  0.00  0.00    +0.000 C 
ENDROOT
BRANCH   1  11
ATOM     10  N   UNL     1      26.161  22.937  30.203  0.00  0.00    +0.000 NA
ATOM     11  C   UNL     1      25.898  23.750  29.391  0.00  0.00    +0.000 C 
ENDBRANCH   1  11
BRANCH   2  12
ATOM     12  N   UNL     1      26.512  23.499  26.394  0.00  0.00    +0.000 NA
BRANCH  12  13
ATOM     13  C   UNL     1      26.090  22.871  25.194  0.00  0.00    +0.000 C 
BRANCH  13  14
ATOM     14  C   UNL     1      27.016  23.259  24.099  0.00  0.00    +0.000 A 
ATOM     15  C   UNL     1      28.383  23.130  24.316  0.00  0.00    +0.000 A 
ATOM     16  C   UNL     1      29.236  23.493  23.273  0.00  0.00    +0.000 A 
ATOM     17  C   UNL     1      28.737  23.961  22.078  0.00  0.00    +0.000 A 
ATOM     18  O   UNL     1      29.651  24.302  21.090  0.00  0.00    +0.000 OA
ATOM     19  C   UNL     1      27.377  24.089  21.867  0.00  0.00    +0.000 A 
ATOM     20  C   UNL     1      26.545  23.732  22.892  0.00  0.00    +0.000 A 
ENDBRANCH  13  14
ENDBRANCH  12  13
ENDBRANCH   2  12
TORSDOF 4
ENDMDL
