MODEL 1
REMARK VINA RESULT:      -8.5      0.000      0.000
REMARK  Name = 
REMARK  7 active torsions:
REMARK  status: ('A' for Active; 'I' for Inactive)
REMARK    1  A    between atoms: C_2  and  O_3
REMARK    2  A    between atoms: O_3  and  C_4
REMARK    3  A    between atoms: C_9  and  N_10
REMARK    4  A    between atoms: N_10  and  C_11
REMARK    5  A    between atoms: C_12  and  S_13
REMARK    6  A    between atoms: S_13  and  C_14
REMARK    7  A    between atoms: N_22  and  C_23
REMARK                            x       y       z     vdW  Elec       q    Type
REMARK                         _______ _______ _______ _____ _____    ______ ____
ROOT
ATOM      1  C   UNL     1      37.472   3.972  15.546  0.00  0.00    +0.000 C 
ATOM      2  C   UNL     1      37.727   5.029  14.798  0.00  0.00    +0.000 C 
ATOM      3  C   UNL     1      38.299   6.078  15.635  0.00  0.00    +0.000 C 
ATOM      4  O   UNL     1      38.654   7.217  15.223  0.00  0.00    +0.000 OA
ATOM      5  N   UNL     1      38.366   5.558  16.959  0.00  0.00    +0.000 N 
ATOM      6  C   UNL     1      37.851   4.233  16.924  0.00  0.00    +0.000 C 
ATOM      7  O   UNL     1      37.743   3.434  17.918  0.00  0.00    +0.000 OA
ENDROOT
BRANCH   5   8
ATOM      8  C   UNL     1      38.856   6.226  18.112  0.00  0.00    +0.000 A 
ATOM      9  C   UNL     1      40.048   5.924  18.731  0.00  0.00    +0.000 A 
ATOM     10  C   UNL     1      40.502   6.590  19.853  0.00  0.00    +0.000 A 
ATOM     11  C   UNL     1      41.807   6.228  20.497  0.00  0.00    +0.000 C 
ATOM     12  C   UNL     1      39.709   7.616  20.373  0.00  0.00    +0.000 A 
ATOM     13  C   UNL     1      38.511   7.943  19.777  0.00  0.00    +0.000 A 
ATOM     14  C   UNL     1      37.652   9.026  20.311  0.00  0.00    +0.000 C 
ATOM     15  C   UNL     1      38.085   7.258  18.656  0.00  0.00    +0.000 A 
ENDBRANCH   5   8
BRANCH   1  16
ATOM     16  N   UNL     1      36.911   2.747  15.094  0.00  0.00    +0.000 NA
BRANCH  16  22
ATOM     17  C   UNL     1      36.984   0.388  15.423  0.00  0.00    +0.000 A 
ATOM     18  C   UNL     1      37.670  -0.816  15.382  0.00  0.00    +0.000 A 
ATOM     19  C   UNL     1      38.983  -0.853  14.963  0.00  0.00    +0.000 A 
ATOM     20  C   UNL     1      39.642   0.297  14.579  0.00  0.00    +0.000 A 
ATOM     21  C   UNL     1      38.971   1.501  14.615  0.00  0.00    +0.000 A 
ATOM     22  C   UNL     1      37.657   1.534  15.035  0.00  0.00    +0.000 A 
BRANCH  17  23
ATOM     23  O   UNL     1      35.644   0.455  15.846  0.00  0.00    +0.000 OA
BRANCH  23  25
ATOM     24  C   UNL     1      34.564  -1.048  17.297  0.00  0.00    +0.000 C 
ATOM     25  C   UNL     1      35.379   0.224  17.219  0.00  0.00    +0.000 C 
ENDBRANCH  23  25
ENDBRANCH  17  23
ENDBRANCH  16  22
ENDBRANCH   1  16
BRANCH   2  26
ATOM     26  S   UNL     1      37.394   5.090  13.026  0.00  0.00    +0.000 S 
BRANCH  26  27
ATOM     27  C   UNL     1      35.836   5.918  12.802  0.00  0.00    +0.000 A 
ATOM     28  C   UNL     1      35.413   6.391  11.578  0.00  0.00    +0.000 A 
ATOM     29  C   UNL     1      34.174   7.037  11.461  0.00  0.00    +0.000 A 
ATOM     30  C   UNL     1      33.363   7.210  12.559  0.00  0.00    +0.000 A 
ATOM     31  C   UNL     1      33.778   6.742  13.783  0.00  0.00    +0.000 A 
ATOM     32  C   UNL     1      34.998   6.110  13.874  0.00  0.00    +0.000 A 
ENDBRANCH  26  27
ENDBRANCH   2  26
TORSDOF 7
ENDMDL
MODEL 2
REMARK VINA RESULT:      -8.2      0.869      2.184
REMARK  Name = 
REMARK  7 active torsions:
REMARK  status: ('A' for Active; 'I' for Inactive)
REMARK    1  A    between atoms: C_2  and  O_3
REMARK    2  A    between atoms: O_3  and  C_4
REMARK    3  A    between atoms: C_9  and  N_10
REMARK    4  A    between atoms: N_10  and  C_11
REMARK    5  A    between atoms: C_12  and  S_13
REMARK    6  A    between atoms: S_13  and  C_14
REMARK    7  A    between atoms: N_22  and  C_23
REMARK                            x       y       z     vdW  Elec       q    Type
REMARK                         _______ _______ _______ _____ _____    ______ ____
ROOT
ATOM      1  C   UNL     1      37.578   4.197  15.313  0.00  0.00    +0.000 C 
ATOM      2  C   UNL     1      37.781   5.315  14.642  0.00  0.00    +0.000 C 
ATOM      3  C   UNL     1      38.307   6.327  15.551  0.00  0.00    +0.000 C 
ATOM      4  O   UNL     1      38.609   7.508  15.222  0.00  0.00    +0.000 OA
ATOM      5  N   UNL     1      38.405   5.718  16.835  0.00  0.00    +0.000 N 
ATOM      6  C   UNL     1      37.951   4.376  16.706  0.00  0.00    +0.000 C 
ATOM      7  O   UNL     1      37.885   3.504  17.641  0.00  0.00    +0.000 OA
ENDROOT
BRANCH   5   8
ATOM      8  C   UNL     1      38.869   6.324  18.032  0.00  0.00    +0.000 A 
ATOM      9  C   UNL     1      40.046   5.986  18.661  0.00  0.00    +0.000 A 
ATOM     10  C   UNL     1      40.475   6.592  19.826  0.00  0.00    +0.000 A 
ATOM     11  C   UNL     1      41.765   6.193  20.481  0.00  0.00    +0.000 C 
ATOM     12  C   UNL     1      39.672   7.592  20.381  0.00  0.00    +0.000 A 
ATOM     13  C   UNL     1      38.489   7.953  19.775  0.00  0.00    +0.000 A 
ATOM     14  C   UNL     1      37.620   9.010  20.345  0.00  0.00    +0.000 C 
ATOM     15  C   UNL     1      38.087   7.328  18.610  0.00  0.00    +0.000 A 
ENDBRANCH   5   8
BRANCH   1  16
ATOM     16  N   UNL     1      37.072   2.983  14.776  0.00  0.00    +0.000 NA
BRANCH  16  22
ATOM     17  C   UNL     1      37.065   0.809  15.752  0.00  0.00    +0.000 A 
ATOM     18  C   UNL     1      36.450  -0.168  16.519  0.00  0.00    +0.000 A 
ATOM     19  C   UNL     1      35.212   0.066  17.079  0.00  0.00    +0.000 A 
ATOM     20  C   UNL     1      34.560   1.268  16.890  0.00  0.00    +0.000 A 
ATOM     21  C   UNL     1      35.161   2.248  16.130  0.00  0.00    +0.000 A 
ATOM     22  C   UNL     1      36.400   2.009  15.571  0.00  0.00    +0.000 A 
BRANCH  17  23
ATOM     23  O   UNL     1      38.328   0.597  15.170  0.00  0.00    +0.000 OA
BRANCH  23  25
ATOM     24  C   UNL     1      38.151  -0.794  13.281  0.00  0.00    +0.000 C 
ATOM     25  C   UNL     1      38.627  -0.711  14.714  0.00  0.00    +0.000 C 
ENDBRANCH  23  25
ENDBRANCH  17  23
ENDBRANCH  16  22
ENDBRANCH   1  16
BRANCH   2  26
ATOM     26  S   UNL     1      37.437   5.487  12.880  0.00  0.00    +0.000 S 
BRANCH  26  27
ATOM     27  C   UNL     1      35.794   6.148  12.717  0.00  0.00    +0.000 A 
ATOM     28  C   UNL     1      34.937   6.289  13.787  0.00  0.00    +0.000 A 
ATOM     29  C   UNL     1      33.651   6.817  13.599  0.00  0.00    +0.000 A 
ATOM     30  C   UNL     1      33.224   7.201  12.348  0.00  0.00    +0.000 A 
ATOM     31  C   UNL     1      34.072   7.063  11.275  0.00  0.00    +0.000 A 
ATOM     32  C   UNL     1      35.330   6.543  11.484  0.00  0.00    +0.000 A 
ENDBRANCH  26  27
ENDBRANCH   2  26
TORSDOF 7
ENDMDL
MODEL 3
REMARK VINA RESULT:      -7.9      2.678      5.914
REMARK  Name = 
REMARK  7 active torsions:
REMARK  status: ('A' for Active; 'I' for Inactive)
REMARK    1  A    between atoms: C_2  and  O_3
REMARK    2  A    between atoms: O_3  and  C_4
REMARK    3  A    between atoms: C_9  and  N_10
REMARK    4  A    between atoms: N_10  and  C_11
REMARK    5  A    between atoms: C_12  and  S_13
REMARK    6  A    between atoms: S_13  and  C_14
REMARK    7  A    between atoms: N_22  and  C_23
REMARK                            x       y       z     vdW  Elec       q    Type
REMARK                         _______ _______ _______ _____ _____    ______ ____
ROOT
ATOM      1  C   UNL     1      36.913   0.607  15.367  0.00  0.00    +0.000 C 
ATOM      2  C   UNL     1      37.547   0.862  14.238  0.00  0.00    +0.000 C 
ATOM      3  C   UNL     1      37.991   2.251  14.245  0.00  0.00    +0.000 C 
ATOM      4  O   UNL     1      38.629   2.810  13.310  0.00  0.00    +0.000 OA
ATOM      5  N   UNL     1      37.569   2.814  15.483  0.00  0.00    +0.000 N 
ATOM      6  C   UNL     1      36.889   1.794  16.204  0.00  0.00    +0.000 C 
ATOM      7  O   UNL     1      36.359   1.909  17.364  0.00  0.00    +0.000 OA
ENDROOT
BRANCH   5   8
ATOM      8  C   UNL     1      37.780   4.144  15.930  0.00  0.00    +0.000 A 
ATOM      9  C   UNL     1      37.386   5.264  15.232  0.00  0.00    +0.000 A 
ATOM     10  C   UNL     1      37.605   6.549  15.690  0.00  0.00    +0.000 A 
ATOM     11  C   UNL     1      37.160   7.743  14.898  0.00  0.00    +0.000 C 
ATOM     12  C   UNL     1      38.254   6.708  16.917  0.00  0.00    +0.000 A 
ATOM     13  C   UNL     1      38.660   5.608  17.639  0.00  0.00    +0.000 A 
ATOM     14  C   UNL     1      39.352   5.751  18.942  0.00  0.00    +0.000 C 
ATOM     15  C   UNL     1      38.427   4.335  17.154  0.00  0.00    +0.000 A 
ENDBRANCH   5   8
BRANCH   1  16
ATOM     16  N   UNL     1      36.334  -0.637  15.735  0.00  0.00    +0.000 NA
BRANCH  16  22
ATOM     17  C   UNL     1      36.659  -2.994  15.587  0.00  0.00    +0.000 A 
ATOM     18  C   UNL     1      37.387  -4.133  15.891  0.00  0.00    +0.000 A 
ATOM     19  C   UNL     1      38.529  -4.043  16.658  0.00  0.00    +0.000 A 
ATOM     20  C   UNL     1      38.972  -2.827  17.138  0.00  0.00    +0.000 A 
ATOM     21  C   UNL     1      38.257  -1.686  16.842  0.00  0.00    +0.000 A 
ATOM     22  C   UNL     1      37.114  -1.780  16.075  0.00  0.00    +0.000 A 
BRANCH  17  23
ATOM     23  O   UNL     1      35.490  -3.056  14.806  0.00  0.00    +0.000 OA
BRANCH  23  25
ATOM     24  C   UNL     1      33.837  -4.668  14.359  0.00  0.00    +0.000 C 
ATOM     25  C   UNL     1      34.353  -3.678  15.380  0.00  0.00    +0.000 C 
ENDBRANCH  23  25
ENDBRANCH  17  23
ENDBRANCH  16  22
ENDBRANCH   1  16
BRANCH   2  26
ATOM     26  S   UNL     1      37.785  -0.367  12.939  0.00  0.00    +0.000 S 
BRANCH  26  27
ATOM     27  C   UNL     1      39.303  -1.227  13.287  0.00  0.00    +0.000 A 
ATOM     28  C   UNL     1      40.288  -0.702  14.094  0.00  0.00    +0.000 A 
ATOM     29  C   UNL     1      41.466  -1.426  14.334  0.00  0.00    +0.000 A 
ATOM     30  C   UNL     1      41.657  -2.666  13.769  0.00  0.00    +0.000 A 
ATOM     31  C   UNL     1      40.679  -3.196  12.961  0.00  0.00    +0.000 A 
ATOM     32  C   UNL     1      39.531  -2.468  12.741  0.00  0.00    +0.000 A 
ENDBRANCH  26  27
ENDBRANCH   2  26
TORSDOF 7
ENDMDL
MODEL 4
REMARK VINA RESULT:      -7.9      4.842      7.786
REMARK  Name = 
REMARK  7 active torsions:
REMARK  status: ('A' for Active; 'I' for Inactive)
REMARK    1  A    between atoms: C_2  and  O_3
REMARK    2  A    between atoms: O_3  and  C_4
REMARK    3  A    between atoms: C_9  and  N_10
REMARK    4  A    between atoms: N_10  and  C_11
REMARK    5  A    between atoms: C_12  and  S_13
REMARK    6  A    between atoms: S_13  and  C_14
REMARK    7  A    between atoms: N_22  and  C_23
REMARK                            x       y       z     vdW  Elec       q    Type
REMARK                         _______ _______ _______ _____ _____    ______ ____
ROOT
ATOM      1  C   UNL     1      38.688  -2.123  14.816  0.00  0.00    +0.000 C 
ATOM      2  C   UNL     1      38.644  -1.117  13.963  0.00  0.00    +0.000 C 
ATOM      3  C   UNL     1      40.001  -0.798  13.535  0.00  0.00    +0.000 C 
ATOM      4  O   UNL     1      40.305   0.117  12.719  0.00  0.00    +0.000 OA
ATOM      5  N   UNL     1      40.871  -1.704  14.207  0.00  0.00    +0.000 N 
ATOM      6  C   UNL     1      40.062  -2.547  15.018  0.00  0.00    +0.000 C 
ATOM      7  O   UNL     1      40.475  -3.492  15.777  0.00  0.00    +0.000 OA
ENDROOT
BRANCH   5   8
ATOM      8  C   UNL     1      42.284  -1.767  14.097  0.00  0.00    +0.000 A 
ATOM      9  C   UNL     1      43.149  -0.952  14.793  0.00  0.00    +0.000 A 
ATOM     10  C   UNL     1      44.522  -1.035  14.668  0.00  0.00    +0.000 A 
ATOM     11  C   UNL     1      45.430  -0.127  15.445  0.00  0.00    +0.000 C 
ATOM     12  C   UNL     1      45.046  -1.991  13.794  0.00  0.00    +0.000 A 
ATOM     13  C   UNL     1      44.208  -2.821  13.084  0.00  0.00    +0.000 A 
ATOM     14  C   UNL     1      44.740  -3.842  12.151  0.00  0.00    +0.000 C 
ATOM     15  C   UNL     1      42.838  -2.714  13.231  0.00  0.00    +0.000 A 
ENDBRANCH   5   8
BRANCH   1  16
ATOM     16  N   UNL     1      37.569  -2.723  15.455  0.00  0.00    +0.000 NA
BRANCH  16  22
ATOM     17  C   UNL     1      35.416  -2.166  16.311  0.00  0.00    +0.000 A 
ATOM     18  C   UNL     1      34.616  -1.525  17.245  0.00  0.00    +0.000 A 
ATOM     19  C   UNL     1      35.189  -0.796  18.265  0.00  0.00    +0.000 A 
ATOM     20  C   UNL     1      36.560  -0.686  18.380  0.00  0.00    +0.000 A 
ATOM     21  C   UNL     1      37.366  -1.318  17.457  0.00  0.00    +0.000 A 
ATOM     22  C   UNL     1      36.789  -2.047  16.438  0.00  0.00    +0.000 A 
BRANCH  17  23
ATOM     23  O   UNL     1      34.858  -2.917  15.260  0.00  0.00    +0.000 OA
BRANCH  23  25
ATOM     24  C   UNL     1      33.772  -4.768  14.297  0.00  0.00    +0.000 C 
ATOM     25  C   UNL     1      34.393  -4.221  15.564  0.00  0.00    +0.000 C 
ENDBRANCH  23  25
ENDBRANCH  17  23
ENDBRANCH  16  22
ENDBRANCH   1  16
BRANCH   2  26
ATOM     26  S   UNL     1      37.109  -0.316  13.456  0.00  0.00    +0.000 S 
BRANCH  26  27
ATOM     27  C   UNL     1      36.813   1.032  14.578  0.00  0.00    +0.000 A 
ATOM     28  C   UNL     1      37.805   1.902  14.977  0.00  0.00    +0.000 A 
ATOM     29  C   UNL     1      37.513   2.948  15.864  0.00  0.00    +0.000 A 
ATOM     30  C   UNL     1      36.238   3.123  16.350  0.00  0.00    +0.000 A 
ATOM     31  C   UNL     1      35.243   2.260  15.958  0.00  0.00    +0.000 A 
ATOM     32  C   UNL     1      35.552   1.241  15.085  0.00  0.00    +0.000 A 
ENDBRANCH  26  27
ENDBRANCH   2  26
TORSDOF 7
ENDMDL
MODEL 5
REMARK VINA RESULT:      -7.9      2.738      5.703
REMARK  Name = 
REMARK  7 active torsions:
REMARK  status: ('A' for Active; 'I' for Inactive)
REMARK    1  A    between atoms: C_2  and  O_3
REMARK    2  A    between atoms: O_3  and  C_4
REMARK    3  A    between atoms: C_9  and  N_10
REMARK    4  A    between atoms: N_10  and  C_11
REMARK    5  A    between atoms: C_12  and  S_13
REMARK    6  A    between atoms: S_13  and  C_14
REMARK    7  A    between atoms: N_22  and  C_23
REMARK                            x       y       z     vdW  Elec       q    Type
REMARK                         _______ _______ _______ _____ _____    ______ ____
ROOT
ATOM      1  C   UNL     1      38.153   1.695  14.612  0.00  0.00    +0.000 C 
ATOM      2  C   UNL     1      37.188   1.477  15.486  0.00  0.00    +0.000 C 
ATOM      3  C   UNL     1      37.016   2.668  16.309  0.00  0.00    +0.000 C 
ATOM      4  O   UNL     1      36.171   2.786  17.241  0.00  0.00    +0.000 OA
ATOM      5  N   UNL     1      37.965   3.627  15.854  0.00  0.00    +0.000 N 
ATOM      6  C   UNL     1      38.691   3.033  14.785  0.00  0.00    +0.000 C 
ATOM      7  O   UNL     1      39.634   3.579  14.113  0.00  0.00    +0.000 OA
ENDROOT
BRANCH   5   8
ATOM      8  C   UNL     1      38.162   4.937  16.362  0.00  0.00    +0.000 A 
ATOM      9  C   UNL     1      37.816   6.087  15.687  0.00  0.00    +0.000 A 
ATOM     10  C   UNL     1      38.019   7.351  16.205  0.00  0.00    +0.000 A 
ATOM     11  C   UNL     1      37.628   8.578  15.436  0.00  0.00    +0.000 C 
ATOM     12  C   UNL     1      38.601   7.457  17.471  0.00  0.00    +0.000 A 
ATOM     13  C   UNL     1      38.958   6.327  18.171  0.00  0.00    +0.000 A 
ATOM     14  C   UNL     1      39.578   6.414  19.515  0.00  0.00    +0.000 C 
ATOM     15  C   UNL     1      38.742   5.076  17.626  0.00  0.00    +0.000 A 
ENDBRANCH   5   8
BRANCH   1  16
ATOM     16  N   UNL     1      38.615   0.773  13.634  0.00  0.00    +0.000 NA
BRANCH  16  22
ATOM     17  C   UNL     1      39.417  -1.463  13.830  0.00  0.00    +0.000 A 
ATOM     18  C   UNL     1      40.452  -2.360  14.049  0.00  0.00    +0.000 A 
ATOM     19  C   UNL     1      41.729  -1.901  14.290  0.00  0.00    +0.000 A 
ATOM     20  C   UNL     1      42.007  -0.549  14.322  0.00  0.00    +0.000 A 
ATOM     21  C   UNL     1      40.987   0.353  14.106  0.00  0.00    +0.000 A 
ATOM     22  C   UNL     1      39.710  -0.110  13.865  0.00  0.00    +0.000 A 
BRANCH  17  23
ATOM     23  O   UNL     1      38.104  -1.903  13.581  0.00  0.00    +0.000 OA
BRANCH  23  25
ATOM     24  C   UNL     1      36.632  -3.620  14.226  0.00  0.00    +0.000 C 
ATOM     25  C   UNL     1      37.895  -3.300  13.458  0.00  0.00    +0.000 C 
ENDBRANCH  23  25
ENDBRANCH  17  23
ENDBRANCH  16  22
ENDBRANCH   1  16
BRANCH   2  26
ATOM     26  S   UNL     1      36.273  -0.074  15.583  0.00  0.00    +0.000 S 
BRANCH  26  27
ATOM     27  C   UNL     1      36.776  -0.900  17.075  0.00  0.00    +0.000 A 
ATOM     28  C   UNL     1      36.096  -0.766  18.266  0.00  0.00    +0.000 A 
ATOM     29  C   UNL     1      36.538  -1.442  19.413  0.00  0.00    +0.000 A 
ATOM     30  C   UNL     1      37.654  -2.246  19.370  0.00  0.00    +0.000 A 
ATOM     31  C   UNL     1      38.338  -2.384  18.186  0.00  0.00    +0.000 A 
ATOM     32  C   UNL     1      37.885  -1.712  17.072  0.00  0.00    +0.000 A 
ENDBRANCH  26  27
ENDBRANCH   2  26
TORSDOF 7
ENDMDL
MODEL 6
REMARK VINA RESULT:      -7.9      1.453      5.906
REMARK  Name = 
REMARK  7 active torsions:
REMARK  status: ('A' for Active; 'I' for Inactive)
REMARK    1  A    between atoms: C_2  and  O_3
REMARK    2  A    between atoms: O_3  and  C_4
REMARK    3  A    between atoms: C_9  and  N_10
REMARK    4  A    between atoms: N_10  and  C_11
REMARK    5  A    between atoms: C_12  and  S_13
REMARK    6  A    between atoms: S_13  and  C_14
REMARK    7  A    between atoms: N_22  and  C_23
REMARK                            x       y       z     vdW  Elec       q    Type
REMARK                         _______ _______ _______ _____ _____    ______ ____
ROOT
ATOM      1  C   UNL     1      37.349   5.002  14.872  0.00  0.00    +0.000 C 
ATOM      2  C   UNL     1      37.182   3.914  15.600  0.00  0.00    +0.000 C 
ATOM      3  C   UNL     1      37.660   4.170  16.954  0.00  0.00    +0.000 C 
ATOM      4  O   UNL     1      37.640   3.331  17.898  0.00  0.00    +0.000 OA
ATOM      5  N   UNL     1      38.131   5.513  16.979  0.00  0.00    +0.000 N 
ATOM      6  C   UNL     1      37.944   6.054  15.677  0.00  0.00    +0.000 C 
ATOM      7  O   UNL     1      38.245   7.239  15.297  0.00  0.00    +0.000 OA
ENDROOT
BRANCH   5   8
ATOM      8  C   UNL     1      38.687   6.200  18.089  0.00  0.00    +0.000 A 
ATOM      9  C   UNL     1      39.885   5.866  18.682  0.00  0.00    +0.000 A 
ATOM     10  C   UNL     1      40.404   6.551  19.763  0.00  0.00    +0.000 A 
ATOM     11  C   UNL     1      41.712   6.154  20.380  0.00  0.00    +0.000 C 
ATOM     12  C   UNL     1      39.674   7.630  20.269  0.00  0.00    +0.000 A 
ATOM     13  C   UNL     1      38.474   7.990  19.698  0.00  0.00    +0.000 A 
ATOM     14  C   UNL     1      37.682   9.130  20.218  0.00  0.00    +0.000 C 
ATOM     15  C   UNL     1      37.981   7.284  18.618  0.00  0.00    +0.000 A 
ENDBRANCH   5   8
BRANCH   1  16
ATOM     16  N   UNL     1      37.004   5.148  13.501  0.00  0.00    +0.000 NA
BRANCH  16  22
ATOM     17  C   UNL     1      35.733   6.071  11.709  0.00  0.00    +0.000 A 
ATOM     18  C   UNL     1      34.613   6.741  11.243  0.00  0.00    +0.000 A 
ATOM     19  C   UNL     1      33.638   7.158  12.124  0.00  0.00    +0.000 A 
ATOM     20  C   UNL     1      33.752   6.922  13.479  0.00  0.00    +0.000 A 
ATOM     21  C   UNL     1      34.862   6.256  13.955  0.00  0.00    +0.000 A 
ATOM     22  C   UNL     1      35.836   5.841  13.070  0.00  0.00    +0.000 A 
BRANCH  17  23
ATOM     23  O   UNL     1      36.744   5.634  10.833  0.00  0.00    +0.000 OA
BRANCH  23  25
ATOM     24  C   UNL     1      36.287   4.447   8.854  0.00  0.00    +0.000 C 
ATOM     25  C   UNL     1      36.530   5.819   9.444  0.00  0.00    +0.000 C 
ENDBRANCH  23  25
ENDBRANCH  17  23
ENDBRANCH  16  22
ENDBRANCH   1  16
BRANCH   2  26
ATOM     26  S   UNL     1      36.467   2.390  14.951  0.00  0.00    +0.000 S 
BRANCH  26  27
ATOM     27  C   UNL     1      37.753   1.160  14.935  0.00  0.00    +0.000 A 
ATOM     28  C   UNL     1      39.028   1.421  14.483  0.00  0.00    +0.000 A 
ATOM     29  C   UNL     1      40.002   0.412  14.494  0.00  0.00    +0.000 A 
ATOM     30  C   UNL     1      39.702  -0.851  14.951  0.00  0.00    +0.000 A 
ATOM     31  C   UNL     1      38.432  -1.120  15.403  0.00  0.00    +0.000 A 
ATOM     32  C   UNL     1      37.492  -0.113  15.384  0.00  0.00    +0.000 A 
ENDBRANCH  26  27
ENDBRANCH   2  26
TORSDOF 7
ENDMDL
MODEL 7
REMARK VINA RESULT:      -7.8      1.849      2.787
REMARK  Name = 
REMARK  7 active torsions:
REMARK  status: ('A' for Active; 'I' for Inactive)
REMARK    1  A    between atoms: C_2  and  O_3
REMARK    2  A    between atoms: O_3  and  C_4
REMARK    3  A    between atoms: C_9  and  N_10
REMARK    4  A    between atoms: N_10  and  C_11
REMARK    5  A    between atoms: C_12  and  S_13
REMARK    6  A    between atoms: S_13  and  C_14
REMARK    7  A    between atoms: N_22  and  C_23
REMARK                            x       y       z     vdW  Elec       q    Type
REMARK                         _______ _______ _______ _____ _____    ______ ____
ROOT
ATOM      1  C   UNL     1      37.535   4.077  15.476  0.00  0.00    +0.000 C 
ATOM      2  C   UNL     1      37.789   5.155  14.758  0.00  0.00    +0.000 C 
ATOM      3  C   UNL     1      38.348   6.185  15.626  0.00  0.00    +0.000 C 
ATOM      4  O   UNL     1      38.699   7.337  15.247  0.00  0.00    +0.000 OA
ATOM      5  N   UNL     1      38.409   5.631  16.937  0.00  0.00    +0.000 N 
ATOM      6  C   UNL     1      37.903   4.305  16.863  0.00  0.00    +0.000 C 
ATOM      7  O   UNL     1      37.793   3.479  17.836  0.00  0.00    +0.000 OA
ENDROOT
BRANCH   5   8
ATOM      8  C   UNL     1      38.887   6.272  18.109  0.00  0.00    +0.000 A 
ATOM      9  C   UNL     1      40.068   5.949  18.739  0.00  0.00    +0.000 A 
ATOM     10  C   UNL     1      40.510   6.589  19.880  0.00  0.00    +0.000 A 
ATOM     11  C   UNL     1      41.804   6.206  20.535  0.00  0.00    +0.000 C 
ATOM     12  C   UNL     1      39.716   7.609  20.411  0.00  0.00    +0.000 A 
ATOM     13  C   UNL     1      38.529   7.956  19.806  0.00  0.00    +0.000 A 
ATOM     14  C   UNL     1      37.669   9.033  20.350  0.00  0.00    +0.000 C 
ATOM     15  C   UNL     1      38.114   7.297  18.664  0.00  0.00    +0.000 A 
ENDBRANCH   5   8
BRANCH   1  16
ATOM     16  N   UNL     1      36.985   2.861  14.989  0.00  0.00    +0.000 NA
BRANCH  16  22
ATOM     17  C   UNL     1      37.018   0.497  15.289  0.00  0.00    +0.000 A 
ATOM     18  C   UNL     1      37.694  -0.713  15.269  0.00  0.00    +0.000 A 
ATOM     19  C   UNL     1      39.028  -0.757  14.925  0.00  0.00    +0.000 A 
ATOM     20  C   UNL     1      39.718   0.391  14.594  0.00  0.00    +0.000 A 
ATOM     21  C   UNL     1      39.057   1.601  14.609  0.00  0.00    +0.000 A 
ATOM     22  C   UNL     1      37.722   1.642  14.955  0.00  0.00    +0.000 A 
BRANCH  17  23
ATOM     23  O   UNL     1      35.657   0.572  15.636  0.00  0.00    +0.000 OA
BRANCH  23  25
ATOM     24  C   UNL     1      34.636  -0.816  17.238  0.00  0.00    +0.000 C 
ATOM     25  C   UNL     1      35.329   0.510  17.014  0.00  0.00    +0.000 C 
ENDBRANCH  23  25
ENDBRANCH  17  23
ENDBRANCH  16  22
ENDBRANCH   1  16
BRANCH   2  26
ATOM     26  S   UNL     1      37.468   5.260  12.986  0.00  0.00    +0.000 S 
BRANCH  26  27
ATOM     27  C   UNL     1      38.605   4.162  12.169  0.00  0.00    +0.000 A 
ATOM     28  C   UNL     1      38.191   3.148  11.333  0.00  0.00    +0.000 A 
ATOM     29  C   UNL     1      39.133   2.312  10.716  0.00  0.00    +0.000 A 
ATOM     30  C   UNL     1      40.480   2.488  10.934  0.00  0.00    +0.000 A 
ATOM     31  C   UNL     1      40.901   3.496  11.768  0.00  0.00    +0.000 A 
ATOM     32  C   UNL     1      39.958   4.306  12.362  0.00  0.00    +0.000 A 
ENDBRANCH  26  27
ENDBRANCH   2  26
TORSDOF 7
ENDMDL
MODEL 8
REMARK VINA RESULT:      -7.6      2.642      5.562
REMARK  Name = 
REMARK  7 active torsions:
REMARK  status: ('A' for Active; 'I' for Inactive)
REMARK    1  A    between atoms: C_2  and  O_3
REMARK    2  A    between atoms: O_3  and  C_4
REMARK    3  A    between atoms: C_9  and  N_10
REMARK    4  A    between atoms: N_10  and  C_11
REMARK    5  A    between atoms: C_12  and  S_13
REMARK    6  A    between atoms: S_13  and  C_14
REMARK    7  A    between atoms: N_22  and  C_23
REMARK                            x       y       z     vdW  Elec       q    Type
REMARK                         _______ _______ _______ _____ _____    ______ ____
ROOT
ATOM      1  C   UNL     1      36.817   0.994  15.271  0.00  0.00    +0.000 C 
ATOM      2  C   UNL     1      37.764   1.159  14.367  0.00  0.00    +0.000 C 
ATOM      3  C   UNL     1      38.370   2.473  14.547  0.00  0.00    +0.000 C 
ATOM      4  O   UNL     1      39.308   2.938  13.842  0.00  0.00    +0.000 OA
ATOM      5  N   UNL     1      37.704   3.088  15.645  0.00  0.00    +0.000 N 
ATOM      6  C   UNL     1      36.722   2.172  16.115  0.00  0.00    +0.000 C 
ATOM      7  O   UNL     1      35.915   2.360  17.091  0.00  0.00    +0.000 OA
ENDROOT
BRANCH   5   8
ATOM      8  C   UNL     1      37.960   4.376  16.183  0.00  0.00    +0.000 A 
ATOM      9  C   UNL     1      38.566   4.597  17.400  0.00  0.00    +0.000 A 
ATOM     10  C   UNL     1      38.804   5.862  17.901  0.00  0.00    +0.000 A 
ATOM     11  C   UNL     1      39.466   6.059  19.233  0.00  0.00    +0.000 C 
ATOM     12  C   UNL     1      38.410   6.959  17.131  0.00  0.00    +0.000 A 
ATOM     13  C   UNL     1      37.803   6.772  15.909  0.00  0.00    +0.000 A 
ATOM     14  C   UNL     1      37.376   7.919  15.074  0.00  0.00    +0.000 C 
ATOM     15  C   UNL     1      37.578   5.493  15.435  0.00  0.00    +0.000 A 
ENDBRANCH   5   8
BRANCH   1  16
ATOM     16  N   UNL     1      35.998  -0.158  15.420  0.00  0.00    +0.000 NA
BRANCH  16  22
ATOM     17  C   UNL     1      37.254  -1.684  16.753  0.00  0.00    +0.000 A 
ATOM     18  C   UNL     1      37.794  -2.943  16.961  0.00  0.00    +0.000 A 
ATOM     19  C   UNL     1      37.610  -3.940  16.027  0.00  0.00    +0.000 A 
ATOM     20  C   UNL     1      36.890  -3.712  14.872  0.00  0.00    +0.000 A 
ATOM     21  C   UNL     1      36.348  -2.463  14.653  0.00  0.00    +0.000 A 
ATOM     22  C   UNL     1      36.535  -1.468  15.590  0.00  0.00    +0.000 A 
BRANCH  17  23
ATOM     23  O   UNL     1      37.426  -0.647  17.689  0.00  0.00    +0.000 OA
BRANCH  23  25
ATOM     24  C   UNL     1      35.615  -0.441  19.175  0.00  0.00    +0.000 C 
ATOM     25  C   UNL     1      37.047  -0.908  19.029  0.00  0.00    +0.000 C 
ENDBRANCH  23  25
ENDBRANCH  17  23
ENDBRANCH  16  22
ENDBRANCH   1  16
BRANCH   2  26
ATOM     26  S   UNL     1      38.183  -0.091  13.135  0.00  0.00    +0.000 S 
BRANCH  26  27
ATOM     27  C   UNL     1      39.732  -0.820  13.617  0.00  0.00    +0.000 A 
ATOM     28  C   UNL     1      40.817  -0.069  14.013  0.00  0.00    +0.000 A 
ATOM     29  C   UNL     1      42.015  -0.699  14.383  0.00  0.00    +0.000 A 
ATOM     30  C   UNL     1      42.127  -2.070  14.356  0.00  0.00    +0.000 A 
ATOM     31  C   UNL     1      41.049  -2.826  13.961  0.00  0.00    +0.000 A 
ATOM     32  C   UNL     1      39.883  -2.186  13.603  0.00  0.00    +0.000 A 
ENDBRANCH  26  27
ENDBRANCH   2  26
TORSDOF 7
ENDMDL
MODEL 9
REMARK VINA RESULT:      -7.5      4.666      8.918
REMARK  Name = 
REMARK  7 active torsions:
REMARK  status: ('A' for Active; 'I' for Inactive)
REMARK    1  A    between atoms: C_2  and  O_3
REMARK    2  A    between atoms: O_3  and  C_4
REMARK    3  A    between atoms: C_9  and  N_10
REMARK    4  A    between atoms: N_10  and  C_11
REMARK    5  A    between atoms: C_12  and  S_13
REMARK    6  A    between atoms: S_13  and  C_14
REMARK    7  A    between atoms: N_22  and  C_23
REMARK                            x       y       z     vdW  Elec       q    Type
REMARK                         _______ _______ _______ _____ _____    ______ ____
ROOT
ATOM      1  C   UNL     1      37.632  -1.324  15.067  0.00  0.00    +0.000 C 
ATOM      2  C   UNL     1      37.915  -2.329  15.874  0.00  0.00    +0.000 C 
ATOM      3  C   UNL     1      39.291  -2.752  15.643  0.00  0.00    +0.000 C 
ATOM      4  O   UNL     1      39.871  -3.691  16.257  0.00  0.00    +0.000 OA
ATOM      5  N   UNL     1      39.816  -1.910  14.621  0.00  0.00    +0.000 N 
ATOM      6  C   UNL     1      38.787  -1.004  14.245  0.00  0.00    +0.000 C 
ATOM      7  O   UNL     1      38.869  -0.089  13.354  0.00  0.00    +0.000 OA
ENDROOT
BRANCH   5   8
ATOM      8  C   UNL     1      41.123  -1.955  14.070  0.00  0.00    +0.000 A 
ATOM      9  C   UNL     1      41.493  -2.774  13.026  0.00  0.00    +0.000 A 
ATOM     10  C   UNL     1      42.773  -2.797  12.508  0.00  0.00    +0.000 A 
ATOM     11  C   UNL     1      43.135  -3.706  11.370  0.00  0.00    +0.000 C 
ATOM     12  C   UNL     1      43.727  -1.948  13.074  0.00  0.00    +0.000 A 
ATOM     13  C   UNL     1      43.389  -1.116  14.118  0.00  0.00    +0.000 A 
ATOM     14  C   UNL     1      44.383  -0.207  14.736  0.00  0.00    +0.000 C 
ATOM     15  C   UNL     1      42.099  -1.116  14.615  0.00  0.00    +0.000 A 
ENDBRANCH   5   8
BRANCH   1  16
ATOM     16  N   UNL     1      36.389  -0.638  14.993  0.00  0.00    +0.000 NA
BRANCH  16  22
ATOM     17  C   UNL     1      36.409   1.320  16.351  0.00  0.00    +0.000 A 
ATOM     18  C   UNL     1      36.316   2.697  16.486  0.00  0.00    +0.000 A 
ATOM     19  C   UNL     1      36.108   3.490  15.378  0.00  0.00    +0.000 A 
ATOM     20  C   UNL     1      35.987   2.939  14.118  0.00  0.00    +0.000 A 
ATOM     21  C   UNL     1      36.078   1.571  13.971  0.00  0.00    +0.000 A 
ATOM     22  C   UNL     1      36.286   0.780  15.082  0.00  0.00    +0.000 A 
BRANCH  17  23
ATOM     23  O   UNL     1      36.622   0.486  17.464  0.00  0.00    +0.000 OA
BRANCH  23  25
ATOM     24  C   UNL     1      36.056  -0.561  19.493  0.00  0.00    +0.000 C 
ATOM     25  C   UNL     1      35.561   0.355  18.395  0.00  0.00    +0.000 C 
ENDBRANCH  23  25
ENDBRANCH  17  23
ENDBRANCH  16  22
ENDBRANCH   1  16
BRANCH   2  26
ATOM     26  S   UNL     1      36.732  -3.015  17.052  0.00  0.00    +0.000 S 
BRANCH  26  27
ATOM     27  C   UNL     1      35.607  -4.048  16.140  0.00  0.00    +0.000 A 
ATOM     28  C   UNL     1      34.547  -3.541  15.421  0.00  0.00    +0.000 A 
ATOM     29  C   UNL     1      33.691  -4.405  14.721  0.00  0.00    +0.000 A 
ATOM     30  C   UNL     1      33.894  -5.766  14.741  0.00  0.00    +0.000 A 
ATOM     31  C   UNL     1      34.949  -6.279  15.457  0.00  0.00    +0.000 A 
ATOM     32  C   UNL     1      35.777  -5.412  16.136  0.00  0.00    +0.000 A 
ENDBRANCH  26  27
ENDBRANCH   2  26
TORSDOF 7
ENDMDL
MODEL 10
REMARK VINA RESULT:      -7.4      4.343      7.992
REMARK  Name = 
REMARK  7 active torsions:
REMARK  status: ('A' for Active; 'I' for Inactive)
REMARK    1  A    between atoms: C_2  and  O_3
REMARK    2  A    between atoms: O_3  and  C_4
REMARK    3  A    between atoms: C_9  and  N_10
REMARK    4  A    between atoms: N_10  and  C_11
REMARK    5  A    between atoms: C_12  and  S_13
REMARK    6  A    between atoms: S_13  and  C_14
REMARK    7  A    between atoms: N_22  and  C_23
REMARK                            x       y       z     vdW  Elec       q    Type
REMARK                         _______ _______ _______ _____ _____    ______ ____
ROOT
ATOM      1  C   UNL     1      38.803  -1.598  15.192  0.00  0.00    +0.000 C 
ATOM      2  C   UNL     1      38.792  -0.682  14.241  0.00  0.00    +0.000 C 
ATOM      3  C   UNL     1      40.071  -0.710  13.540  0.00  0.00    +0.000 C 
ATOM      4  O   UNL     1      40.381   0.042  12.575  0.00  0.00    +0.000 OA
ATOM      5  N   UNL     1      40.857  -1.727  14.154  0.00  0.00    +0.000 N 
ATOM      6  C   UNL     1      40.076  -2.298  15.196  0.00  0.00    +0.000 C 
ATOM      7  O   UNL     1      40.433  -3.243  15.982  0.00  0.00    +0.000 OA
ENDROOT
BRANCH   5   8
ATOM      8  C   UNL     1      42.176  -2.111  13.802  0.00  0.00    +0.000 A 
ATOM      9  C   UNL     1      42.486  -2.900  12.716  0.00  0.00    +0.000 A 
ATOM     10  C   UNL     1      43.781  -3.260  12.395  0.00  0.00    +0.000 A 
ATOM     11  C   UNL     1      44.076  -4.121  11.203  0.00  0.00    +0.000 C 
ATOM     12  C   UNL     1      44.814  -2.798  13.215  0.00  0.00    +0.000 A 
ATOM     13  C   UNL     1      44.537  -2.007  14.308  0.00  0.00    +0.000 A 
ATOM     14  C   UNL     1      45.615  -1.506  15.192  0.00  0.00    +0.000 C 
ATOM     15  C   UNL     1      43.231  -1.664  14.603  0.00  0.00    +0.000 A 
ENDBRANCH   5   8
BRANCH   1  16
ATOM     16  N   UNL     1      37.738  -1.878  16.091  0.00  0.00    +0.000 NA
BRANCH  16  22
ATOM     17  C   UNL     1      35.398  -2.326  16.079  0.00  0.00    +0.000 A 
ATOM     18  C   UNL     1      34.330  -3.159  15.784  0.00  0.00    +0.000 A 
ATOM     19  C   UNL     1      34.549  -4.388  15.199  0.00  0.00    +0.000 A 
ATOM     20  C   UNL     1      35.825  -4.816  14.897  0.00  0.00    +0.000 A 
ATOM     21  C   UNL     1      36.896  -3.997  15.185  0.00  0.00    +0.000 A 
ATOM     22  C   UNL     1      36.673  -2.768  15.770  0.00  0.00    +0.000 A 
BRANCH  17  23
ATOM     23  O   UNL     1      35.204  -1.066  16.675  0.00  0.00    +0.000 OA
BRANCH  23  25
ATOM     24  C   UNL     1      35.787  -0.193  18.779  0.00  0.00    +0.000 C 
ATOM     25  C   UNL     1      34.785  -1.042  18.029  0.00  0.00    +0.000 C 
ENDBRANCH  23  25
ENDBRANCH  17  23
ENDBRANCH  16  22
ENDBRANCH   1  16
BRANCH   2  26
ATOM     26  S   UNL     1      37.380   0.394  13.921  0.00  0.00    +0.000 S 
BRANCH  26  27
ATOM     27  C   UNL     1      37.545   1.820  14.971  0.00  0.00    +0.000 A 
ATOM     28  C   UNL     1      36.651   2.111  15.978  0.00  0.00    +0.000 A 
ATOM     29  C   UNL     1      36.831   3.251  16.775  0.00  0.00    +0.000 A 
ATOM     30  C   UNL     1      37.897   4.095  16.566  0.00  0.00    +0.000 A 
ATOM     31  C   UNL     1      38.793   3.813  15.563  0.00  0.00    +0.000 A 
ATOM     32  C   UNL     1      38.597   2.687  14.793  0.00  0.00    +0.000 A 
ENDBRANCH  26  27
ENDBRANCH   2  26
TORSDOF 7
ENDMDL
