MODEL 1
REMARK VINA RESULT:      -7.6      0.000      0.000
REMARK  Name = 
REMARK  3 active torsions:
REMARK  status: ('A' for Active; 'I' for Inactive)
REMARK    1  A    between atoms: O_2  and  C_3
REMARK    2  A    between atoms: C_6  and  C_7
REMARK    3  A    between atoms: C_20  and  O_21
REMARK                            x       y       z     vdW  Elec       q    Type
REMARK                         _______ _______ _______ _____ _____    ______ ____
ROOT
ATOM      1  C   UNL     1      16.562  11.695  35.969  0.00  0.00    +0.000 C 
ATOM      2  C   UNL     1      16.658  11.189  34.771  0.00  0.00    +0.000 C 
ATOM      3  C   UNL     1      17.528  10.078  34.402  0.00  0.00    +0.000 C 
ATOM      4  O   UNL     1      18.310   9.406  35.124  0.00  0.00    +0.000 OA
ATOM      5  N   UNL     1      17.315   9.887  33.010  0.00  0.00    +0.000 NA
ATOM      6  C   UNL     1      16.370  10.812  32.512  0.00  0.00    +0.000 A 
ATOM      7  C   UNL     1      15.843  11.032  31.263  0.00  0.00    +0.000 A 
ATOM      8  C   UNL     1      14.919  12.013  30.995  0.00  0.00    +0.000 A 
ATOM      9  C   UNL     1      14.491  12.831  32.039  0.00  0.00    +0.000 A 
ATOM     10  C   UNL     1      13.498  13.889  31.744  0.00  0.00    +0.000 C 
ATOM     11  C   UNL     1      15.023  12.604  33.286  0.00  0.00    +0.000 A 
ATOM     12  C   UNL     1      15.948  11.624  33.563  0.00  0.00    +0.000 A 
ENDROOT
BRANCH   1  16
ATOM     13  C   UNL     1      18.824  10.450  39.388  0.00  0.00    +0.000 A 
ATOM     14  C   UNL     1      19.311  11.400  38.518  0.00  0.00    +0.000 A 
ATOM     15  C   UNL     1      18.560  11.796  37.424  0.00  0.00    +0.000 A 
ATOM     16  C   UNL     1      17.292  11.263  37.149  0.00  0.00    +0.000 A 
ATOM     17  C   UNL     1      16.830  10.314  38.035  0.00  0.00    +0.000 A 
ATOM     18  C   UNL     1      17.588   9.917  39.136  0.00  0.00    +0.000 A 
BRANCH  13  20
ATOM     19  C   UNL     1      20.650   9.147  40.382  0.00  0.00    +0.000 C 
ATOM     20  O   UNL     1      19.532  10.015  40.499  0.00  0.00    +0.000 OA
ENDBRANCH  13  20
BRANCH  18  21
ATOM     21  O   UNL     1      17.105   8.947  40.031  0.00  0.00    +0.000 OA
ATOM     22  C   UNL     1      16.053   9.333  40.919  0.00  0.00    +0.000 C 
ENDBRANCH  18  21
ENDBRANCH   1  16
TORSDOF 3
ENDMDL
MODEL 2
REMARK VINA RESULT:      -7.6      0.762      1.990
REMARK  Name = 
REMARK  3 active torsions:
REMARK  status: ('A' for Active; 'I' for Inactive)
REMARK    1  A    between atoms: O_2  and  C_3
REMARK    2  A    between atoms: C_6  and  C_7
REMARK    3  A    between atoms: C_20  and  O_21
REMARK                            x       y       z     vdW  Elec       q    Type
REMARK                         _______ _______ _______ _____ _____    ______ ____
ROOT
ATOM      1  C   UNL     1      16.586  11.695  35.917  0.00  0.00    +0.000 C 
ATOM      2  C   UNL     1      16.661  11.195  34.715  0.00  0.00    +0.000 C 
ATOM      3  C   UNL     1      17.519  10.080  34.327  0.00  0.00    +0.000 C 
ATOM      4  O   UNL     1      18.307   9.399  35.033  0.00  0.00    +0.000 OA
ATOM      5  N   UNL     1      17.284   9.899  32.937  0.00  0.00    +0.000 NA
ATOM      6  C   UNL     1      16.338  10.833  32.458  0.00  0.00    +0.000 A 
ATOM      7  C   UNL     1      15.794  11.064  31.218  0.00  0.00    +0.000 A 
ATOM      8  C   UNL     1      14.872  12.051  30.970  0.00  0.00    +0.000 A 
ATOM      9  C   UNL     1      14.464  12.866  32.025  0.00  0.00    +0.000 A 
ATOM     10  C   UNL     1      13.474  13.932  31.751  0.00  0.00    +0.000 C 
ATOM     11  C   UNL     1      15.013  12.628  33.262  0.00  0.00    +0.000 A 
ATOM     12  C   UNL     1      15.936  11.641  33.520  0.00  0.00    +0.000 A 
ENDROOT
BRANCH   1  16
ATOM     13  C   UNL     1      18.671  10.353  39.412  0.00  0.00    +0.000 A 
ATOM     14  C   UNL     1      17.445   9.829  39.067  0.00  0.00    +0.000 A 
ATOM     15  C   UNL     1      16.792  10.269  37.928  0.00  0.00    +0.000 A 
ATOM     16  C   UNL     1      17.331  11.250  37.084  0.00  0.00    +0.000 A 
ATOM     17  C   UNL     1      18.558  11.758  37.452  0.00  0.00    +0.000 A 
ATOM     18  C   UNL     1      19.214  11.312  38.599  0.00  0.00    +0.000 A 
BRANCH  13  20
ATOM     19  C   UNL     1      20.061   8.710  40.589  0.00  0.00    +0.000 C 
ATOM     20  O   UNL     1      19.370   9.950  40.540  0.00  0.00    +0.000 OA
ENDBRANCH  13  20
BRANCH  18  21
ATOM     21  O   UNL     1      20.464  11.840  38.965  0.00  0.00    +0.000 OA
ATOM     22  C   UNL     1      21.571  11.574  38.101  0.00  0.00    +0.000 C 
ENDBRANCH  18  21
ENDBRANCH   1  16
TORSDOF 3
ENDMDL
MODEL 3
REMARK VINA RESULT:      -6.6      2.672      7.620
REMARK  Name = 
REMARK  3 active torsions:
REMARK  status: ('A' for Active; 'I' for Inactive)
REMARK    1  A    between atoms: O_2  and  C_3
REMARK    2  A    between atoms: C_6  and  C_7
REMARK    3  A    between atoms: C_20  and  O_21
REMARK                            x       y       z     vdW  Elec       q    Type
REMARK                         _______ _______ _______ _____ _____    ______ ____
ROOT
ATOM      1  C   UNL     1      16.936  10.075  37.336  0.00  0.00    +0.000 C 
ATOM      2  C   UNL     1      18.005  10.375  38.019  0.00  0.00    +0.000 C 
ATOM      3  C   UNL     1      18.670  11.674  38.001  0.00  0.00    +0.000 C 
ATOM      4  O   UNL     1      18.360  12.717  37.371  0.00  0.00    +0.000 OA
ATOM      5  N   UNL     1      19.785  11.530  38.871  0.00  0.00    +0.000 NA
ATOM      6  C   UNL     1      19.838  10.228  39.416  0.00  0.00    +0.000 A 
ATOM      7  C   UNL     1      20.703   9.609  40.283  0.00  0.00    +0.000 A 
ATOM      8  C   UNL     1      20.566   8.303  40.686  0.00  0.00    +0.000 A 
ATOM      9  C   UNL     1      19.495   7.560  40.190  0.00  0.00    +0.000 A 
ATOM     10  C   UNL     1      19.354   6.151  40.623  0.00  0.00    +0.000 C 
ATOM     11  C   UNL     1      18.633   8.187  39.322  0.00  0.00    +0.000 A 
ATOM     12  C   UNL     1      18.763   9.494  38.915  0.00  0.00    +0.000 A 
ENDROOT
BRANCH   1  16
ATOM     13  C   UNL     1      14.703  12.674  34.762  0.00  0.00    +0.000 A 
ATOM     14  C   UNL     1      14.460  12.630  36.117  0.00  0.00    +0.000 A 
ATOM     15  C   UNL     1      15.199  11.790  36.933  0.00  0.00    +0.000 A 
ATOM     16  C   UNL     1      16.212  10.958  36.435  0.00  0.00    +0.000 A 
ATOM     17  C   UNL     1      16.435  11.022  35.077  0.00  0.00    +0.000 A 
ATOM     18  C   UNL     1      15.689  11.868  34.257  0.00  0.00    +0.000 A 
BRANCH  13  20
ATOM     19  C   UNL     1      13.247  14.608  34.366  0.00  0.00    +0.000 C 
ATOM     20  O   UNL     1      13.995  13.496  33.897  0.00  0.00    +0.000 OA
ENDBRANCH  13  20
BRANCH  18  21
ATOM     21  O   UNL     1      15.926  11.922  32.873  0.00  0.00    +0.000 OA
ATOM     22  C   UNL     1      16.143  10.685  32.191  0.00  0.00    +0.000 C 
ENDBRANCH  18  21
ENDBRANCH   1  16
TORSDOF 3
ENDMDL
MODEL 4
REMARK VINA RESULT:      -6.6      3.016      7.840
REMARK  Name = 
REMARK  3 active torsions:
REMARK  status: ('A' for Active; 'I' for Inactive)
REMARK    1  A    between atoms: O_2  and  C_3
REMARK    2  A    between atoms: C_6  and  C_7
REMARK    3  A    between atoms: C_20  and  O_21
REMARK                            x       y       z     vdW  Elec       q    Type
REMARK                         _______ _______ _______ _____ _____    ______ ____
ROOT
ATOM      1  C   UNL     1      16.093  11.343  36.668  0.00  0.00    +0.000 C 
ATOM      2  C   UNL     1      15.484  10.924  37.742  0.00  0.00    +0.000 C 
ATOM      3  C   UNL     1      14.042  10.979  37.959  0.00  0.00    +0.000 C 
ATOM      4  O   UNL     1      13.138  11.403  37.193  0.00  0.00    +0.000 OA
ATOM      5  N   UNL     1      13.842  10.436  39.257  0.00  0.00    +0.000 NA
ATOM      6  C   UNL     1      15.071  10.055  39.841  0.00  0.00    +0.000 A 
ATOM      7  C   UNL     1      15.401   9.500  41.053  0.00  0.00    +0.000 A 
ATOM      8  C   UNL     1      16.691   9.209  41.425  0.00  0.00    +0.000 A 
ATOM      9  C   UNL     1      17.724   9.491  40.533  0.00  0.00    +0.000 A 
ATOM     10  C   UNL     1      19.113   9.180  40.941  0.00  0.00    +0.000 C 
ATOM     11  C   UNL     1      17.386  10.047  39.322  0.00  0.00    +0.000 A 
ATOM     12  C   UNL     1      16.097  10.340  38.941  0.00  0.00    +0.000 A 
ENDROOT
BRANCH   1  16
ATOM     13  C   UNL     1      14.165  13.159  33.300  0.00  0.00    +0.000 A 
ATOM     14  C   UNL     1      14.124  13.743  34.547  0.00  0.00    +0.000 A 
ATOM     15  C   UNL     1      14.761  13.145  35.620  0.00  0.00    +0.000 A 
ATOM     16  C   UNL     1      15.468  11.940  35.499  0.00  0.00    +0.000 A 
ATOM     17  C   UNL     1      15.493  11.377  34.242  0.00  0.00    +0.000 A 
ATOM     18  C   UNL     1      14.850  11.981  33.162  0.00  0.00    +0.000 A 
BRANCH  13  20
ATOM     19  C   UNL     1      14.209  14.645  31.349  0.00  0.00    +0.000 C 
ATOM     20  O   UNL     1      13.545  13.713  32.189  0.00  0.00    +0.000 OA
ENDBRANCH  13  20
BRANCH  18  21
ATOM     21  O   UNL     1      14.882  11.395  31.885  0.00  0.00    +0.000 OA
ATOM     22  C   UNL     1      16.026  10.608  31.548  0.00  0.00    +0.000 C 
ENDBRANCH  18  21
ENDBRANCH   1  16
TORSDOF 3
ENDMDL
MODEL 5
REMARK VINA RESULT:      -6.5      3.015      4.899
REMARK  Name = 
REMARK  3 active torsions:
REMARK  status: ('A' for Active; 'I' for Inactive)
REMARK    1  A    between atoms: O_2  and  C_3
REMARK    2  A    between atoms: C_6  and  C_7
REMARK    3  A    between atoms: C_20  and  O_21
REMARK                            x       y       z     vdW  Elec       q    Type
REMARK                         _______ _______ _______ _____ _____    ______ ____
ROOT
ATOM      1  C   UNL     1      15.496   9.733  40.327  0.00  0.00    +0.000 C 
ATOM      2  C   UNL     1      16.073  10.189  39.249  0.00  0.00    +0.000 C 
ATOM      3  C   UNL     1      17.481  10.003  38.915  0.00  0.00    +0.000 C 
ATOM      4  O   UNL     1      18.375   9.388  39.551  0.00  0.00    +0.000 OA
ATOM      5  N   UNL     1      17.659  10.678  37.677  0.00  0.00    +0.000 NA
ATOM      6  C   UNL     1      16.449  11.260  37.239  0.00  0.00    +0.000 A 
ATOM      7  C   UNL     1      16.111  12.002  36.134  0.00  0.00    +0.000 A 
ATOM      8  C   UNL     1      14.845  12.483  35.904  0.00  0.00    +0.000 A 
ATOM      9  C   UNL     1      13.847  12.210  36.838  0.00  0.00    +0.000 A 
ATOM     10  C   UNL     1      12.485  12.735  36.588  0.00  0.00    +0.000 C 
ATOM     11  C   UNL     1      14.192  11.467  37.941  0.00  0.00    +0.000 A 
ATOM     12  C   UNL     1      15.457  10.981  38.178  0.00  0.00    +0.000 A 
ENDROOT
BRANCH   1  16
ATOM     13  C   UNL     1      17.430   7.586  43.490  0.00  0.00    +0.000 A 
ATOM     14  C   UNL     1      17.219   8.944  43.574  0.00  0.00    +0.000 A 
ATOM     15  C   UNL     1      16.583   9.618  42.545  0.00  0.00    +0.000 A 
ATOM     16  C   UNL     1      16.131   8.969  41.387  0.00  0.00    +0.000 A 
ATOM     17  C   UNL     1      16.356   7.611  41.328  0.00  0.00    +0.000 A 
ATOM     18  C   UNL     1      16.996   6.934  42.366  0.00  0.00    +0.000 A 
BRANCH  13  20
ATOM     19  C   UNL     1      19.471   6.882  44.654  0.00  0.00    +0.000 C 
ATOM     20  O   UNL     1      18.061   6.859  44.489  0.00  0.00    +0.000 OA
ENDBRANCH  13  20
BRANCH  18  21
ATOM     21  O   UNL     1      17.221   5.549  42.292  0.00  0.00    +0.000 OA
ATOM     22  C   UNL     1      18.289   5.096  41.457  0.00  0.00    +0.000 C 
ENDBRANCH  18  21
ENDBRANCH   1  16
TORSDOF 3
ENDMDL
MODEL 6
REMARK VINA RESULT:      -6.4      3.047      5.049
REMARK  Name = 
REMARK  3 active torsions:
REMARK  status: ('A' for Active; 'I' for Inactive)
REMARK    1  A    between atoms: O_2  and  C_3
REMARK    2  A    between atoms: C_6  and  C_7
REMARK    3  A    between atoms: C_20  and  O_21
REMARK                            x       y       z     vdW  Elec       q    Type
REMARK                         _______ _______ _______ _____ _____    ______ ____
ROOT
ATOM      1  C   UNL     1      15.393   9.813  40.342  0.00  0.00    +0.000 C 
ATOM      2  C   UNL     1      15.962  10.194  39.232  0.00  0.00    +0.000 C 
ATOM      3  C   UNL     1      17.349   9.921  38.869  0.00  0.00    +0.000 C 
ATOM      4  O   UNL     1      18.228   9.286  39.507  0.00  0.00    +0.000 OA
ATOM      5  N   UNL     1      17.527  10.535  37.600  0.00  0.00    +0.000 NA
ATOM      6  C   UNL     1      16.336  11.163  37.170  0.00  0.00    +0.000 A 
ATOM      7  C   UNL     1      16.007  11.876  36.044  0.00  0.00    +0.000 A 
ATOM      8  C   UNL     1      14.761  12.414  35.827  0.00  0.00    +0.000 A 
ATOM      9  C   UNL     1      13.776  12.231  36.797  0.00  0.00    +0.000 A 
ATOM     10  C   UNL     1      12.437  12.816  36.560  0.00  0.00    +0.000 C 
ATOM     11  C   UNL     1      14.114  11.515  37.921  0.00  0.00    +0.000 A 
ATOM     12  C   UNL     1      15.358  10.973  38.145  0.00  0.00    +0.000 A 
ENDROOT
BRANCH   1  16
ATOM     13  C   UNL     1      17.154   7.492  43.484  0.00  0.00    +0.000 A 
ATOM     14  C   UNL     1      16.569   6.889  42.393  0.00  0.00    +0.000 A 
ATOM     15  C   UNL     1      16.014   7.657  41.383  0.00  0.00    +0.000 A 
ATOM     16  C   UNL     1      16.017   9.059  41.416  0.00  0.00    +0.000 A 
ATOM     17  C   UNL     1      16.608   9.637  42.519  0.00  0.00    +0.000 A 
ATOM     18  C   UNL     1      17.166   8.861  43.534  0.00  0.00    +0.000 A 
BRANCH  13  20
ATOM     19  C   UNL     1      17.768   5.355  44.518  0.00  0.00    +0.000 C 
ATOM     20  O   UNL     1      17.725   6.774  44.524  0.00  0.00    +0.000 OA
ENDBRANCH  13  20
BRANCH  18  21
ATOM     21  O   UNL     1      17.764   9.464  44.654  0.00  0.00    +0.000 OA
ATOM     22  C   UNL     1      16.905  10.113  45.593  0.00  0.00    +0.000 C 
ENDBRANCH  18  21
ENDBRANCH   1  16
TORSDOF 3
ENDMDL
MODEL 7
REMARK VINA RESULT:      -6.3      2.743      7.487
REMARK  Name = 
REMARK  3 active torsions:
REMARK  status: ('A' for Active; 'I' for Inactive)
REMARK    1  A    between atoms: O_2  and  C_3
REMARK    2  A    between atoms: C_6  and  C_7
REMARK    3  A    between atoms: C_20  and  O_21
REMARK                            x       y       z     vdW  Elec       q    Type
REMARK                         _______ _______ _______ _____ _____    ______ ____
ROOT
ATOM      1  C   UNL     1      17.255   9.897  36.876  0.00  0.00    +0.000 C 
ATOM      2  C   UNL     1      18.120  10.361  37.736  0.00  0.00    +0.000 C 
ATOM      3  C   UNL     1      18.564  11.749  37.807  0.00  0.00    +0.000 C 
ATOM      4  O   UNL     1      18.215  12.732  37.104  0.00  0.00    +0.000 OA
ATOM      5  N   UNL     1      19.507  11.781  38.869  0.00  0.00    +0.000 NA
ATOM      6  C   UNL     1      19.662  10.502  39.448  0.00  0.00    +0.000 A 
ATOM      7  C   UNL     1      20.439  10.025  40.475  0.00  0.00    +0.000 A 
ATOM      8  C   UNL     1      20.437   8.712  40.878  0.00  0.00    +0.000 A 
ATOM      9  C   UNL     1      19.606   7.811  40.215  0.00  0.00    +0.000 A 
ATOM     10  C   UNL     1      19.611   6.395  40.650  0.00  0.00    +0.000 C 
ATOM     11  C   UNL     1      18.832   8.295  39.188  0.00  0.00    +0.000 A 
ATOM     12  C   UNL     1      18.827   9.608  38.778  0.00  0.00    +0.000 A 
ENDROOT
BRANCH   1  16
ATOM     13  C   UNL     1      15.379  12.144  33.747  0.00  0.00    +0.000 A 
ATOM     14  C   UNL     1      16.492  11.370  33.502  0.00  0.00    +0.000 A 
ATOM     15  C   UNL     1      17.078  10.644  34.525  0.00  0.00    +0.000 A 
ATOM     16  C   UNL     1      16.581  10.657  35.837  0.00  0.00    +0.000 A 
ATOM     17  C   UNL     1      15.468  11.440  36.054  0.00  0.00    +0.000 A 
ATOM     18  C   UNL     1      14.880  12.170  35.022  0.00  0.00    +0.000 A 
BRANCH  13  20
ATOM     19  C   UNL     1      14.339  12.314  31.532  0.00  0.00    +0.000 C 
ATOM     20  O   UNL     1      14.751  12.892  32.762  0.00  0.00    +0.000 OA
ENDBRANCH  13  20
BRANCH  18  21
ATOM     21  O   UNL     1      13.746  12.966  35.259  0.00  0.00    +0.000 OA
ATOM     22  C   UNL     1      13.028  12.748  36.476  0.00  0.00    +0.000 C 
ENDBRANCH  18  21
ENDBRANCH   1  16
TORSDOF 3
ENDMDL
MODEL 8
REMARK VINA RESULT:      -6.2      3.937      5.507
REMARK  Name = 
REMARK  3 active torsions:
REMARK  status: ('A' for Active; 'I' for Inactive)
REMARK    1  A    between atoms: O_2  and  C_3
REMARK    2  A    between atoms: C_6  and  C_7
REMARK    3  A    between atoms: C_20  and  O_21
REMARK                            x       y       z     vdW  Elec       q    Type
REMARK                         _______ _______ _______ _____ _____    ______ ____
ROOT
ATOM      1  C   UNL     1      17.948  11.092  37.498  0.00  0.00    +0.000 C 
ATOM      2  C   UNL     1      17.156  10.610  38.415  0.00  0.00    +0.000 C 
ATOM      3  C   UNL     1      17.596   9.851  39.581  0.00  0.00    +0.000 C 
ATOM      4  O   UNL     1      18.762   9.536  39.932  0.00  0.00    +0.000 OA
ATOM      5  N   UNL     1      16.402   9.521  40.279  0.00  0.00    +0.000 NA
ATOM      6  C   UNL     1      15.268  10.033  39.610  0.00  0.00    +0.000 A 
ATOM      7  C   UNL     1      13.921   9.980  39.874  0.00  0.00    +0.000 A 
ATOM      8  C   UNL     1      12.969  10.555  39.067  0.00  0.00    +0.000 A 
ATOM      9  C   UNL     1      13.385  11.229  37.919  0.00  0.00    +0.000 A 
ATOM     10  C   UNL     1      12.355  11.843  37.051  0.00  0.00    +0.000 C 
ATOM     11  C   UNL     1      14.734  11.277  37.662  0.00  0.00    +0.000 A 
ATOM     12  C   UNL     1      15.693  10.704  38.465  0.00  0.00    +0.000 A 
ENDROOT
BRANCH   1  16
ATOM     13  C   UNL     1      22.203  10.599  37.358  0.00  0.00    +0.000 A 
ATOM     14  C   UNL     1      21.360   9.718  36.717  0.00  0.00    +0.000 A 
ATOM     15  C   UNL     1      19.988   9.900  36.767  0.00  0.00    +0.000 A 
ATOM     16  C   UNL     1      19.396  10.968  37.456  0.00  0.00    +0.000 A 
ATOM     17  C   UNL     1      20.261  11.834  38.088  0.00  0.00    +0.000 A 
ATOM     18  C   UNL     1      21.642  11.648  38.037  0.00  0.00    +0.000 A 
BRANCH  13  20
ATOM     19  C   UNL     1      24.268   9.901  36.234  0.00  0.00    +0.000 C 
ATOM     20  O   UNL     1      23.583  10.466  37.342  0.00  0.00    +0.000 OA
ENDBRANCH  13  20
BRANCH  18  21
ATOM     21  O   UNL     1      22.513  12.539  38.688  0.00  0.00    +0.000 OA
ATOM     22  C   UNL     1      22.027  13.203  39.856  0.00  0.00    +0.000 C 
ENDBRANCH  18  21
ENDBRANCH   1  16
TORSDOF 3
ENDMDL
MODEL 9
REMARK VINA RESULT:      -6.2     21.019     23.772
REMARK  Name = 
REMARK  3 active torsions:
REMARK  status: ('A' for Active; 'I' for Inactive)
REMARK    1  A    between atoms: O_2  and  C_3
REMARK    2  A    between atoms: C_6  and  C_7
REMARK    3  A    between atoms: C_20  and  O_21
REMARK                            x       y       z     vdW  Elec       q    Type
REMARK                         _______ _______ _______ _____ _____    ______ ____
ROOT
ATOM      1  C   UNL     1      33.812  -4.201  31.999  0.00  0.00    +0.000 C 
ATOM      2  C   UNL     1      33.321  -3.957  33.183  0.00  0.00    +0.000 C 
ATOM      3  C   UNL     1      32.790  -4.969  34.090  0.00  0.00    +0.000 C 
ATOM      4  O   UNL     1      32.714  -6.215  33.935  0.00  0.00    +0.000 OA
ATOM      5  N   UNL     1      32.358  -4.248  35.236  0.00  0.00    +0.000 NA
ATOM      6  C   UNL     1      32.593  -2.864  35.081  0.00  0.00    +0.000 A 
ATOM      7  C   UNL     1      32.355  -1.776  35.885  0.00  0.00    +0.000 A 
ATOM      8  C   UNL     1      32.666  -0.487  35.526  0.00  0.00    +0.000 A 
ATOM      9  C   UNL     1      33.255  -0.264  34.282  0.00  0.00    +0.000 A 
ATOM     10  C   UNL     1      33.584   1.128  33.898  0.00  0.00    +0.000 C 
ATOM     11  C   UNL     1      33.490  -1.357  33.483  0.00  0.00    +0.000 A 
ATOM     12  C   UNL     1      33.182  -2.651  33.835  0.00  0.00    +0.000 A 
ENDROOT
BRANCH   1  16
ATOM     13  C   UNL     1      34.259  -8.025  30.118  0.00  0.00    +0.000 A 
ATOM     14  C   UNL     1      35.262  -7.489  30.894  0.00  0.00    +0.000 A 
ATOM     15  C   UNL     1      35.094  -6.256  31.502  0.00  0.00    +0.000 A 
ATOM     16  C   UNL     1      33.920  -5.503  31.362  0.00  0.00    +0.000 A 
ATOM     17  C   UNL     1      32.933  -6.061  30.579  0.00  0.00    +0.000 A 
ATOM     18  C   UNL     1      33.104  -7.303  29.969  0.00  0.00    +0.000 A 
BRANCH  13  20
ATOM     19  C   UNL     1      35.588  -9.681  28.891  0.00  0.00    +0.000 C 
ATOM     20  O   UNL     1      34.371  -9.255  29.486  0.00  0.00    +0.000 OA
ENDBRANCH  13  20
BRANCH  18  21
ATOM     21  O   UNL     1      32.089  -7.860  29.172  0.00  0.00    +0.000 OA
ATOM     22  C   UNL     1      30.938  -8.384  29.839  0.00  0.00    +0.000 C 
ENDBRANCH  18  21
ENDBRANCH   1  16
TORSDOF 3
ENDMDL
MODEL 10
REMARK VINA RESULT:      -6.1     18.459     20.452
REMARK  Name = 
REMARK  3 active torsions:
REMARK  status: ('A' for Active; 'I' for Inactive)
REMARK    1  A    between atoms: O_2  and  C_3
REMARK    2  A    between atoms: C_6  and  C_7
REMARK    3  A    between atoms: C_20  and  O_21
REMARK                            x       y       z     vdW  Elec       q    Type
REMARK                         _______ _______ _______ _____ _____    ______ ____
ROOT
ATOM      1  C   UNL     1      33.604   0.648  35.989  0.00  0.00    +0.000 C 
ATOM      2  C   UNL     1      33.673   1.634  35.137  0.00  0.00    +0.000 C 
ATOM      3  C   UNL     1      33.619   1.487  33.687  0.00  0.00    +0.000 C 
ATOM      4  O   UNL     1      33.487   0.444  32.996  0.00  0.00    +0.000 OA
ATOM      5  N   UNL     1      33.748   2.808  33.177  0.00  0.00    +0.000 NA
ATOM      6  C   UNL     1      33.875   3.745  34.226  0.00  0.00    +0.000 A 
ATOM      7  C   UNL     1      34.027   5.110  34.251  0.00  0.00    +0.000 A 
ATOM      8  C   UNL     1      34.139   5.837  35.411  0.00  0.00    +0.000 A 
ATOM      9  C   UNL     1      34.100   5.161  36.630  0.00  0.00    +0.000 A 
ATOM     10  C   UNL     1      34.227   5.949  37.877  0.00  0.00    +0.000 C 
ATOM     11  C   UNL     1      33.948   3.795  36.597  0.00  0.00    +0.000 A 
ATOM     12  C   UNL     1      33.834   3.060  35.440  0.00  0.00    +0.000 A 
ENDROOT
BRANCH   1  16
ATOM     13  C   UNL     1      33.078  -3.506  35.082  0.00  0.00    +0.000 A 
ATOM     14  C   UNL     1      32.008  -2.640  35.109  0.00  0.00    +0.000 A 
ATOM     15  C   UNL     1      32.200  -1.299  35.395  0.00  0.00    +0.000 A 
ATOM     16  C   UNL     1      33.467  -0.762  35.666  0.00  0.00    +0.000 A 
ATOM     17  C   UNL     1      34.520  -1.650  35.633  0.00  0.00    +0.000 A 
ATOM     18  C   UNL     1      34.324  -3.000  35.345  0.00  0.00    +0.000 A 
BRANCH  13  20
ATOM     19  C   UNL     1      32.446  -5.318  33.554  0.00  0.00    +0.000 C 
ATOM     20  O   UNL     1      32.945  -4.858  34.802  0.00  0.00    +0.000 OA
ENDBRANCH  13  20
BRANCH  18  21
ATOM     21  O   UNL     1      35.407  -3.896  35.316  0.00  0.00    +0.000 OA
ATOM     22  C   UNL     1      36.584  -3.532  36.040  0.00  0.00    +0.000 C 
ENDBRANCH  18  21
ENDBRANCH   1  16
TORSDOF 3
ENDMDL
