MODEL 1
REMARK VINA RESULT:      -5.9      0.000      0.000
REMARK  Name = 
REMARK  2 active torsions:
REMARK  status: ('A' for Active; 'I' for Inactive)
REMARK    1  A    between atoms: C_6  and  C_7
REMARK    2  A    between atoms: N_9  and  C_10
REMARK                            x       y       z     vdW  Elec       q    Type
REMARK                         _______ _______ _______ _____ _____    ______ ____
ROOT
ATOM      1  N   UNL     1      25.697  24.335  30.868  0.00  0.00    +0.000 NA
ATOM      2  C   UNL     1      25.872  24.479  29.436  0.00  0.00    +0.000 A 
ATOM      3  S   UNL     1      24.921  25.353  28.322  0.00  0.00    +0.000 S 
ATOM      4  C   UNL     1      25.785  25.012  26.900  0.00  0.00    +0.000 A 
ATOM      5  C   UNL     1      26.806  24.213  27.336  0.00  0.00    +0.000 A 
ATOM      6  C   UNL     1      26.855  23.935  28.650  0.00  0.00    +0.000 A 
ATOM      7  C   UNL     1      27.837  23.670  26.361  0.00  0.00    +0.000 C 
ATOM      8  C   UNL     1      27.199  22.682  25.424  0.00  0.00    +0.000 C 
ATOM      9  C   UNL     1      25.774  23.085  25.100  0.00  0.00    +0.000 C 
ATOM     10  C   UNL     1      25.802  24.473  24.480  0.00  0.00    +0.000 C 
ATOM     11  C   UNL     1      25.424  25.520  25.526  0.00  0.00    +0.000 C 
ENDROOT
BRANCH   6  12
ATOM     12  C   UNL     1      27.913  23.081  29.250  0.00  0.00    +0.000 C 
ATOM     13  O   UNL     1      27.746  21.850  29.345  0.00  0.00    +0.000 OA
ATOM     14  N   UNL     1      29.136  23.607  29.734  0.00  0.00    +0.000 NA
BRANCH  14  15
ATOM     15  C   UNL     1      30.136  22.764  30.305  0.00  0.00    +0.000 A 
ATOM     16  C   UNL     1      30.087  22.305  31.589  0.00  0.00    +0.000 A 
ATOM     17  C   UNL     1      31.077  21.501  32.075  0.00  0.00    +0.000 A 
ATOM     18  C   UNL     1      32.149  21.133  31.282  0.00  0.00    +0.000 A 
ATOM     19  C   UNL     1      32.202  21.590  29.995  0.00  0.00    +0.000 A 
ATOM     20  C   UNL     1      31.211  22.392  29.518  0.00  0.00    +0.000 A 
ENDBRANCH  14  15
ENDBRANCH   6  12
TORSDOF 2
ENDMDL
MODEL 2
REMARK VINA RESULT:      -5.9      2.679      3.889
REMARK  Name = 
REMARK  2 active torsions:
REMARK  status: ('A' for Active; 'I' for Inactive)
REMARK    1  A    between atoms: C_6  and  C_7
REMARK    2  A    between atoms: N_9  and  C_10
REMARK                            x       y       z     vdW  Elec       q    Type
REMARK                         _______ _______ _______ _____ _____    ______ ____
ROOT
ATOM      1  N   UNL     1      31.890  23.389  24.297  0.00  0.00    +0.000 NA
ATOM      2  C   UNL     1      30.440  23.382  24.298  0.00  0.00    +0.000 A 
ATOM      3  S   UNL     1      29.365  23.891  23.077  0.00  0.00    +0.000 S 
ATOM      4  C   UNL     1      27.892  23.555  23.854  0.00  0.00    +0.000 A 
ATOM      5  C   UNL     1      28.282  23.049  25.062  0.00  0.00    +0.000 A 
ATOM      6  C   UNL     1      29.602  22.956  25.296  0.00  0.00    +0.000 A 
ATOM      7  C   UNL     1      27.252  22.610  26.089  0.00  0.00    +0.000 C 
ATOM      8  C   UNL     1      26.496  23.801  26.609  0.00  0.00    +0.000 C 
ATOM      9  C   UNL     1      26.301  24.837  25.520  0.00  0.00    +0.000 C 
ATOM     10  C   UNL     1      25.551  24.183  24.370  0.00  0.00    +0.000 C 
ATOM     11  C   UNL     1      26.527  23.799  23.261  0.00  0.00    +0.000 C 
ENDROOT
BRANCH   6  12
ATOM     12  C   UNL     1      30.157  22.422  26.568  0.00  0.00    +0.000 C 
ATOM     13  O   UNL     1      30.283  21.193  26.729  0.00  0.00    +0.000 OA
ATOM     14  N   UNL     1      30.561  23.259  27.637  0.00  0.00    +0.000 NA
BRANCH  14  15
ATOM     15  C   UNL     1      31.090  22.720  28.847  0.00  0.00    +0.000 A 
ATOM     16  C   UNL     1      32.357  22.226  28.958  0.00  0.00    +0.000 A 
ATOM     17  C   UNL     1      32.803  21.723  30.146  0.00  0.00    +0.000 A 
ATOM     18  C   UNL     1      31.986  21.701  31.261  0.00  0.00    +0.000 A 
ATOM     19  C   UNL     1      30.715  22.195  31.155  0.00  0.00    +0.000 A 
ATOM     20  C   UNL     1      30.278  22.695  29.967  0.00  0.00    +0.000 A 
ENDBRANCH  14  15
ENDBRANCH   6  12
TORSDOF 2
ENDMDL
MODEL 3
REMARK VINA RESULT:      -5.8      2.751      6.914
REMARK  Name = 
REMARK  2 active torsions:
REMARK  status: ('A' for Active; 'I' for Inactive)
REMARK    1  A    between atoms: C_6  and  C_7
REMARK    2  A    between atoms: N_9  and  C_10
REMARK                            x       y       z     vdW  Elec       q    Type
REMARK                         _______ _______ _______ _____ _____    ______ ____
ROOT
ATOM      1  N   UNL     1      28.467  23.973  30.778  0.00  0.00    +0.000 NA
ATOM      2  C   UNL     1      29.677  23.181  30.878  0.00  0.00    +0.000 A 
ATOM      3  S   UNL     1      30.439  22.557  32.270  0.00  0.00    +0.000 S 
ATOM      4  C   UNL     1      31.754  21.774  31.533  0.00  0.00    +0.000 A 
ATOM      5  C   UNL     1      31.563  22.024  30.202  0.00  0.00    +0.000 A 
ATOM      6  C   UNL     1      30.487  22.752  29.858  0.00  0.00    +0.000 A 
ATOM      7  C   UNL     1      32.537  21.491  29.165  0.00  0.00    +0.000 C 
ATOM      8  C   UNL     1      33.871  22.172  29.305  0.00  0.00    +0.000 C 
ATOM      9  C   UNL     1      34.175  22.474  30.759  0.00  0.00    +0.000 C 
ATOM     10  C   UNL     1      34.156  21.164  31.530  0.00  0.00    +0.000 C 
ATOM     11  C   UNL     1      32.828  21.011  32.267  0.00  0.00    +0.000 C 
ENDROOT
BRANCH   6  12
ATOM     12  C   UNL     1      30.166  23.092  28.447  0.00  0.00    +0.000 C 
ATOM     13  O   UNL     1      30.472  24.208  27.986  0.00  0.00    +0.000 OA
ATOM     14  N   UNL     1      29.513  22.189  27.573  0.00  0.00    +0.000 NA
BRANCH  14  15
ATOM     15  C   UNL     1      29.217  22.541  26.222  0.00  0.00    +0.000 A 
ATOM     16  C   UNL     1      30.144  22.523  25.221  0.00  0.00    +0.000 A 
ATOM     17  C   UNL     1      29.796  22.872  23.949  0.00  0.00    +0.000 A 
ATOM     18  C   UNL     1      28.502  23.251  23.644  0.00  0.00    +0.000 A 
ATOM     19  C   UNL     1      27.569  23.271  24.643  0.00  0.00    +0.000 A 
ATOM     20  C   UNL     1      27.924  22.922  25.910  0.00  0.00    +0.000 A 
ENDBRANCH  14  15
ENDBRANCH   6  12
TORSDOF 2
ENDMDL
MODEL 4
REMARK VINA RESULT:      -5.8     32.027     33.049
REMARK  Name = 
REMARK  2 active torsions:
REMARK  status: ('A' for Active; 'I' for Inactive)
REMARK    1  A    between atoms: C_6  and  C_7
REMARK    2  A    between atoms: N_9  and  C_10
REMARK                            x       y       z     vdW  Elec       q    Type
REMARK                         _______ _______ _______ _____ _____    ______ ____
ROOT
ATOM      1  N   UNL     1      21.477 -11.811  24.431  0.00  0.00    +0.000 NA
ATOM      2  C   UNL     1      22.438 -10.926  23.802  0.00  0.00    +0.000 A 
ATOM      3  S   UNL     1      23.897 -11.315  23.011  0.00  0.00    +0.000 S 
ATOM      4  C   UNL     1      24.397  -9.750  22.578  0.00  0.00    +0.000 A 
ATOM      5  C   UNL     1      23.400  -8.954  23.068  0.00  0.00    +0.000 A 
ATOM      6  C   UNL     1      22.382  -9.559  23.703  0.00  0.00    +0.000 A 
ATOM      7  C   UNL     1      23.454  -7.446  22.894  0.00  0.00    +0.000 C 
ATOM      8  C   UNL     1      24.584  -6.868  23.701  0.00  0.00    +0.000 C 
ATOM      9  C   UNL     1      25.766  -7.817  23.735  0.00  0.00    +0.000 C 
ATOM     10  C   UNL     1      26.206  -8.078  22.304  0.00  0.00    +0.000 C 
ATOM     11  C   UNL     1      25.665  -9.425  21.829  0.00  0.00    +0.000 C 
ENDROOT
BRANCH   6  12
ATOM     12  C   UNL     1      21.236  -8.808  24.281  0.00  0.00    +0.000 C 
ATOM     13  O   UNL     1      20.129  -8.817  23.709  0.00  0.00    +0.000 OA
ATOM     14  N   UNL     1      21.338  -8.063  25.481  0.00  0.00    +0.000 NA
BRANCH  14  15
ATOM     15  C   UNL     1      20.221  -7.352  26.014  0.00  0.00    +0.000 A 
ATOM     16  C   UNL     1      20.020  -6.017  25.822  0.00  0.00    +0.000 A 
ATOM     17  C   UNL     1      18.930  -5.396  26.360  0.00  0.00    +0.000 A 
ATOM     18  C   UNL     1      18.008  -6.101  27.110  0.00  0.00    +0.000 A 
ATOM     19  C   UNL     1      18.204  -7.440  27.305  0.00  0.00    +0.000 A 
ATOM     20  C   UNL     1      19.294  -8.052  26.765  0.00  0.00    +0.000 A 
ENDBRANCH  14  15
ENDBRANCH   6  12
TORSDOF 2
ENDMDL
MODEL 5
REMARK VINA RESULT:      -5.8     17.076     19.571
REMARK  Name = 
REMARK  2 active torsions:
REMARK  status: ('A' for Active; 'I' for Inactive)
REMARK    1  A    between atoms: C_6  and  C_7
REMARK    2  A    between atoms: N_9  and  C_10
REMARK                            x       y       z     vdW  Elec       q    Type
REMARK                         _______ _______ _______ _____ _____    ______ ____
ROOT
ATOM      1  N   UNL     1      37.725   6.306  37.947  0.00  0.00    +0.000 NA
ATOM      2  C   UNL     1      37.375   7.663  37.575  0.00  0.00    +0.000 A 
ATOM      3  S   UNL     1      37.873   9.132  38.283  0.00  0.00    +0.000 S 
ATOM      4  C   UNL     1      37.036  10.216  37.277  0.00  0.00    +0.000 A 
ATOM      5  C   UNL     1      36.381   9.393  36.404  0.00  0.00    +0.000 A 
ATOM      6  C   UNL     1      36.554   8.069  36.554  0.00  0.00    +0.000 A 
ATOM      7  C   UNL     1      35.495   9.968  35.312  0.00  0.00    +0.000 C 
ATOM      8  C   UNL     1      34.283  10.623  35.915  0.00  0.00    +0.000 C 
ATOM      9  C   UNL     1      34.623  11.277  37.240  0.00  0.00    +0.000 C 
ATOM     10  C   UNL     1      35.722  12.299  36.997  0.00  0.00    +0.000 C 
ATOM     11  C   UNL     1      37.074  11.718  37.406  0.00  0.00    +0.000 C 
ENDROOT
BRANCH   6  12
ATOM     12  C   UNL     1      35.899   7.068  35.671  0.00  0.00    +0.000 C 
ATOM     13  O   UNL     1      36.449   6.713  34.610  0.00  0.00    +0.000 OA
ATOM     14  N   UNL     1      34.648   6.479  35.979  0.00  0.00    +0.000 NA
BRANCH  14  15
ATOM     15  C   UNL     1      34.043   5.520  35.113  0.00  0.00    +0.000 A 
ATOM     16  C   UNL     1      32.993   5.808  34.290  0.00  0.00    +0.000 A 
ATOM     17  C   UNL     1      32.459   4.844  33.485  0.00  0.00    +0.000 A 
ATOM     18  C   UNL     1      32.965   3.557  33.485  0.00  0.00    +0.000 A 
ATOM     19  C   UNL     1      34.017   3.263  34.307  0.00  0.00    +0.000 A 
ATOM     20  C   UNL     1      34.544   4.231  35.107  0.00  0.00    +0.000 A 
ENDBRANCH  14  15
ENDBRANCH   6  12
TORSDOF 2
ENDMDL
MODEL 6
REMARK VINA RESULT:      -5.7     18.115     19.975
REMARK  Name = 
REMARK  2 active torsions:
REMARK  status: ('A' for Active; 'I' for Inactive)
REMARK    1  A    between atoms: C_6  and  C_7
REMARK    2  A    between atoms: N_9  and  C_10
REMARK                            x       y       z     vdW  Elec       q    Type
REMARK                         _______ _______ _______ _____ _____    ______ ____
ROOT
ATOM      1  N   UNL     1      21.400   9.858  36.593  0.00  0.00    +0.000 NA
ATOM      2  C   UNL     1      20.754   9.807  37.890  0.00  0.00    +0.000 A 
ATOM      3  S   UNL     1      21.461   9.666  39.435  0.00  0.00    +0.000 S 
ATOM      4  C   UNL     1      20.051   9.681  40.382  0.00  0.00    +0.000 A 
ATOM      5  C   UNL     1      19.052   9.796  39.456  0.00  0.00    +0.000 A 
ATOM      6  C   UNL     1      19.412   9.863  38.163  0.00  0.00    +0.000 A 
ATOM      7  C   UNL     1      17.596   9.848  39.888  0.00  0.00    +0.000 C 
ATOM      8  C   UNL     1      17.178   8.524  40.467  0.00  0.00    +0.000 C 
ATOM      9  C   UNL     1      18.322   7.877  41.222  0.00  0.00    +0.000 C 
ATOM     10  C   UNL     1      18.764   8.829  42.322  0.00  0.00    +0.000 C 
ATOM     11  C   UNL     1      20.020   9.582  41.887  0.00  0.00    +0.000 C 
ENDROOT
BRANCH   6  12
ATOM     12  C   UNL     1      18.423   9.991  37.060  0.00  0.00    +0.000 C 
ATOM     13  O   UNL     1      17.901   8.974  36.566  0.00  0.00    +0.000 OA
ATOM     14  N   UNL     1      18.031  11.243  36.527  0.00  0.00    +0.000 NA
BRANCH  14  15
ATOM     15  C   UNL     1      17.079  11.337  35.468  0.00  0.00    +0.000 A 
ATOM     16  C   UNL     1      17.331  10.927  34.192  0.00  0.00    +0.000 A 
ATOM     17  C   UNL     1      16.376  11.046  33.225  0.00  0.00    +0.000 A 
ATOM     18  C   UNL     1      15.134  11.582  33.513  0.00  0.00    +0.000 A 
ATOM     19  C   UNL     1      14.876  11.994  34.790  0.00  0.00    +0.000 A 
ATOM     20  C   UNL     1      15.834  11.873  35.749  0.00  0.00    +0.000 A 
ENDBRANCH  14  15
ENDBRANCH   6  12
TORSDOF 2
ENDMDL
MODEL 7
REMARK VINA RESULT:      -5.7      4.657      7.942
REMARK  Name = 
REMARK  2 active torsions:
REMARK  status: ('A' for Active; 'I' for Inactive)
REMARK    1  A    between atoms: C_6  and  C_7
REMARK    2  A    between atoms: N_9  and  C_10
REMARK                            x       y       z     vdW  Elec       q    Type
REMARK                         _______ _______ _______ _____ _____    ______ ____
ROOT
ATOM      1  N   UNL     1      25.333  25.920  24.851  0.00  0.00    +0.000 NA
ATOM      2  C   UNL     1      26.320  24.894  25.125  0.00  0.00    +0.000 A 
ATOM      3  S   UNL     1      26.486  23.906  26.505  0.00  0.00    +0.000 S 
ATOM      4  C   UNL     1      27.849  23.008  26.034  0.00  0.00    +0.000 A 
ATOM      5  C   UNL     1      28.144  23.509  24.797  0.00  0.00    +0.000 A 
ATOM      6  C   UNL     1      27.354  24.486  24.322  0.00  0.00    +0.000 A 
ATOM      7  C   UNL     1      29.322  22.971  24.002  0.00  0.00    +0.000 C 
ATOM      8  C   UNL     1      30.615  23.335  24.677  0.00  0.00    +0.000 C 
ATOM      9  C   UNL     1      30.462  23.322  26.185  0.00  0.00    +0.000 C 
ATOM     10  C   UNL     1      30.008  21.934  26.605  0.00  0.00    +0.000 C 
ATOM     11  C   UNL     1      28.504  21.932  26.864  0.00  0.00    +0.000 C 
ENDROOT
BRANCH   6  12
ATOM     12  C   UNL     1      27.566  25.115  22.991  0.00  0.00    +0.000 C 
ATOM     13  O   UNL     1      27.074  24.599  21.969  0.00  0.00    +0.000 OA
ATOM     14  N   UNL     1      28.319  26.301  22.818  0.00  0.00    +0.000 NA
BRANCH  14  15
ATOM     15  C   UNL     1      28.507  26.884  21.529  0.00  0.00    +0.000 A 
ATOM     16  C   UNL     1      27.696  27.855  21.018  0.00  0.00    +0.000 A 
ATOM     17  C   UNL     1      27.931  28.371  19.776  0.00  0.00    +0.000 A 
ATOM     18  C   UNL     1      28.990  27.923  19.008  0.00  0.00    +0.000 A 
ATOM     19  C   UNL     1      29.805  26.950  19.515  0.00  0.00    +0.000 A 
ATOM     20  C   UNL     1      29.565  26.441  20.754  0.00  0.00    +0.000 A 
ENDBRANCH  14  15
ENDBRANCH   6  12
TORSDOF 2
ENDMDL
MODEL 8
REMARK VINA RESULT:      -5.6     21.770     23.443
REMARK  Name = 
REMARK  2 active torsions:
REMARK  status: ('A' for Active; 'I' for Inactive)
REMARK    1  A    between atoms: C_6  and  C_7
REMARK    2  A    between atoms: N_9  and  C_10
REMARK                            x       y       z     vdW  Elec       q    Type
REMARK                         _______ _______ _______ _____ _____    ______ ____
ROOT
ATOM      1  N   UNL     1      24.258   4.539  13.139  0.00  0.00    +0.000 NA
ATOM      2  C   UNL     1      23.546   3.681  14.066  0.00  0.00    +0.000 A 
ATOM      3  S   UNL     1      22.142   2.750  13.803  0.00  0.00    +0.000 S 
ATOM      4  C   UNL     1      21.976   2.065  15.349  0.00  0.00    +0.000 A 
ATOM      5  C   UNL     1      23.033   2.588  16.040  0.00  0.00    +0.000 A 
ATOM      6  C   UNL     1      23.850   3.426  15.378  0.00  0.00    +0.000 A 
ATOM      7  C   UNL     1      23.263   2.227  17.497  0.00  0.00    +0.000 C 
ATOM      8  C   UNL     1      22.166   2.794  18.354  0.00  0.00    +0.000 C 
ATOM      9  C   UNL     1      20.840   2.779  17.618  0.00  0.00    +0.000 C 
ATOM     10  C   UNL     1      20.530   1.343  17.228  0.00  0.00    +0.000 C 
ATOM     11  C   UNL     1      20.880   1.114  15.759  0.00  0.00    +0.000 C 
ENDROOT
BRANCH   6  12
ATOM     12  C   UNL     1      25.034   4.061  16.015  0.00  0.00    +0.000 C 
ATOM     13  O   UNL     1      26.176   3.612  15.801  0.00  0.00    +0.000 OA
ATOM     14  N   UNL     1      24.930   5.182  16.874  0.00  0.00    +0.000 NA
BRANCH  14  15
ATOM     15  C   UNL     1      26.084   5.773  17.471  0.00  0.00    +0.000 A 
ATOM     16  C   UNL     1      26.793   6.787  16.895  0.00  0.00    +0.000 A 
ATOM     17  C   UNL     1      27.889   7.308  17.519  0.00  0.00    +0.000 A 
ATOM     18  C   UNL     1      28.307   6.823  18.744  0.00  0.00    +0.000 A 
ATOM     19  C   UNL     1      27.601   5.808  19.327  0.00  0.00    +0.000 A 
ATOM     20  C   UNL     1      26.509   5.294  18.698  0.00  0.00    +0.000 A 
ENDBRANCH  14  15
ENDBRANCH   6  12
TORSDOF 2
ENDMDL
MODEL 9
REMARK VINA RESULT:      -5.6     15.753     17.668
REMARK  Name = 
REMARK  2 active torsions:
REMARK  status: ('A' for Active; 'I' for Inactive)
REMARK    1  A    between atoms: C_6  and  C_7
REMARK    2  A    between atoms: N_9  and  C_10
REMARK                            x       y       z     vdW  Elec       q    Type
REMARK                         _______ _______ _______ _____ _____    ______ ____
ROOT
ATOM      1  N   UNL     1      21.312  14.636  39.137  0.00  0.00    +0.000 NA
ATOM      2  C   UNL     1      22.107  13.485  38.754  0.00  0.00    +0.000 A 
ATOM      3  S   UNL     1      23.796  13.366  38.557  0.00  0.00    +0.000 S 
ATOM      4  C   UNL     1      23.903  11.730  38.112  0.00  0.00    +0.000 A 
ATOM      5  C   UNL     1      22.602  11.313  38.129  0.00  0.00    +0.000 A 
ATOM      6  C   UNL     1      21.667  12.220  38.462  0.00  0.00    +0.000 A 
ATOM      7  C   UNL     1      22.241   9.878  37.784  0.00  0.00    +0.000 C 
ATOM      8  C   UNL     1      22.517   9.608  36.331  0.00  0.00    +0.000 C 
ATOM      9  C   UNL     1      23.740  10.370  35.860  0.00  0.00    +0.000 C 
ATOM     10  C   UNL     1      24.922   9.951  36.719  0.00  0.00    +0.000 C 
ATOM     11  C   UNL     1      25.186  11.004  37.793  0.00  0.00    +0.000 C 
ENDROOT
BRANCH   6  12
ATOM     12  C   UNL     1      20.217  11.894  38.518  0.00  0.00    +0.000 C 
ATOM     13  O   UNL     1      19.721  11.422  39.559  0.00  0.00    +0.000 OA
ATOM     14  N   UNL     1      19.345  12.099  37.421  0.00  0.00    +0.000 NA
BRANCH  14  15
ATOM     15  C   UNL     1      17.957  11.778  37.503  0.00  0.00    +0.000 A 
ATOM     16  C   UNL     1      17.481  10.640  38.087  0.00  0.00    +0.000 A 
ATOM     17  C   UNL     1      16.140  10.393  38.132  0.00  0.00    +0.000 A 
ATOM     18  C   UNL     1      15.234  11.285  37.589  0.00  0.00    +0.000 A 
ATOM     19  C   UNL     1      15.704  12.427  37.003  0.00  0.00    +0.000 A 
ATOM     20  C   UNL     1      17.044  12.666  36.962  0.00  0.00    +0.000 A 
ENDBRANCH  14  15
ENDBRANCH   6  12
TORSDOF 2
ENDMDL
MODEL 10
REMARK VINA RESULT:      -5.5     17.391     18.569
REMARK  Name = 
REMARK  2 active torsions:
REMARK  status: ('A' for Active; 'I' for Inactive)
REMARK    1  A    between atoms: C_6  and  C_7
REMARK    2  A    between atoms: N_9  and  C_10
REMARK                            x       y       z     vdW  Elec       q    Type
REMARK                         _______ _______ _______ _____ _____    ______ ____
ROOT
ATOM      1  N   UNL     1      20.220   7.677  40.690  0.00  0.00    +0.000 NA
ATOM      2  C   UNL     1      19.242   8.578  40.113  0.00  0.00    +0.000 A 
ATOM      3  S   UNL     1      17.549   8.596  40.315  0.00  0.00    +0.000 S 
ATOM      4  C   UNL     1      17.171   9.926  39.328  0.00  0.00    +0.000 A 
ATOM      5  C   UNL     1      18.391  10.327  38.860  0.00  0.00    +0.000 A 
ATOM      6  C   UNL     1      19.468   9.632  39.264  0.00  0.00    +0.000 A 
ATOM      7  C   UNL     1      18.510  11.515  37.920  0.00  0.00    +0.000 C 
ATOM      8  C   UNL     1      17.883  11.193  36.592  0.00  0.00    +0.000 C 
ATOM      9  C   UNL     1      16.674  10.296  36.766  0.00  0.00    +0.000 C 
ATOM     10  C   UNL     1      15.680  11.008  37.670  0.00  0.00    +0.000 C 
ATOM     11  C   UNL     1      15.780  10.458  39.091  0.00  0.00    +0.000 C 
ENDROOT
BRANCH   6  12
ATOM     12  C   UNL     1      20.850   9.966  38.829  0.00  0.00    +0.000 C 
ATOM     13  O   UNL     1      21.483  10.875  39.399  0.00  0.00    +0.000 OA
ATOM     14  N   UNL     1      21.503   9.287  37.772  0.00  0.00    +0.000 NA
BRANCH  14  15
ATOM     15  C   UNL     1      22.830   9.628  37.375  0.00  0.00    +0.000 A 
ATOM     16  C   UNL     1      23.112  10.498  36.362  0.00  0.00    +0.000 A 
ATOM     17  C   UNL     1      24.405  10.781  36.032  0.00  0.00    +0.000 A 
ATOM     18  C   UNL     1      25.458  10.196  36.711  0.00  0.00    +0.000 A 
ATOM     19  C   UNL     1      25.182   9.323  37.726  0.00  0.00    +0.000 A 
ATOM     20  C   UNL     1      23.889   9.046  38.050  0.00  0.00    +0.000 A 
ENDBRANCH  14  15
ENDBRANCH   6  12
TORSDOF 2
ENDMDL
