MODEL 1
REMARK VINA RESULT:      -7.6      0.000      0.000
REMARK  Name = 
REMARK  2 active torsions:
REMARK  status: ('A' for Active; 'I' for Inactive)
REMARK    1  A    between atoms: N_13  and  C_14
REMARK    2  A    between atoms: C_14  and  C_15
REMARK                            x       y       z     vdW  Elec       q    Type
REMARK                         _______ _______ _______ _____ _____    ______ ____
ROOT
ATOM      1  O   UNL     1      17.449   9.598  33.117  0.00  0.00    +0.000 OA
ATOM      2  C   UNL     1      16.880  10.178  34.106  0.00  0.00    +0.000 C 
ATOM      3  N   UNL     1      17.318  10.288  35.437  0.00  0.00    +0.000 NA
ATOM      4  C   UNL     1      16.553  11.330  36.093  0.00  0.00    +0.000 C 
ATOM      5  C   UNL     1      17.243  12.668  36.030  0.00  0.00    +0.000 C 
ATOM      6  C   UNL     1      17.649  13.048  37.435  0.00  0.00    +0.000 C 
ATOM      7  C   UNL     1      18.807  12.230  37.946  0.00  0.00    +0.000 C 
ATOM      8  C   UNL     1      18.672  10.761  37.589  0.00  0.00    +0.000 C 
ATOM      9  C   UNL     1      17.390  10.182  38.153  0.00  0.00    +0.000 C 
ATOM     10  C   UNL     1      16.236  10.893  37.493  0.00  0.00    +0.000 C 
ATOM     11  C   UNL     1      15.290  11.374  35.276  0.00  0.00    +0.000 C 
ATOM     12  O   UNL     1      14.219  11.812  35.734  0.00  0.00    +0.000 OA
ATOM     13  N   UNL     1      15.637  10.843  34.008  0.00  0.00    +0.000 N 
ENDROOT
BRANCH  13  14
ATOM     14  C   UNL     1      14.804  10.992  32.825  0.00  0.00    +0.000 C 
BRANCH  14  15
ATOM     15  C   UNL     1      15.184  12.171  32.016  0.00  0.00    +0.000 A 
ATOM     16  C   UNL     1      14.359  13.271  32.027  0.00  0.00    +0.000 A 
ATOM     17  C   UNL     1      14.653  14.401  31.297  0.00  0.00    +0.000 A 
ATOM     18  C   UNL     1      15.793  14.471  30.520  0.00  0.00    +0.000 A 
ATOM     19  F   UNL     1      16.092  15.593  29.791  0.00  0.00    +0.000 F 
ATOM     20  C   UNL     1      16.598  13.359  30.527  0.00  0.00    +0.000 A 
ATOM     21  C   UNL     1      16.324  12.218  31.249  0.00  0.00    +0.000 A 
ENDBRANCH  14  15
ENDBRANCH  13  14
TORSDOF 2
ENDMDL
MODEL 2
REMARK VINA RESULT:      -6.4     27.803     30.755
REMARK  Name = 
REMARK  2 active torsions:
REMARK  status: ('A' for Active; 'I' for Inactive)
REMARK    1  A    between atoms: N_13  and  C_14
REMARK    2  A    between atoms: C_14  and  C_15
REMARK                            x       y       z     vdW  Elec       q    Type
REMARK                         _______ _______ _______ _____ _____    ______ ____
ROOT
ATOM      1  O   UNL     1      30.765  23.061   8.471  0.00  0.00    +0.000 OA
ATOM      2  C   UNL     1      31.769  22.372   8.862  0.00  0.00    +0.000 C 
ATOM      3  N   UNL     1      33.128  22.524   8.534  0.00  0.00    +0.000 NA
ATOM      4  C   UNL     1      33.922  21.775   9.487  0.00  0.00    +0.000 C 
ATOM      5  C   UNL     1      34.375  22.626  10.645  0.00  0.00    +0.000 C 
ATOM      6  C   UNL     1      35.877  22.766  10.560  0.00  0.00    +0.000 C 
ATOM      7  C   UNL     1      36.312  23.674   9.440  0.00  0.00    +0.000 C 
ATOM      8  C   UNL     1      35.521  23.434   8.167  0.00  0.00    +0.000 C 
ATOM      9  C   UNL     1      35.663  21.998   7.703  0.00  0.00    +0.000 C 
ATOM     10  C   UNL     1      35.056  21.112   8.762  0.00  0.00    +0.000 C 
ATOM     11  C   UNL     1      32.953  20.732   9.976  0.00  0.00    +0.000 C 
ATOM     12  O   UNL     1      33.331  19.652  10.464  0.00  0.00    +0.000 OA
ATOM     13  N   UNL     1      31.663  21.273   9.744  0.00  0.00    +0.000 N 
ENDROOT
BRANCH  13  14
ATOM     14  C   UNL     1      30.453  20.739  10.350  0.00  0.00    +0.000 C 
BRANCH  14  15
ATOM     15  C   UNL     1      29.851  21.677  11.323  0.00  0.00    +0.000 A 
ATOM     16  C   UNL     1      28.556  22.093  11.124  0.00  0.00    +0.000 A 
ATOM     17  C   UNL     1      27.937  22.965  11.991  0.00  0.00    +0.000 A 
ATOM     18  C   UNL     1      28.597  23.457  13.099  0.00  0.00    +0.000 A 
ATOM     19  F   UNL     1      27.986  24.325  13.968  0.00  0.00    +0.000 F 
ATOM     20  C   UNL     1      29.888  23.025  13.274  0.00  0.00    +0.000 A 
ATOM     21  C   UNL     1      30.529  22.154  12.420  0.00  0.00    +0.000 A 
ENDBRANCH  14  15
ENDBRANCH  13  14
TORSDOF 2
ENDMDL
MODEL 3
REMARK VINA RESULT:      -6.3     16.793     19.058
REMARK  Name = 
REMARK  2 active torsions:
REMARK  status: ('A' for Active; 'I' for Inactive)
REMARK    1  A    between atoms: N_13  and  C_14
REMARK    2  A    between atoms: C_14  and  C_15
REMARK                            x       y       z     vdW  Elec       q    Type
REMARK                         _______ _______ _______ _____ _____    ______ ____
ROOT
ATOM      1  O   UNL     1      27.025  27.047  26.030  0.00  0.00    +0.000 OA
ATOM      2  C   UNL     1      27.103  25.853  25.575  0.00  0.00    +0.000 C 
ATOM      3  N   UNL     1      28.083  25.284  24.744  0.00  0.00    +0.000 NA
ATOM      4  C   UNL     1      27.961  23.842  24.801  0.00  0.00    +0.000 C 
ATOM      5  C   UNL     1      28.865  23.234  25.842  0.00  0.00    +0.000 C 
ATOM      6  C   UNL     1      29.916  22.419  25.127  0.00  0.00    +0.000 C 
ATOM      7  C   UNL     1      30.938  23.277  24.427  0.00  0.00    +0.000 C 
ATOM      8  C   UNL     1      30.303  24.453  23.709  0.00  0.00    +0.000 C 
ATOM      9  C   UNL     1      29.290  23.981  22.685  0.00  0.00    +0.000 C 
ATOM     10  C   UNL     1      28.180  23.279  23.427  0.00  0.00    +0.000 C 
ATOM     11  C   UNL     1      26.524  23.649  25.205  0.00  0.00    +0.000 C 
ATOM     12  O   UNL     1      25.901  22.600  24.960  0.00  0.00    +0.000 OA
ATOM     13  N   UNL     1      26.147  24.850  25.857  0.00  0.00    +0.000 N 
ENDROOT
BRANCH  13  14
ATOM     14  C   UNL     1      24.952  24.973  26.677  0.00  0.00    +0.000 C 
BRANCH  14  15
ATOM     15  C   UNL     1      25.260  24.965  28.124  0.00  0.00    +0.000 A 
ATOM     16  C   UNL     1      24.806  26.005  28.900  0.00  0.00    +0.000 A 
ATOM     17  C   UNL     1      25.058  26.059  30.252  0.00  0.00    +0.000 A 
ATOM     18  C   UNL     1      25.781  25.067  30.884  0.00  0.00    +0.000 A 
ATOM     19  F   UNL     1      26.035  25.113  32.230  0.00  0.00    +0.000 F 
ATOM     20  C   UNL     1      26.223  24.041  30.085  0.00  0.00    +0.000 A 
ATOM     21  C   UNL     1      25.983  23.965  28.730  0.00  0.00    +0.000 A 
ENDBRANCH  14  15
ENDBRANCH  13  14
TORSDOF 2
ENDMDL
MODEL 4
REMARK VINA RESULT:      -6.2     18.453     21.189
REMARK  Name = 
REMARK  2 active torsions:
REMARK  status: ('A' for Active; 'I' for Inactive)
REMARK    1  A    between atoms: N_13  and  C_14
REMARK    2  A    between atoms: C_14  and  C_15
REMARK                            x       y       z     vdW  Elec       q    Type
REMARK                         _______ _______ _______ _____ _____    ______ ____
ROOT
ATOM      1  O   UNL     1      27.291  26.044  25.672  0.00  0.00    +0.000 OA
ATOM      2  C   UNL     1      27.251  25.715  24.436  0.00  0.00    +0.000 C 
ATOM      3  N   UNL     1      27.425  26.523  23.299  0.00  0.00    +0.000 NA
ATOM      4  C   UNL     1      27.665  25.669  22.154  0.00  0.00    +0.000 C 
ATOM      5  C   UNL     1      29.135  25.451  21.903  0.00  0.00    +0.000 C 
ATOM      6  C   UNL     1      29.488  26.122  20.597  0.00  0.00    +0.000 C 
ATOM      7  C   UNL     1      29.507  27.625  20.704  0.00  0.00    +0.000 C 
ATOM      8  C   UNL     1      28.338  28.156  21.513  0.00  0.00    +0.000 C 
ATOM      9  C   UNL     1      27.018  27.735  20.899  0.00  0.00    +0.000 C 
ATOM     10  C   UNL     1      26.940  26.230  20.967  0.00  0.00    +0.000 C 
ATOM     11  C   UNL     1      27.026  24.371  22.572  0.00  0.00    +0.000 C 
ATOM     12  O   UNL     1      26.637  23.527  21.745  0.00  0.00    +0.000 OA
ATOM     13  N   UNL     1      27.006  24.397  23.989  0.00  0.00    +0.000 N 
ENDROOT
BRANCH  13  14
ATOM     14  C   UNL     1      26.765  23.217  24.806  0.00  0.00    +0.000 C 
BRANCH  14  15
ATOM     15  C   UNL     1      27.955  22.826  25.592  0.00  0.00    +0.000 A 
ATOM     16  C   UNL     1      29.167  22.725  24.949  0.00  0.00    +0.000 A 
ATOM     17  C   UNL     1      30.313  22.365  25.621  0.00  0.00    +0.000 A 
ATOM     18  C   UNL     1      30.290  22.090  26.974  0.00  0.00    +0.000 A 
ATOM     19  F   UNL     1      31.427  21.732  27.650  0.00  0.00    +0.000 F 
ATOM     20  C   UNL     1      29.068  22.198  27.591  0.00  0.00    +0.000 A 
ATOM     21  C   UNL     1      27.908  22.556  26.940  0.00  0.00    +0.000 A 
ENDBRANCH  14  15
ENDBRANCH  13  14
TORSDOF 2
ENDMDL
MODEL 5
REMARK VINA RESULT:      -6.2      6.149      7.647
REMARK  Name = 
REMARK  2 active torsions:
REMARK  status: ('A' for Active; 'I' for Inactive)
REMARK    1  A    between atoms: N_13  and  C_14
REMARK    2  A    between atoms: C_14  and  C_15
REMARK                            x       y       z     vdW  Elec       q    Type
REMARK                         _______ _______ _______ _____ _____    ______ ____
ROOT
ATOM      1  O   UNL     1      17.051  10.403  37.811  0.00  0.00    +0.000 OA
ATOM      2  C   UNL     1      17.696  10.054  38.860  0.00  0.00    +0.000 C 
ATOM      3  N   UNL     1      17.353   9.100  39.833  0.00  0.00    +0.000 NA
ATOM      4  C   UNL     1      18.534   8.782  40.610  0.00  0.00    +0.000 C 
ATOM      5  C   UNL     1      19.268   7.583  40.068  0.00  0.00    +0.000 C 
ATOM      6  C   UNL     1      19.153   6.470  41.083  0.00  0.00    +0.000 C 
ATOM      7  C   UNL     1      17.771   5.873  41.136  0.00  0.00    +0.000 C 
ATOM      8  C   UNL     1      16.687   6.933  41.080  0.00  0.00    +0.000 C 
ATOM      9  C   UNL     1      16.830   7.916  42.225  0.00  0.00    +0.000 C 
ATOM     10  C   UNL     1      18.144   8.635  42.051  0.00  0.00    +0.000 C 
ATOM     11  C   UNL     1      19.382  10.014  40.437  0.00  0.00    +0.000 C 
ATOM     12  O   UNL     1      20.262  10.333  41.256  0.00  0.00    +0.000 OA
ATOM     13  N   UNL     1      18.939  10.614  39.232  0.00  0.00    +0.000 N 
ENDROOT
BRANCH  13  14
ATOM     14  C   UNL     1      19.691  11.643  38.529  0.00  0.00    +0.000 C 
BRANCH  14  15
ATOM     15  C   UNL     1      20.894  11.101  37.861  0.00  0.00    +0.000 A 
ATOM     16  C   UNL     1      22.107  11.709  38.091  0.00  0.00    +0.000 A 
ATOM     17  C   UNL     1      23.265  11.256  37.501  0.00  0.00    +0.000 A 
ATOM     18  C   UNL     1      23.253  10.169  36.650  0.00  0.00    +0.000 A 
ATOM     19  F   UNL     1      24.403   9.712  36.059  0.00  0.00    +0.000 F 
ATOM     20  C   UNL     1      22.030   9.582  36.437  0.00  0.00    +0.000 A 
ATOM     21  C   UNL     1      20.858  10.017  37.016  0.00  0.00    +0.000 A 
ENDBRANCH  14  15
ENDBRANCH  13  14
TORSDOF 2
ENDMDL
MODEL 6
REMARK VINA RESULT:      -6.2     22.352     24.447
REMARK  Name = 
REMARK  2 active torsions:
REMARK  status: ('A' for Active; 'I' for Inactive)
REMARK    1  A    between atoms: N_13  and  C_14
REMARK    2  A    between atoms: C_14  and  C_15
REMARK                            x       y       z     vdW  Elec       q    Type
REMARK                         _______ _______ _______ _____ _____    ______ ____
ROOT
ATOM      1  O   UNL     1      30.635  -6.356  33.152  0.00  0.00    +0.000 OA
ATOM      2  C   UNL     1      31.838  -6.392  32.719  0.00  0.00    +0.000 C 
ATOM      3  N   UNL     1      32.333  -6.944  31.524  0.00  0.00    +0.000 NA
ATOM      4  C   UNL     1      33.665  -6.426  31.289  0.00  0.00    +0.000 C 
ATOM      5  C   UNL     1      33.654  -5.201  30.413  0.00  0.00    +0.000 C 
ATOM      6  C   UNL     1      34.318  -5.559  29.104  0.00  0.00    +0.000 C 
ATOM      7  C   UNL     1      33.460  -6.450  28.243  0.00  0.00    +0.000 C 
ATOM      8  C   UNL     1      32.781  -7.542  29.048  0.00  0.00    +0.000 C 
ATOM      9  C   UNL     1      33.802  -8.404  29.763  0.00  0.00    +0.000 C 
ATOM     10  C   UNL     1      34.529  -7.529  30.753  0.00  0.00    +0.000 C 
ATOM     11  C   UNL     1      34.122  -6.052  32.674  0.00  0.00    +0.000 C 
ATOM     12  O   UNL     1      35.326  -5.972  32.977  0.00  0.00    +0.000 OA
ATOM     13  N   UNL     1      32.936  -5.846  33.423  0.00  0.00    +0.000 N 
ENDROOT
BRANCH  13  14
ATOM     14  C   UNL     1      32.912  -5.171  34.711  0.00  0.00    +0.000 C 
BRANCH  14  15
ATOM     15  C   UNL     1      32.901  -3.698  34.573  0.00  0.00    +0.000 A 
ATOM     16  C   UNL     1      32.106  -2.961  35.419  0.00  0.00    +0.000 A 
ATOM     17  C   UNL     1      32.049  -1.588  35.343  0.00  0.00    +0.000 A 
ATOM     18  C   UNL     1      32.793  -0.894  34.409  0.00  0.00    +0.000 A 
ATOM     19  F   UNL     1      32.743   0.474  34.328  0.00  0.00    +0.000 F 
ATOM     20  C   UNL     1      33.578  -1.654  33.577  0.00  0.00    +0.000 A 
ATOM     21  C   UNL     1      33.651  -3.028  33.634  0.00  0.00    +0.000 A 
ENDBRANCH  14  15
ENDBRANCH  13  14
TORSDOF 2
ENDMDL
MODEL 7
REMARK VINA RESULT:      -6.0     21.655     23.629
REMARK  Name = 
REMARK  2 active torsions:
REMARK  status: ('A' for Active; 'I' for Inactive)
REMARK    1  A    between atoms: N_13  and  C_14
REMARK    2  A    between atoms: C_14  and  C_15
REMARK                            x       y       z     vdW  Elec       q    Type
REMARK                         _______ _______ _______ _____ _____    ______ ____
ROOT
ATOM      1  O   UNL     1      36.179  -4.182  35.563  0.00  0.00    +0.000 OA
ATOM      2  C   UNL     1      35.017  -3.662  35.432  0.00  0.00    +0.000 C 
ATOM      3  N   UNL     1      34.573  -2.382  35.806  0.00  0.00    +0.000 NA
ATOM      4  C   UNL     1      33.319  -2.109  35.133  0.00  0.00    +0.000 C 
ATOM      5  C   UNL     1      33.518  -1.374  33.834  0.00  0.00    +0.000 C 
ATOM      6  C   UNL     1      32.933   0.010  33.988  0.00  0.00    +0.000 C 
ATOM      7  C   UNL     1      33.770   0.899  34.871  0.00  0.00    +0.000 C 
ATOM      8  C   UNL     1      34.276   0.171  36.102  0.00  0.00    +0.000 C 
ATOM      9  C   UNL     1      33.122  -0.371  36.923  0.00  0.00    +0.000 C 
ATOM     10  C   UNL     1      32.402  -1.395  36.082  0.00  0.00    +0.000 C 
ATOM     11  C   UNL     1      32.787  -3.490  34.856  0.00  0.00    +0.000 C 
ATOM     12  O   UNL     1      31.575  -3.712  34.685  0.00  0.00    +0.000 OA
ATOM     13  N   UNL     1      33.922  -4.340  34.850  0.00  0.00    +0.000 N 
ENDROOT
BRANCH  13  14
ATOM     14  C   UNL     1      33.903  -5.692  34.314  0.00  0.00    +0.000 C 
BRANCH  14  15
ATOM     15  C   UNL     1      34.089  -5.717  32.846  0.00  0.00    +0.000 A 
ATOM     16  C   UNL     1      32.990  -5.533  32.039  0.00  0.00    +0.000 A 
ATOM     17  C   UNL     1      33.093  -5.545  30.667  0.00  0.00    +0.000 A 
ATOM     18  C   UNL     1      34.310  -5.745  30.045  0.00  0.00    +0.000 A 
ATOM     19  F   UNL     1      34.420  -5.757  28.678  0.00  0.00    +0.000 F 
ATOM     20  C   UNL     1      35.389  -5.926  30.873  0.00  0.00    +0.000 A 
ATOM     21  C   UNL     1      35.311  -5.919  32.249  0.00  0.00    +0.000 A 
ENDBRANCH  14  15
ENDBRANCH  13  14
TORSDOF 2
ENDMDL
MODEL 8
REMARK VINA RESULT:      -6.0     17.033     19.547
REMARK  Name = 
REMARK  2 active torsions:
REMARK  status: ('A' for Active; 'I' for Inactive)
REMARK    1  A    between atoms: N_13  and  C_14
REMARK    2  A    between atoms: C_14  and  C_15
REMARK                            x       y       z     vdW  Elec       q    Type
REMARK                         _______ _______ _______ _____ _____    ______ ____
ROOT
ATOM      1  O   UNL     1      30.027  24.509  26.962  0.00  0.00    +0.000 OA
ATOM      2  C   UNL     1      29.111  24.309  26.091  0.00  0.00    +0.000 C 
ATOM      3  N   UNL     1      28.887  24.974  24.873  0.00  0.00    +0.000 NA
ATOM      4  C   UNL     1      27.989  24.175  24.065  0.00  0.00    +0.000 C 
ATOM      5  C   UNL     1      28.729  23.257  23.127  0.00  0.00    +0.000 C 
ATOM      6  C   UNL     1      28.464  23.723  21.715  0.00  0.00    +0.000 C 
ATOM      7  C   UNL     1      29.186  25.003  21.381  0.00  0.00    +0.000 C 
ATOM      8  C   UNL     1      29.119  26.011  22.514  0.00  0.00    +0.000 C 
ATOM      9  C   UNL     1      27.681  26.345  22.858  0.00  0.00    +0.000 C 
ATOM     10  C   UNL     1      27.024  25.085  23.363  0.00  0.00    +0.000 C 
ATOM     11  C   UNL     1      27.257  23.359  25.097  0.00  0.00    +0.000 C 
ATOM     12  O   UNL     1      26.133  22.870  24.881  0.00  0.00    +0.000 OA
ATOM     13  N   UNL     1      28.111  23.319  26.227  0.00  0.00    +0.000 N 
ENDROOT
BRANCH  13  14
ATOM     14  C   UNL     1      27.938  22.383  27.327  0.00  0.00    +0.000 C 
BRANCH  14  15
ATOM     15  C   UNL     1      27.471  23.049  28.563  0.00  0.00    +0.000 A 
ATOM     16  C   UNL     1      28.298  23.058  29.661  0.00  0.00    +0.000 A 
ATOM     17  C   UNL     1      27.925  23.659  30.842  0.00  0.00    +0.000 A 
ATOM     18  C   UNL     1      26.698  24.280  30.969  0.00  0.00    +0.000 A 
ATOM     19  F   UNL     1      26.320  24.881  32.141  0.00  0.00    +0.000 F 
ATOM     20  C   UNL     1      25.891  24.256  29.858  0.00  0.00    +0.000 A 
ATOM     21  C   UNL     1      26.243  23.661  28.666  0.00  0.00    +0.000 A 
ENDBRANCH  14  15
ENDBRANCH  13  14
TORSDOF 2
ENDMDL
MODEL 9
REMARK VINA RESULT:      -6.0     17.173     19.771
REMARK  Name = 
REMARK  2 active torsions:
REMARK  status: ('A' for Active; 'I' for Inactive)
REMARK    1  A    between atoms: N_13  and  C_14
REMARK    2  A    between atoms: C_14  and  C_15
REMARK                            x       y       z     vdW  Elec       q    Type
REMARK                         _______ _______ _______ _____ _____    ______ ____
ROOT
ATOM      1  O   UNL     1      25.432  22.897  23.989  0.00  0.00    +0.000 OA
ATOM      2  C   UNL     1      26.622  23.364  24.045  0.00  0.00    +0.000 C 
ATOM      3  N   UNL     1      27.328  24.106  23.083  0.00  0.00    +0.000 NA
ATOM      4  C   UNL     1      28.473  24.724  23.720  0.00  0.00    +0.000 C 
ATOM      5  C   UNL     1      28.174  26.121  24.198  0.00  0.00    +0.000 C 
ATOM      6  C   UNL     1      28.995  27.082  23.370  0.00  0.00    +0.000 C 
ATOM      7  C   UNL     1      28.481  27.219  21.960  0.00  0.00    +0.000 C 
ATOM      8  C   UNL     1      28.086  25.882  21.362  0.00  0.00    +0.000 C 
ATOM      9  C   UNL     1      29.261  24.924  21.353  0.00  0.00    +0.000 C 
ATOM     10  C   UNL     1      29.646  24.657  22.787  0.00  0.00    +0.000 C 
ATOM     11  C   UNL     1      28.715  23.827  24.904  0.00  0.00    +0.000 C 
ATOM     12  O   UNL     1      29.825  23.746  25.459  0.00  0.00    +0.000 OA
ATOM     13  N   UNL     1      27.473  23.193  25.161  0.00  0.00    +0.000 N 
ENDROOT
BRANCH  13  14
ATOM     14  C   UNL     1      27.176  22.490  26.400  0.00  0.00    +0.000 C 
BRANCH  14  15
ATOM     15  C   UNL     1      26.540  23.369  27.405  0.00  0.00    +0.000 A 
ATOM     16  C   UNL     1      26.709  23.077  28.739  0.00  0.00    +0.000 A 
ATOM     17  C   UNL     1      26.144  23.854  29.725  0.00  0.00    +0.000 A 
ATOM     18  C   UNL     1      25.380  24.960  29.411  0.00  0.00    +0.000 A 
ATOM     19  F   UNL     1      24.815  25.739  30.388  0.00  0.00    +0.000 F 
ATOM     20  C   UNL     1      25.227  25.229  28.073  0.00  0.00    +0.000 A 
ATOM     21  C   UNL     1      25.782  24.466  27.069  0.00  0.00    +0.000 A 
ENDBRANCH  14  15
ENDBRANCH  13  14
TORSDOF 2
ENDMDL
MODEL 10
REMARK VINA RESULT:      -6.0     21.184     22.839
REMARK  Name = 
REMARK  2 active torsions:
REMARK  status: ('A' for Active; 'I' for Inactive)
REMARK    1  A    between atoms: N_13  and  C_14
REMARK    2  A    between atoms: C_14  and  C_15
REMARK                            x       y       z     vdW  Elec       q    Type
REMARK                         _______ _______ _______ _____ _____    ______ ____
ROOT
ATOM      1  O   UNL     1      17.008  -9.822  23.120  0.00  0.00    +0.000 OA
ATOM      2  C   UNL     1      17.254  -9.583  24.352  0.00  0.00    +0.000 C 
ATOM      3  N   UNL     1      18.249  -8.762  24.912  0.00  0.00    +0.000 NA
ATOM      4  C   UNL     1      17.913  -8.505  26.298  0.00  0.00    +0.000 C 
ATOM      5  C   UNL     1      17.131  -7.229  26.469  0.00  0.00    +0.000 C 
ATOM      6  C   UNL     1      17.998  -6.249  27.223  0.00  0.00    +0.000 C 
ATOM      7  C   UNL     1      19.124  -5.704  26.383  0.00  0.00    +0.000 C 
ATOM      8  C   UNL     1      19.787  -6.781  25.545  0.00  0.00    +0.000 C 
ATOM      9  C   UNL     1      20.335  -7.889  26.422  0.00  0.00    +0.000 C 
ATOM     10  C   UNL     1      19.169  -8.543  27.119  0.00  0.00    +0.000 C 
ATOM     11  C   UNL     1      17.042  -9.682  26.649  0.00  0.00    +0.000 C 
ATOM     12  O   UNL     1      16.894 -10.071  27.822  0.00  0.00    +0.000 OA
ATOM     13  N   UNL     1      16.516 -10.147  25.418  0.00  0.00    +0.000 N 
ENDROOT
BRANCH  13  14
ATOM     14  C   UNL     1      15.389 -11.061  25.325  0.00  0.00    +0.000 C 
BRANCH  14  15
ATOM     15  C   UNL     1      14.147 -10.481  25.883  0.00  0.00    +0.000 A 
ATOM     16  C   UNL     1      13.689  -9.289  25.372  0.00  0.00    +0.000 A 
ATOM     17  C   UNL     1      12.542  -8.694  25.846  0.00  0.00    +0.000 A 
ATOM     18  C   UNL     1      11.803  -9.275  26.858  0.00  0.00    +0.000 A 
ATOM     19  F   UNL     1      10.659  -8.689  27.335  0.00  0.00    +0.000 F 
ATOM     20  C   UNL     1      12.283 -10.464  27.350  0.00  0.00    +0.000 A 
ATOM     21  C   UNL     1      13.429 -11.077  26.892  0.00  0.00    +0.000 A 
ENDBRANCH  14  15
ENDBRANCH  13  14
TORSDOF 2
ENDMDL
