MODEL 1
REMARK VINA RESULT:      -6.2      0.000      0.000
REMARK  Name = 
REMARK  3 active torsions:
REMARK  status: ('A' for Active; 'I' for Inactive)
REMARK    1  A    between atoms: C_9  and  O_10
REMARK    2  A    between atoms: O_10  and  C_11
REMARK    3  A    between atoms: C_11  and  C_13
REMARK                            x       y       z     vdW  Elec       q    Type
REMARK                         _______ _______ _______ _____ _____    ______ ____
ROOT
ATOM      1  C   UNL     1      31.303  22.796  26.877  0.00  0.00    +0.000 C 
ATOM      2  C   UNL     1      29.922  23.032  26.147  0.00  0.00    +0.000 C 
ATOM      3  C   UNL     1      28.986  22.190  26.878  0.00  0.00    +0.000 C 
ATOM      4  C   UNL     1      30.335  22.351  24.732  0.00  0.00    +0.000 C 
ATOM      5  C   UNL     1      31.537  23.442  24.494  0.00  0.00    +0.000 C 
ATOM      6  C   UNL     1      30.894  24.737  24.906  0.00  0.00    +0.000 C 
ATOM      7  C   UNL     1      29.717  24.377  25.777  0.00  0.00    +0.000 C 
ATOM      8  C   UNL     1      29.322  25.395  26.752  0.00  0.00    +0.000 C 
ATOM      9  C   UNL     1      28.491  24.069  24.804  0.00  0.00    +0.000 C 
ATOM     10  C   UNL     1      29.277  23.112  23.782  0.00  0.00    +0.000 C 
ENDROOT
BRANCH   9  11
ATOM     11  O   UNL     1      27.697  23.105  25.623  0.00  0.00    +0.000 OA
BRANCH  11  12
ATOM     12  C   UNL     1      26.384  23.330  25.899  0.00  0.00    +0.000 C 
ATOM     13  O   UNL     1      25.644  22.716  25.056  0.00  0.00    +0.000 OA
BRANCH  12  14
ATOM     14  C   UNL     1      25.806  24.122  26.957  0.00  0.00    +0.000 A 
ATOM     15  C   UNL     1      26.185  23.819  28.252  0.00  0.00    +0.000 A 
ATOM     16  C   UNL     1      25.711  24.490  29.355  0.00  0.00    +0.000 A 
ATOM     17  C   UNL     1      24.820  25.507  29.168  0.00  0.00    +0.000 A 
ATOM     18  O   UNL     1      24.368  26.159  30.326  0.00  0.00    +0.000 OA
ATOM     19  C   UNL     1      24.422  25.837  27.914  0.00  0.00    +0.000 A 
ATOM     20  C   UNL     1      24.920  25.136  26.806  0.00  0.00    +0.000 A 
ENDBRANCH  12  14
ENDBRANCH  11  12
ENDBRANCH   9  11
TORSDOF 3
ENDMDL
MODEL 2
REMARK VINA RESULT:      -6.1     17.286     18.838
REMARK  Name = 
REMARK  3 active torsions:
REMARK  status: ('A' for Active; 'I' for Inactive)
REMARK    1  A    between atoms: C_9  and  O_10
REMARK    2  A    between atoms: O_10  and  C_11
REMARK    3  A    between atoms: C_11  and  C_13
REMARK                            x       y       z     vdW  Elec       q    Type
REMARK                         _______ _______ _______ _____ _____    ______ ____
ROOT
ATOM      1  C   UNL     1      25.336   9.256  38.346  0.00  0.00    +0.000 C 
ATOM      2  C   UNL     1      23.833   9.657  38.073  0.00  0.00    +0.000 C 
ATOM      3  C   UNL     1      23.065   8.751  38.914  0.00  0.00    +0.000 C 
ATOM      4  C   UNL     1      23.789   9.189  36.519  0.00  0.00    +0.000 C 
ATOM      5  C   UNL     1      24.966  10.255  36.106  0.00  0.00    +0.000 C 
ATOM      6  C   UNL     1      24.567  11.494  36.856  0.00  0.00    +0.000 C 
ATOM      7  C   UNL     1      23.645  11.051  37.964  0.00  0.00    +0.000 C 
ATOM      8  C   UNL     1      23.614  11.920  39.141  0.00  0.00    +0.000 C 
ATOM      9  C   UNL     1      22.180  10.946  37.342  0.00  0.00    +0.000 C 
ATOM     10  C   UNL     1      22.579  10.129  36.018  0.00  0.00    +0.000 C 
ENDROOT
BRANCH   9  11
ATOM     11  O   UNL     1      21.563   9.899  38.209  0.00  0.00    +0.000 OA
BRANCH  11  12
ATOM     12  C   UNL     1      20.216   9.844  38.396  0.00  0.00    +0.000 C 
ATOM     13  O   UNL     1      19.951   9.524  39.605  0.00  0.00    +0.000 OA
BRANCH  12  14
ATOM     14  C   UNL     1      19.161  10.093  37.444  0.00  0.00    +0.000 A 
ATOM     15  C   UNL     1      18.255  11.092  37.752  0.00  0.00    +0.000 A 
ATOM     16  C   UNL     1      17.201  11.433  36.938  0.00  0.00    +0.000 A 
ATOM     17  C   UNL     1      17.033  10.753  35.765  0.00  0.00    +0.000 A 
ATOM     18  O   UNL     1      15.942  11.140  34.973  0.00  0.00    +0.000 OA
ATOM     19  C   UNL     1      17.899   9.766  35.426  0.00  0.00    +0.000 A 
ATOM     20  C   UNL     1      18.966   9.437  36.274  0.00  0.00    +0.000 A 
ENDBRANCH  12  14
ENDBRANCH  11  12
ENDBRANCH   9  11
TORSDOF 3
ENDMDL
MODEL 3
REMARK VINA RESULT:      -6.0      1.078      2.365
REMARK  Name = 
REMARK  3 active torsions:
REMARK  status: ('A' for Active; 'I' for Inactive)
REMARK    1  A    between atoms: C_9  and  O_10
REMARK    2  A    between atoms: O_10  and  C_11
REMARK    3  A    between atoms: C_11  and  C_13
REMARK                            x       y       z     vdW  Elec       q    Type
REMARK                         _______ _______ _______ _____ _____    ______ ____
ROOT
ATOM      1  C   UNL     1      30.936  25.527  24.523  0.00  0.00    +0.000 C 
ATOM      2  C   UNL     1      29.757  24.610  25.035  0.00  0.00    +0.000 C 
ATOM      3  C   UNL     1      28.672  25.543  25.303  0.00  0.00    +0.000 C 
ATOM      4  C   UNL     1      30.470  24.133  26.413  0.00  0.00    +0.000 C 
ATOM      5  C   UNL     1      31.705  23.427  25.596  0.00  0.00    +0.000 C 
ATOM      6  C   UNL     1      30.998  22.731  24.466  0.00  0.00    +0.000 C 
ATOM      7  C   UNL     1      29.653  23.396  24.324  0.00  0.00    +0.000 C 
ATOM      8  C   UNL     1      29.059  23.334  22.988  0.00  0.00    +0.000 C 
ATOM      9  C   UNL     1      28.673  22.703  25.374  0.00  0.00    +0.000 C 
ATOM     10  C   UNL     1      29.659  22.757  26.640  0.00  0.00    +0.000 C 
ENDROOT
BRANCH   9  11
ATOM     11  O   UNL     1      27.707  23.806  25.653  0.00  0.00    +0.000 OA
BRANCH  11  12
ATOM     12  C   UNL     1      26.567  23.582  26.362  0.00  0.00    +0.000 C 
ATOM     13  O   UNL     1      25.675  23.058  25.610  0.00  0.00    +0.000 OA
BRANCH  12  14
ATOM     14  C   UNL     1      26.300  23.853  27.754  0.00  0.00    +0.000 A 
ATOM     15  C   UNL     1      25.656  25.041  28.053  0.00  0.00    +0.000 A 
ATOM     16  C   UNL     1      25.342  25.427  29.335  0.00  0.00    +0.000 A 
ATOM     17  C   UNL     1      25.681  24.602  30.369  0.00  0.00    +0.000 A 
ATOM     18  O   UNL     1      25.338  25.044  31.655  0.00  0.00    +0.000 OA
ATOM     19  C   UNL     1      26.314  23.429  30.118  0.00  0.00    +0.000 A 
ATOM     20  C   UNL     1      26.623  23.058  28.802  0.00  0.00    +0.000 A 
ENDBRANCH  12  14
ENDBRANCH  11  12
ENDBRANCH   9  11
TORSDOF 3
ENDMDL
MODEL 4
REMARK VINA RESULT:      -6.0      1.955      2.809
REMARK  Name = 
REMARK  3 active torsions:
REMARK  status: ('A' for Active; 'I' for Inactive)
REMARK    1  A    between atoms: C_9  and  O_10
REMARK    2  A    between atoms: O_10  and  C_11
REMARK    3  A    between atoms: C_11  and  C_13
REMARK                            x       y       z     vdW  Elec       q    Type
REMARK                         _______ _______ _______ _____ _____    ______ ____
ROOT
ATOM      1  C   UNL     1      29.951  26.495  23.479  0.00  0.00    +0.000 C 
ATOM      2  C   UNL     1      28.793  25.456  23.753  0.00  0.00    +0.000 C 
ATOM      3  C   UNL     1      28.920  25.149  25.171  0.00  0.00    +0.000 C 
ATOM      4  C   UNL     1      29.393  24.255  22.841  0.00  0.00    +0.000 C 
ATOM      5  C   UNL     1      29.311  25.171  21.482  0.00  0.00    +0.000 C 
ATOM      6  C   UNL     1      27.971  25.840  21.616  0.00  0.00    +0.000 C 
ATOM      7  C   UNL     1      27.597  25.771  23.074  0.00  0.00    +0.000 C 
ATOM      8  C   UNL     1      26.698  26.826  23.543  0.00  0.00    +0.000 C 
ATOM      9  C   UNL     1      26.920  24.348  23.318  0.00  0.00    +0.000 C 
ATOM     10  C   UNL     1      28.018  23.464  22.549  0.00  0.00    +0.000 C 
ENDROOT
BRANCH   9  11
ATOM     11  O   UNL     1      27.242  24.107  24.756  0.00  0.00    +0.000 OA
BRANCH  11  12
ATOM     12  C   UNL     1      26.319  23.581  25.606  0.00  0.00    +0.000 C 
ATOM     13  O   UNL     1      25.568  22.754  24.985  0.00  0.00    +0.000 OA
BRANCH  12  14
ATOM     14  C   UNL     1      26.131  23.845  27.012  0.00  0.00    +0.000 A 
ATOM     15  C   UNL     1      26.864  23.080  27.902  0.00  0.00    +0.000 A 
ATOM     16  C   UNL     1      26.781  23.223  29.267  0.00  0.00    +0.000 A 
ATOM     17  C   UNL     1      25.934  24.166  29.776  0.00  0.00    +0.000 A 
ATOM     18  O   UNL     1      25.888  24.270  31.174  0.00  0.00    +0.000 OA
ATOM     19  C   UNL     1      25.197  24.936  28.938  0.00  0.00    +0.000 A 
ATOM     20  C   UNL     1      25.299  24.770  27.549  0.00  0.00    +0.000 A 
ENDBRANCH  12  14
ENDBRANCH  11  12
ENDBRANCH   9  11
TORSDOF 3
ENDMDL
MODEL 5
REMARK VINA RESULT:      -5.9     20.584     22.935
REMARK  Name = 
REMARK  3 active torsions:
REMARK  status: ('A' for Active; 'I' for Inactive)
REMARK    1  A    between atoms: C_9  and  O_10
REMARK    2  A    between atoms: O_10  and  C_11
REMARK    3  A    between atoms: C_11  and  C_13
REMARK                            x       y       z     vdW  Elec       q    Type
REMARK                         _______ _______ _______ _____ _____    ______ ____
ROOT
ATOM      1  C   UNL     1      15.811   7.612  42.875  0.00  0.00    +0.000 C 
ATOM      2  C   UNL     1      16.848   8.076  41.778  0.00  0.00    +0.000 C 
ATOM      3  C   UNL     1      16.127   9.079  41.008  0.00  0.00    +0.000 C 
ATOM      4  C   UNL     1      16.921   6.666  40.976  0.00  0.00    +0.000 C 
ATOM      5  C   UNL     1      17.487   5.878  42.298  0.00  0.00    +0.000 C 
ATOM      6  C   UNL     1      18.499   6.843  42.850  0.00  0.00    +0.000 C 
ATOM      7  C   UNL     1      18.162   8.196  42.278  0.00  0.00    +0.000 C 
ATOM      8  C   UNL     1      18.577   9.342  43.088  0.00  0.00    +0.000 C 
ATOM      9  C   UNL     1      18.850   8.283  40.841  0.00  0.00    +0.000 C 
ATOM     10  C   UNL     1      18.374   6.849  40.300  0.00  0.00    +0.000 C 
ENDROOT
BRANCH   9  11
ATOM     11  O   UNL     1      17.939   9.230  40.132  0.00  0.00    +0.000 OA
BRANCH  11  12
ATOM     12  C   UNL     1      18.392  10.019  39.120  0.00  0.00    +0.000 C 
ATOM     13  O   UNL     1      19.307  10.803  39.548  0.00  0.00    +0.000 OA
BRANCH  12  14
ATOM     14  C   UNL     1      17.976  10.046  37.739  0.00  0.00    +0.000 A 
ATOM     15  C   UNL     1      16.822  10.750  37.441  0.00  0.00    +0.000 A 
ATOM     16  C   UNL     1      16.310  10.857  36.170  0.00  0.00    +0.000 A 
ATOM     17  C   UNL     1      16.967  10.239  35.146  0.00  0.00    +0.000 A 
ATOM     18  O   UNL     1      16.402  10.379  33.869  0.00  0.00    +0.000 OA
ATOM     19  C   UNL     1      18.102   9.539  35.395  0.00  0.00    +0.000 A 
ATOM     20  C   UNL     1      18.604   9.444  36.700  0.00  0.00    +0.000 A 
ENDBRANCH  12  14
ENDBRANCH  11  12
ENDBRANCH   9  11
TORSDOF 3
ENDMDL
MODEL 6
REMARK VINA RESULT:      -5.8      3.872      5.716
REMARK  Name = 
REMARK  3 active torsions:
REMARK  status: ('A' for Active; 'I' for Inactive)
REMARK    1  A    between atoms: C_9  and  O_10
REMARK    2  A    between atoms: O_10  and  C_11
REMARK    3  A    between atoms: C_11  and  C_13
REMARK                            x       y       z     vdW  Elec       q    Type
REMARK                         _______ _______ _______ _____ _____    ______ ____
ROOT
ATOM      1  C   UNL     1      28.035  22.604  26.083  0.00  0.00    +0.000 C 
ATOM      2  C   UNL     1      28.760  23.380  24.915  0.00  0.00    +0.000 C 
ATOM      3  C   UNL     1      27.914  23.144  23.753  0.00  0.00    +0.000 C 
ATOM      4  C   UNL     1      30.090  22.450  24.865  0.00  0.00    +0.000 C 
ATOM      5  C   UNL     1      30.483  22.831  26.412  0.00  0.00    +0.000 C 
ATOM      6  C   UNL     1      30.218  24.310  26.464  0.00  0.00    +0.000 C 
ATOM      7  C   UNL     1      29.287  24.623  25.321  0.00  0.00    +0.000 C 
ATOM      8  C   UNL     1      28.435  25.798  25.508  0.00  0.00    +0.000 C 
ATOM      9  C   UNL     1      30.190  24.824  24.022  0.00  0.00    +0.000 C 
ATOM     10  C   UNL     1      31.105  23.516  24.206  0.00  0.00    +0.000 C 
ENDROOT
BRANCH   9  11
ATOM     11  O   UNL     1      29.245  24.423  22.937  0.00  0.00    +0.000 OA
BRANCH  11  12
ATOM     12  C   UNL     1      29.274  25.028  21.719  0.00  0.00    +0.000 C 
ATOM     13  O   UNL     1      29.743  24.228  20.839  0.00  0.00    +0.000 OA
BRANCH  12  14
ATOM     14  C   UNL     1      28.860  26.364  21.364  0.00  0.00    +0.000 A 
ATOM     15  C   UNL     1      27.727  26.860  21.983  0.00  0.00    +0.000 A 
ATOM     16  C   UNL     1      27.220  28.114  21.738  0.00  0.00    +0.000 A 
ATOM     17  C   UNL     1      27.862  28.915  20.838  0.00  0.00    +0.000 A 
ATOM     18  O   UNL     1      27.304  30.184  20.624  0.00  0.00    +0.000 OA
ATOM     19  C   UNL     1      28.977  28.467  20.208  0.00  0.00    +0.000 A 
ATOM     20  C   UNL     1      29.474  27.183  20.476  0.00  0.00    +0.000 A 
ENDBRANCH  12  14
ENDBRANCH  11  12
ENDBRANCH   9  11
TORSDOF 3
ENDMDL
MODEL 7
REMARK VINA RESULT:      -5.8      2.216      5.538
REMARK  Name = 
REMARK  3 active torsions:
REMARK  status: ('A' for Active; 'I' for Inactive)
REMARK    1  A    between atoms: C_9  and  O_10
REMARK    2  A    between atoms: O_10  and  C_11
REMARK    3  A    between atoms: C_11  and  C_13
REMARK                            x       y       z     vdW  Elec       q    Type
REMARK                         _______ _______ _______ _____ _____    ______ ____
ROOT
ATOM      1  C   UNL     1      29.146  25.523  29.547  0.00  0.00    +0.000 C 
ATOM      2  C   UNL     1      28.300  24.624  28.564  0.00  0.00    +0.000 C 
ATOM      3  C   UNL     1      28.066  25.481  27.410  0.00  0.00    +0.000 C 
ATOM      4  C   UNL     1      26.971  24.522  29.492  0.00  0.00    +0.000 C 
ATOM      5  C   UNL     1      27.803  23.785  30.699  0.00  0.00    +0.000 C 
ATOM      6  C   UNL     1      28.661  22.800  29.955  0.00  0.00    +0.000 C 
ATOM      7  C   UNL     1      28.736  23.283  28.529  0.00  0.00    +0.000 C 
ATOM      8  C   UNL     1      29.934  22.880  27.791  0.00  0.00    +0.000 C 
ATOM      9  C   UNL     1      27.440  22.733  27.778  0.00  0.00    +0.000 C 
ATOM     10  C   UNL     1      26.365  23.152  28.895  0.00  0.00    +0.000 C 
ENDROOT
BRANCH   9  11
ATOM     11  O   UNL     1      27.246  23.770  26.721  0.00  0.00    +0.000 OA
BRANCH  11  12
ATOM     12  C   UNL     1      27.006  23.420  25.428  0.00  0.00    +0.000 C 
ATOM     13  O   UNL     1      25.928  22.737  25.348  0.00  0.00    +0.000 OA
BRANCH  12  14
ATOM     14  C   UNL     1      27.783  23.724  24.251  0.00  0.00    +0.000 A 
ATOM     15  C   UNL     1      27.092  23.880  23.061  0.00  0.00    +0.000 A 
ATOM     16  C   UNL     1      27.705  24.168  21.865  0.00  0.00    +0.000 A 
ATOM     17  C   UNL     1      29.063  24.307  21.842  0.00  0.00    +0.000 A 
ATOM     18  O   UNL     1      29.638  24.600  20.596  0.00  0.00    +0.000 OA
ATOM     19  C   UNL     1      29.777  24.162  22.986  0.00  0.00    +0.000 A 
ATOM     20  C   UNL     1      29.129  23.868  24.194  0.00  0.00    +0.000 A 
ENDBRANCH  12  14
ENDBRANCH  11  12
ENDBRANCH   9  11
TORSDOF 3
ENDMDL
MODEL 8
REMARK VINA RESULT:      -5.8      4.057      6.184
REMARK  Name = 
REMARK  3 active torsions:
REMARK  status: ('A' for Active; 'I' for Inactive)
REMARK    1  A    between atoms: C_9  and  O_10
REMARK    2  A    between atoms: O_10  and  C_11
REMARK    3  A    between atoms: C_11  and  C_13
REMARK                            x       y       z     vdW  Elec       q    Type
REMARK                         _______ _______ _______ _____ _____    ______ ____
ROOT
ATOM      1  C   UNL     1      30.026  24.859  26.826  0.00  0.00    +0.000 C 
ATOM      2  C   UNL     1      29.693  24.580  25.308  0.00  0.00    +0.000 C 
ATOM      3  C   UNL     1      29.711  25.899  24.692  0.00  0.00    +0.000 C 
ATOM      4  C   UNL     1      28.170  24.065  25.538  0.00  0.00    +0.000 C 
ATOM      5  C   UNL     1      28.675  22.811  26.467  0.00  0.00    +0.000 C 
ATOM      6  C   UNL     1      29.870  22.300  25.711  0.00  0.00    +0.000 C 
ATOM      7  C   UNL     1      30.322  23.420  24.810  0.00  0.00    +0.000 C 
ATOM      8  C   UNL     1      31.741  23.405  24.452  0.00  0.00    +0.000 C 
ATOM      9  C   UNL     1      29.439  23.341  23.484  0.00  0.00    +0.000 C 
ATOM     10  C   UNL     1      28.010  23.181  24.199  0.00  0.00    +0.000 C 
ENDROOT
BRANCH   9  11
ATOM     11  O   UNL     1      29.436  24.768  23.043  0.00  0.00    +0.000 OA
BRANCH  11  12
ATOM     12  C   UNL     1      29.302  25.099  21.730  0.00  0.00    +0.000 C 
ATOM     13  O   UNL     1      29.724  24.146  20.989  0.00  0.00    +0.000 OA
BRANCH  12  14
ATOM     14  C   UNL     1      28.777  26.312  21.153  0.00  0.00    +0.000 A 
ATOM     15  C   UNL     1      29.548  26.940  20.191  0.00  0.00    +0.000 A 
ATOM     16  C   UNL     1      29.171  28.102  19.561  0.00  0.00    +0.000 A 
ATOM     17  C   UNL     1      27.976  28.671  19.898  0.00  0.00    +0.000 A 
ATOM     18  O   UNL     1      27.640  29.856  19.226  0.00  0.00    +0.000 OA
ATOM     19  C   UNL     1      27.190  28.088  20.836  0.00  0.00    +0.000 A 
ATOM     20  C   UNL     1      27.597  26.903  21.465  0.00  0.00    +0.000 A 
ENDBRANCH  12  14
ENDBRANCH  11  12
ENDBRANCH   9  11
TORSDOF 3
ENDMDL
MODEL 9
REMARK VINA RESULT:      -5.8     31.331     32.726
REMARK  Name = 
REMARK  3 active torsions:
REMARK  status: ('A' for Active; 'I' for Inactive)
REMARK    1  A    between atoms: C_9  and  O_10
REMARK    2  A    between atoms: O_10  and  C_11
REMARK    3  A    between atoms: C_11  and  C_13
REMARK                            x       y       z     vdW  Elec       q    Type
REMARK                         _______ _______ _______ _____ _____    ______ ____
ROOT
ATOM      1  C   UNL     1      23.483 -11.239  22.360  0.00  0.00    +0.000 C 
ATOM      2  C   UNL     1      23.035  -9.785  22.782  0.00  0.00    +0.000 C 
ATOM      3  C   UNL     1      22.164 -10.000  23.929  0.00  0.00    +0.000 C 
ATOM      4  C   UNL     1      22.170  -9.456  21.447  0.00  0.00    +0.000 C 
ATOM      5  C   UNL     1      23.490  -9.616  20.485  0.00  0.00    +0.000 C 
ATOM      6  C   UNL     1      24.556  -8.900  21.267  0.00  0.00    +0.000 C 
ATOM      7  C   UNL     1      24.078  -8.839  22.695  0.00  0.00    +0.000 C 
ATOM      8  C   UNL     1      25.132  -8.758  23.708  0.00  0.00    +0.000 C 
ATOM      9  C   UNL     1      23.124  -7.567  22.817  0.00  0.00    +0.000 C 
ATOM     10  C   UNL     1      22.243  -7.846  21.504  0.00  0.00    +0.000 C 
ENDROOT
BRANCH   9  11
ATOM     11  O   UNL     1      22.215  -7.982  23.926  0.00  0.00    +0.000 OA
BRANCH  11  12
ATOM     12  C   UNL     1      21.925  -7.137  24.953  0.00  0.00    +0.000 C 
ATOM     13  O   UNL     1      22.997  -6.604  25.402  0.00  0.00    +0.000 OA
BRANCH  12  14
ATOM     14  C   UNL     1      20.639  -6.818  25.525  0.00  0.00    +0.000 A 
ATOM     15  C   UNL     1      19.804  -7.877  25.833  0.00  0.00    +0.000 A 
ATOM     16  C   UNL     1      18.553  -7.718  26.380  0.00  0.00    +0.000 A 
ATOM     17  C   UNL     1      18.106  -6.453  26.633  0.00  0.00    +0.000 A 
ATOM     18  O   UNL     1      16.823  -6.347  27.191  0.00  0.00    +0.000 OA
ATOM     19  C   UNL     1      18.893  -5.387  26.346  0.00  0.00    +0.000 A 
ATOM     20  C   UNL     1      20.166  -5.576  25.788  0.00  0.00    +0.000 A 
ENDBRANCH  12  14
ENDBRANCH  11  12
ENDBRANCH   9  11
TORSDOF 3
ENDMDL
MODEL 10
REMARK VINA RESULT:      -5.7     19.983     22.410
REMARK  Name = 
REMARK  3 active torsions:
REMARK  status: ('A' for Active; 'I' for Inactive)
REMARK    1  A    between atoms: C_9  and  O_10
REMARK    2  A    between atoms: O_10  and  C_11
REMARK    3  A    between atoms: C_11  and  C_13
REMARK                            x       y       z     vdW  Elec       q    Type
REMARK                         _______ _______ _______ _____ _____    ______ ____
ROOT
ATOM      1  C   UNL     1      18.766   7.827  43.149  0.00  0.00    +0.000 C 
ATOM      2  C   UNL     1      18.351   8.621  41.849  0.00  0.00    +0.000 C 
ATOM      3  C   UNL     1      19.421   9.592  41.669  0.00  0.00    +0.000 C 
ATOM      4  C   UNL     1      17.025   9.324  42.468  0.00  0.00    +0.000 C 
ATOM      5  C   UNL     1      16.318   7.870  42.750  0.00  0.00    +0.000 C 
ATOM      6  C   UNL     1      16.630   7.103  41.495  0.00  0.00    +0.000 C 
ATOM      7  C   UNL     1      17.804   7.793  40.847  0.00  0.00    +0.000 C 
ATOM      8  C   UNL     1      18.645   6.943  40.003  0.00  0.00    +0.000 C 
ATOM      9  C   UNL     1      17.219   8.994  39.976  0.00  0.00    +0.000 C 
ATOM     10  C   UNL     1      16.229   9.592  41.091  0.00  0.00    +0.000 C 
ENDROOT
BRANCH   9  11
ATOM     11  O   UNL     1      18.361   9.956  39.991  0.00  0.00    +0.000 OA
BRANCH  11  12
ATOM     12  C   UNL     1      18.742  10.614  38.862  0.00  0.00    +0.000 C 
ATOM     13  O   UNL     1      19.643  11.477  39.138  0.00  0.00    +0.000 OA
BRANCH  12  14
ATOM     14  C   UNL     1      18.268  10.440  37.511  0.00  0.00    +0.000 A 
ATOM     15  C   UNL     1      17.284  11.308  37.070  0.00  0.00    +0.000 A 
ATOM     16  C   UNL     1      16.741  11.254  35.808  0.00  0.00    +0.000 A 
ATOM     17  C   UNL     1      17.188  10.298  34.943  0.00  0.00    +0.000 A 
ATOM     18  O   UNL     1      16.600  10.288  33.669  0.00  0.00    +0.000 OA
ATOM     19  C   UNL     1      18.151   9.428  35.336  0.00  0.00    +0.000 A 
ATOM     20  C   UNL     1      18.690   9.503  36.628  0.00  0.00    +0.000 A 
ENDBRANCH  12  14
ENDBRANCH  11  12
ENDBRANCH   9  11
TORSDOF 3
ENDMDL
