MODEL 1
REMARK VINA RESULT:      -7.8      0.000      0.000
REMARK  Name = 
REMARK  6 active torsions:
REMARK  status: ('A' for Active; 'I' for Inactive)
REMARK    1  A    between atoms: C_2  and  C_3
REMARK    2  A    between atoms: C_3  and  C_4
REMARK    3  A    between atoms: C_4  and  N_5
REMARK    4  A    between atoms: C_6  and  C_8
REMARK    5  A    between atoms: N_14  and  C_15
REMARK    6  A    between atoms: C_15  and  C_16
REMARK                            x       y       z     vdW  Elec       q    Type
REMARK                         _______ _______ _______ _____ _____    ______ ____
ROOT
ATOM      1  C   UNL     1      35.108   5.121  14.219  0.00  0.00    +0.000 A 
ATOM      2  C   UNL     1      34.079   4.392  14.771  0.00  0.00    +0.000 A 
ATOM      3  C   UNL     1      34.302   3.169  15.362  0.00  0.00    +0.000 A 
ATOM      4  C   UNL     1      35.567   2.612  15.431  0.00  0.00    +0.000 A 
ATOM      5  C   UNL     1      36.606   3.332  14.881  0.00  0.00    +0.000 A 
ATOM      6  C   UNL     1      36.365   4.563  14.290  0.00  0.00    +0.000 A 
ATOM      7  N   UNL     1      37.993   2.967  14.831  0.00  0.00    +0.000 N 
ATOM      8  C   UNL     1      38.623   1.694  14.825  0.00  0.00    +0.000 C 
ATOM      9  O   UNL     1      39.892   1.653  14.742  0.00  0.00    +0.000 OA
ATOM     10  C   UNL     1      38.025   0.368  14.905  0.00  0.00    +0.000 A 
ATOM     11  C   UNL     1      38.823  -0.606  14.340  0.00  0.00    +0.000 A 
ATOM     12  C   UNL     1      38.434  -1.928  14.314  0.00  0.00    +0.000 A 
ATOM     13  C   UNL     1      37.229  -2.279  14.862  0.00  0.00    +0.000 A 
ATOM     14  C   UNL     1      36.438  -1.297  15.425  0.00  0.00    +0.000 A 
ATOM     15  C   UNL     1      36.823   0.024  15.452  0.00  0.00    +0.000 A 
ATOM     16  S   UNL     1      35.577   1.023  16.248  0.00  0.00    +0.000 S 
ENDROOT
BRANCH   1  18
ATOM     17  N   UNL     1      35.134   7.614  14.301  0.00  0.00    +0.000 NA
ATOM     18  C   UNL     1      34.889   6.423  13.586  0.00  0.00    +0.000 C 
ATOM     19  O   UNL     1      34.482   6.523  12.401  0.00  0.00    +0.000 OA
BRANCH  17  20
ATOM     20  C   UNL     1      34.926   8.938  13.696  0.00  0.00    +0.000 C 
BRANCH  20  21
ATOM     21  C   UNL     1      34.031   9.745  14.633  0.00  0.00    +0.000 C 
BRANCH  21  23
ATOM     22  C   UNL     1      33.065   9.234  16.813  0.00  0.00    +0.000 C 
ATOM     23  C   UNL     1      34.376   9.390  16.063  0.00  0.00    +0.000 C 
ENDBRANCH  21  23
ENDBRANCH  20  21
ENDBRANCH  17  20
ENDBRANCH   1  18
BRANCH   7  24
ATOM     24  C   UNL     1      38.897   4.081  14.773  0.00  0.00    +0.000 C 
BRANCH  24  25
ATOM     25  C   UNL     1      39.170   4.668  16.104  0.00  0.00    +0.000 A 
ATOM     26  C   UNL     1      38.507   4.345  17.247  0.00  0.00    +0.000 A 
ATOM     27  C   UNL     1      38.823   4.940  18.451  0.00  0.00    +0.000 A 
ATOM     28  C   UNL     1      39.824   5.888  18.558  0.00  0.00    +0.000 A 
ATOM     29  C   UNL     1      40.147   6.515  19.864  0.00  0.00    +0.000 C 
ATOM     30  C   UNL     1      40.493   6.211  17.393  0.00  0.00    +0.000 A 
ATOM     31  C   UNL     1      40.180   5.615  16.172  0.00  0.00    +0.000 A 
ENDBRANCH  24  25
ENDBRANCH   7  24
TORSDOF 6
ENDMDL
MODEL 2
REMARK VINA RESULT:      -7.7      4.070      7.458
REMARK  Name = 
REMARK  6 active torsions:
REMARK  status: ('A' for Active; 'I' for Inactive)
REMARK    1  A    between atoms: C_2  and  C_3
REMARK    2  A    between atoms: C_3  and  C_4
REMARK    3  A    between atoms: C_4  and  N_5
REMARK    4  A    between atoms: C_6  and  C_8
REMARK    5  A    between atoms: N_14  and  C_15
REMARK    6  A    between atoms: C_15  and  C_16
REMARK                            x       y       z     vdW  Elec       q    Type
REMARK                         _______ _______ _______ _____ _____    ______ ____
ROOT
ATOM      1  C   UNL     1      39.568  -2.088  15.764  0.00  0.00    +0.000 A 
ATOM      2  C   UNL     1      40.268  -3.077  15.112  0.00  0.00    +0.000 A 
ATOM      3  C   UNL     1      40.844  -2.857  13.881  0.00  0.00    +0.000 A 
ATOM      4  C   UNL     1      40.748  -1.636  13.238  0.00  0.00    +0.000 A 
ATOM      5  C   UNL     1      40.049  -0.636  13.880  0.00  0.00    +0.000 A 
ATOM      6  C   UNL     1      39.475  -0.873  15.121  0.00  0.00    +0.000 A 
ATOM      7  N   UNL     1      39.814   0.702  13.420  0.00  0.00    +0.000 N 
ATOM      8  C   UNL     1      39.744   1.238  12.107  0.00  0.00    +0.000 C 
ATOM      9  O   UNL     1      39.487   2.478  11.977  0.00  0.00    +0.000 OA
ATOM     10  C   UNL     1      39.927   0.569  10.826  0.00  0.00    +0.000 A 
ATOM     11  C   UNL     1      39.274   1.214   9.795  0.00  0.00    +0.000 A 
ATOM     12  C   UNL     1      39.325   0.736   8.503  0.00  0.00    +0.000 A 
ATOM     13  C   UNL     1      40.040  -0.402   8.240  0.00  0.00    +0.000 A 
ATOM     14  C   UNL     1      40.689  -1.039   9.278  0.00  0.00    +0.000 A 
ATOM     15  C   UNL     1      40.641  -0.566  10.570  0.00  0.00    +0.000 A 
ATOM     16  S   UNL     1      41.582  -1.620  11.659  0.00  0.00    +0.000 S 
ENDROOT
BRANCH   1  18
ATOM     17  N   UNL     1      38.106  -1.322  17.635  0.00  0.00    +0.000 NA
ATOM     18  C   UNL     1      38.949  -2.303  17.074  0.00  0.00    +0.000 C 
ATOM     19  O   UNL     1      39.146  -3.356  17.733  0.00  0.00    +0.000 OA
BRANCH  17  20
ATOM     20  C   UNL     1      37.469  -1.506  18.947  0.00  0.00    +0.000 C 
BRANCH  20  21
ATOM     21  C   UNL     1      36.294  -0.536  19.037  0.00  0.00    +0.000 C 
BRANCH  21  23
ATOM     22  C   UNL     1      34.757  -0.295  17.160  0.00  0.00    +0.000 C 
ATOM     23  C   UNL     1      36.112   0.135  17.693  0.00  0.00    +0.000 C 
ENDBRANCH  21  23
ENDBRANCH  20  21
ENDBRANCH  17  20
ENDBRANCH   1  18
BRANCH   7  24
ATOM     24  C   UNL     1      39.613   1.663  14.468  0.00  0.00    +0.000 C 
BRANCH  24  25
ATOM     25  C   UNL     1      38.188   2.017  14.657  0.00  0.00    +0.000 A 
ATOM     26  C   UNL     1      37.141   1.346  14.108  0.00  0.00    +0.000 A 
ATOM     27  C   UNL     1      35.839   1.741  14.332  0.00  0.00    +0.000 A 
ATOM     28  C   UNL     1      35.532   2.834  15.122  0.00  0.00    +0.000 A 
ATOM     29  C   UNL     1      34.124   3.242  15.350  0.00  0.00    +0.000 C 
ATOM     30  C   UNL     1      36.601   3.512  15.677  0.00  0.00    +0.000 A 
ATOM     31  C   UNL     1      37.920   3.119  15.454  0.00  0.00    +0.000 A 
ENDBRANCH  24  25
ENDBRANCH   7  24
TORSDOF 6
ENDMDL
MODEL 3
REMARK VINA RESULT:      -7.6      3.174      6.216
REMARK  Name = 
REMARK  6 active torsions:
REMARK  status: ('A' for Active; 'I' for Inactive)
REMARK    1  A    between atoms: C_2  and  C_3
REMARK    2  A    between atoms: C_3  and  C_4
REMARK    3  A    between atoms: C_4  and  N_5
REMARK    4  A    between atoms: C_6  and  C_8
REMARK    5  A    between atoms: N_14  and  C_15
REMARK    6  A    between atoms: C_15  and  C_16
REMARK                            x       y       z     vdW  Elec       q    Type
REMARK                         _______ _______ _______ _____ _____    ______ ____
ROOT
ATOM      1  C   UNL     1      36.852   2.093  15.834  0.00  0.00    +0.000 A 
ATOM      2  C   UNL     1      35.629   2.197  16.457  0.00  0.00    +0.000 A 
ATOM      3  C   UNL     1      34.926   1.079  16.850  0.00  0.00    +0.000 A 
ATOM      4  C   UNL     1      35.412  -0.199  16.641  0.00  0.00    +0.000 A 
ATOM      5  C   UNL     1      36.636  -0.317  16.017  0.00  0.00    +0.000 A 
ATOM      6  C   UNL     1      37.331   0.819  15.627  0.00  0.00    +0.000 A 
ATOM      7  N   UNL     1      37.340  -1.524  15.692  0.00  0.00    +0.000 N 
ATOM      8  C   UNL     1      36.868  -2.837  15.428  0.00  0.00    +0.000 C 
ATOM      9  O   UNL     1      37.721  -3.733  15.130  0.00  0.00    +0.000 OA
ATOM     10  C   UNL     1      35.504  -3.349  15.445  0.00  0.00    +0.000 A 
ATOM     11  C   UNL     1      35.347  -4.459  14.641  0.00  0.00    +0.000 A 
ATOM     12  C   UNL     1      34.128  -5.092  14.521  0.00  0.00    +0.000 A 
ATOM     13  C   UNL     1      33.053  -4.605  15.215  0.00  0.00    +0.000 A 
ATOM     14  C   UNL     1      33.221  -3.493  16.016  0.00  0.00    +0.000 A 
ATOM     15  C   UNL     1      34.436  -2.858  16.139  0.00  0.00    +0.000 A 
ATOM     16  S   UNL     1      34.306  -1.465  17.245  0.00  0.00    +0.000 S 
ENDROOT
BRANCH   1  18
ATOM     17  N   UNL     1      38.505   3.902  16.299  0.00  0.00    +0.000 NA
ATOM     18  C   UNL     1      37.613   3.269  15.409  0.00  0.00    +0.000 C 
ATOM     19  O   UNL     1      37.498   3.749  14.252  0.00  0.00    +0.000 OA
BRANCH  17  20
ATOM     20  C   UNL     1      39.285   5.085  15.905  0.00  0.00    +0.000 C 
BRANCH  20  21
ATOM     21  C   UNL     1      39.255   6.074  17.067  0.00  0.00    +0.000 C 
BRANCH  21  23
ATOM     22  C   UNL     1      39.724   6.171  19.458  0.00  0.00    +0.000 C 
ATOM     23  C   UNL     1      39.135   5.301  18.363  0.00  0.00    +0.000 C 
ENDBRANCH  21  23
ENDBRANCH  20  21
ENDBRANCH  17  20
ENDBRANCH   1  18
BRANCH   7  24
ATOM     24  C   UNL     1      38.766  -1.376  15.620  0.00  0.00    +0.000 C 
BRANCH  24  25
ATOM     25  C   UNL     1      39.297  -1.589  14.254  0.00  0.00    +0.000 A 
ATOM     26  C   UNL     1      38.725  -1.113  13.116  0.00  0.00    +0.000 A 
ATOM     27  C   UNL     1      39.284  -1.356  11.878  0.00  0.00    +0.000 A 
ATOM     28  C   UNL     1      40.446  -2.090  11.731  0.00  0.00    +0.000 A 
ATOM     29  C   UNL     1      41.029  -2.339  10.389  0.00  0.00    +0.000 C 
ATOM     30  C   UNL     1      41.022  -2.570  12.892  0.00  0.00    +0.000 A 
ATOM     31  C   UNL     1      40.464  -2.329  14.147  0.00  0.00    +0.000 A 
ENDBRANCH  24  25
ENDBRANCH   7  24
TORSDOF 6
ENDMDL
MODEL 4
REMARK VINA RESULT:      -7.6      2.992      7.384
REMARK  Name = 
REMARK  6 active torsions:
REMARK  status: ('A' for Active; 'I' for Inactive)
REMARK    1  A    between atoms: C_2  and  C_3
REMARK    2  A    between atoms: C_3  and  C_4
REMARK    3  A    between atoms: C_4  and  N_5
REMARK    4  A    between atoms: C_6  and  C_8
REMARK    5  A    between atoms: N_14  and  C_15
REMARK    6  A    between atoms: C_15  and  C_16
REMARK                            x       y       z     vdW  Elec       q    Type
REMARK                         _______ _______ _______ _____ _____    ______ ____
ROOT
ATOM      1  C   UNL     1      38.213   3.781  15.223  0.00  0.00    +0.000 A 
ATOM      2  C   UNL     1      38.147   4.432  14.012  0.00  0.00    +0.000 A 
ATOM      3  C   UNL     1      38.139   5.808  13.936  0.00  0.00    +0.000 A 
ATOM      4  C   UNL     1      38.198   6.601  15.068  0.00  0.00    +0.000 A 
ATOM      5  C   UNL     1      38.264   5.961  16.287  0.00  0.00    +0.000 A 
ATOM      6  C   UNL     1      38.272   4.575  16.347  0.00  0.00    +0.000 A 
ATOM      7  N   UNL     1      38.333   6.561  17.588  0.00  0.00    +0.000 N 
ATOM      8  C   UNL     1      37.869   7.817  18.062  0.00  0.00    +0.000 C 
ATOM      9  O   UNL     1      38.034   8.093  19.293  0.00  0.00    +0.000 OA
ATOM     10  C   UNL     1      37.206   8.891  17.333  0.00  0.00    +0.000 A 
ATOM     11  C   UNL     1      36.430   9.685  18.153  0.00  0.00    +0.000 A 
ATOM     12  C   UNL     1      35.720  10.756  17.653  0.00  0.00    +0.000 A 
ATOM     13  C   UNL     1      35.789  11.034  16.314  0.00  0.00    +0.000 A 
ATOM     14  C   UNL     1      36.568  10.234  15.502  0.00  0.00    +0.000 A 
ATOM     15  C   UNL     1      37.278   9.163  15.997  0.00  0.00    +0.000 A 
ATOM     16  S   UNL     1      38.174   8.347  14.689  0.00  0.00    +0.000 S 
ENDROOT
BRANCH   1  18
ATOM     17  N   UNL     1      37.069   1.626  15.742  0.00  0.00    +0.000 NA
ATOM     18  C   UNL     1      38.222   2.320  15.323  0.00  0.00    +0.000 C 
ATOM     19  O   UNL     1      39.245   1.644  15.043  0.00  0.00    +0.000 OA
BRANCH  17  20
ATOM     20  C   UNL     1      37.043   0.160  15.853  0.00  0.00    +0.000 C 
BRANCH  20  21
ATOM     21  C   UNL     1      35.591  -0.269  16.044  0.00  0.00    +0.000 C 
BRANCH  21  23
ATOM     22  C   UNL     1      35.623  -0.199  18.481  0.00  0.00    +0.000 C 
ATOM     23  C   UNL     1      35.023   0.451  17.247  0.00  0.00    +0.000 C 
ENDBRANCH  21  23
ENDBRANCH  20  21
ENDBRANCH  17  20
ENDBRANCH   1  18
BRANCH   7  24
ATOM     24  C   UNL     1      38.978   5.750  18.582  0.00  0.00    +0.000 C 
BRANCH  24  25
ATOM     25  C   UNL     1      40.401   6.109  18.780  0.00  0.00    +0.000 A 
ATOM     26  C   UNL     1      41.296   6.320  17.777  0.00  0.00    +0.000 A 
ATOM     27  C   UNL     1      42.607   6.651  18.045  0.00  0.00    +0.000 A 
ATOM     28  C   UNL     1      43.078   6.786  19.338  0.00  0.00    +0.000 A 
ATOM     29  C   UNL     1      44.494   7.143  19.604  0.00  0.00    +0.000 C 
ATOM     30  C   UNL     1      42.164   6.570  20.352  0.00  0.00    +0.000 A 
ATOM     31  C   UNL     1      40.837   6.234  20.089  0.00  0.00    +0.000 A 
ENDBRANCH  24  25
ENDBRANCH   7  24
TORSDOF 6
ENDMDL
MODEL 5
REMARK VINA RESULT:      -7.5      1.587      2.294
REMARK  Name = 
REMARK  6 active torsions:
REMARK  status: ('A' for Active; 'I' for Inactive)
REMARK    1  A    between atoms: C_2  and  C_3
REMARK    2  A    between atoms: C_3  and  C_4
REMARK    3  A    between atoms: C_4  and  N_5
REMARK    4  A    between atoms: C_6  and  C_8
REMARK    5  A    between atoms: N_14  and  C_15
REMARK    6  A    between atoms: C_15  and  C_16
REMARK                            x       y       z     vdW  Elec       q    Type
REMARK                         _______ _______ _______ _____ _____    ______ ____
ROOT
ATOM      1  C   UNL     1      34.929   4.678  14.421  0.00  0.00    +0.000 A 
ATOM      2  C   UNL     1      34.030   3.816  15.008  0.00  0.00    +0.000 A 
ATOM      3  C   UNL     1      34.438   2.627  15.570  0.00  0.00    +0.000 A 
ATOM      4  C   UNL     1      35.766   2.239  15.573  0.00  0.00    +0.000 A 
ATOM      5  C   UNL     1      36.676   3.093  14.988  0.00  0.00    +0.000 A 
ATOM      6  C   UNL     1      36.250   4.288  14.427  0.00  0.00    +0.000 A 
ATOM      7  N   UNL     1      38.094   2.913  14.868  0.00  0.00    +0.000 N 
ATOM      8  C   UNL     1      38.883   1.733  14.815  0.00  0.00    +0.000 C 
ATOM      9  O   UNL     1      40.141   1.858  14.673  0.00  0.00    +0.000 OA
ATOM     10  C   UNL     1      38.467   0.339  14.901  0.00  0.00    +0.000 A 
ATOM     11  C   UNL     1      39.357  -0.517  14.285  0.00  0.00    +0.000 A 
ATOM     12  C   UNL     1      39.142  -1.878  14.257  0.00  0.00    +0.000 A 
ATOM     13  C   UNL     1      38.020  -2.388  14.854  0.00  0.00    +0.000 A 
ATOM     14  C   UNL     1      37.136  -1.523  15.467  0.00  0.00    +0.000 A 
ATOM     15  C   UNL     1      37.347  -0.164  15.497  0.00  0.00    +0.000 A 
ATOM     16  S   UNL     1      36.021   0.657  16.363  0.00  0.00    +0.000 S 
ENDROOT
BRANCH   1  18
ATOM     17  N   UNL     1      35.009   6.334  12.558  0.00  0.00    +0.000 NA
ATOM     18  C   UNL     1      34.514   5.947  13.820  0.00  0.00    +0.000 C 
ATOM     19  O   UNL     1      33.713   6.723  14.400  0.00  0.00    +0.000 OA
BRANCH  17  20
ATOM     20  C   UNL     1      34.613   7.601  11.924  0.00  0.00    +0.000 C 
BRANCH  20  21
ATOM     21  C   UNL     1      34.224   7.300  10.480  0.00  0.00    +0.000 C 
BRANCH  21  23
ATOM     22  C   UNL     1      34.329   8.079   8.171  0.00  0.00    +0.000 C 
ATOM     23  C   UNL     1      34.773   8.393   9.589  0.00  0.00    +0.000 C 
ENDBRANCH  21  23
ENDBRANCH  20  21
ENDBRANCH  17  20
ENDBRANCH   1  18
BRANCH   7  24
ATOM     24  C   UNL     1      38.843   4.135  14.787  0.00  0.00    +0.000 C 
BRANCH  24  25
ATOM     25  C   UNL     1      39.156   4.707  16.116  0.00  0.00    +0.000 A 
ATOM     26  C   UNL     1      38.507   4.392  17.269  0.00  0.00    +0.000 A 
ATOM     27  C   UNL     1      38.860   4.971  18.471  0.00  0.00    +0.000 A 
ATOM     28  C   UNL     1      39.885   5.894  18.565  0.00  0.00    +0.000 A 
ATOM     29  C   UNL     1      40.248   6.504  19.868  0.00  0.00    +0.000 C 
ATOM     30  C   UNL     1      40.540   6.209  17.389  0.00  0.00    +0.000 A 
ATOM     31  C   UNL     1      40.189   5.629  16.171  0.00  0.00    +0.000 A 
ENDBRANCH  24  25
ENDBRANCH   7  24
TORSDOF 6
ENDMDL
MODEL 6
REMARK VINA RESULT:      -7.5      3.530      6.852
REMARK  Name = 
REMARK  6 active torsions:
REMARK  status: ('A' for Active; 'I' for Inactive)
REMARK    1  A    between atoms: C_2  and  C_3
REMARK    2  A    between atoms: C_3  and  C_4
REMARK    3  A    between atoms: C_4  and  N_5
REMARK    4  A    between atoms: C_6  and  C_8
REMARK    5  A    between atoms: N_14  and  C_15
REMARK    6  A    between atoms: C_15  and  C_16
REMARK                            x       y       z     vdW  Elec       q    Type
REMARK                         _______ _______ _______ _____ _____    ______ ____
ROOT
ATOM      1  C   UNL     1      38.062   2.106  14.567  0.00  0.00    +0.000 A 
ATOM      2  C   UNL     1      38.106   2.411  13.226  0.00  0.00    +0.000 A 
ATOM      3  C   UNL     1      38.599   1.516  12.302  0.00  0.00    +0.000 A 
ATOM      4  C   UNL     1      39.073   0.271  12.673  0.00  0.00    +0.000 A 
ATOM      5  C   UNL     1      39.036  -0.047  14.014  0.00  0.00    +0.000 A 
ATOM      6  C   UNL     1      38.535   0.865  14.932  0.00  0.00    +0.000 A 
ATOM      7  N   UNL     1      39.467  -1.265  14.638  0.00  0.00    +0.000 N 
ATOM      8  C   UNL     1      40.446  -2.217  14.247  0.00  0.00    +0.000 C 
ATOM      9  O   UNL     1      40.656  -3.211  15.013  0.00  0.00    +0.000 OA
ATOM     10  C   UNL     1      41.285  -2.243  13.057  0.00  0.00    +0.000 A 
ATOM     11  C   UNL     1      42.451  -2.955  13.248  0.00  0.00    +0.000 A 
ATOM     12  C   UNL     1      43.381  -3.096  12.240  0.00  0.00    +0.000 A 
ATOM     13  C   UNL     1      43.138  -2.515  11.024  0.00  0.00    +0.000 A 
ATOM     14  C   UNL     1      41.969  -1.804  10.843  0.00  0.00    +0.000 A 
ATOM     15  C   UNL     1      41.039  -1.661  11.847  0.00  0.00    +0.000 A 
ATOM     16  S   UNL     1      39.653  -0.690  11.283  0.00  0.00    +0.000 S 
ENDROOT
BRANCH   1  18
ATOM     17  N   UNL     1      38.425   3.801  16.361  0.00  0.00    +0.000 NA
ATOM     18  C   UNL     1      37.542   3.044  15.564  0.00  0.00    +0.000 C 
ATOM     19  O   UNL     1      36.307   3.204  15.739  0.00  0.00    +0.000 OA
BRANCH  17  20
ATOM     20  C   UNL     1      37.936   4.752  17.371  0.00  0.00    +0.000 C 
BRANCH  20  21
ATOM     21  C   UNL     1      39.024   4.912  18.428  0.00  0.00    +0.000 C 
BRANCH  21  23
ATOM     22  C   UNL     1      40.164   6.480  19.907  0.00  0.00    +0.000 C 
ATOM     23  C   UNL     1      39.144   6.377  18.787  0.00  0.00    +0.000 C 
ENDBRANCH  21  23
ENDBRANCH  20  21
ENDBRANCH  17  20
ENDBRANCH   1  18
BRANCH   7  24
ATOM     24  C   UNL     1      38.795  -1.571  15.869  0.00  0.00    +0.000 C 
BRANCH  24  25
ATOM     25  C   UNL     1      37.496  -2.250  15.660  0.00  0.00    +0.000 A 
ATOM     26  C   UNL     1      37.192  -3.034  14.591  0.00  0.00    +0.000 A 
ATOM     27  C   UNL     1      35.955  -3.632  14.471  0.00  0.00    +0.000 A 
ATOM     28  C   UNL     1      34.967  -3.469  15.423  0.00  0.00    +0.000 A 
ATOM     29  C   UNL     1      33.643  -4.123  15.273  0.00  0.00    +0.000 C 
ATOM     30  C   UNL     1      35.283  -2.672  16.507  0.00  0.00    +0.000 A 
ATOM     31  C   UNL     1      36.530  -2.062  16.636  0.00  0.00    +0.000 A 
ENDBRANCH  24  25
ENDBRANCH   7  24
TORSDOF 6
ENDMDL
MODEL 7
REMARK VINA RESULT:      -7.5      2.642      6.761
REMARK  Name = 
REMARK  6 active torsions:
REMARK  status: ('A' for Active; 'I' for Inactive)
REMARK    1  A    between atoms: C_2  and  C_3
REMARK    2  A    between atoms: C_3  and  C_4
REMARK    3  A    between atoms: C_4  and  N_5
REMARK    4  A    between atoms: C_6  and  C_8
REMARK    5  A    between atoms: N_14  and  C_15
REMARK    6  A    between atoms: C_15  and  C_16
REMARK                            x       y       z     vdW  Elec       q    Type
REMARK                         _______ _______ _______ _____ _____    ______ ____
ROOT
ATOM      1  C   UNL     1      37.866   0.189  14.415  0.00  0.00    +0.000 A 
ATOM      2  C   UNL     1      38.368   0.071  13.139  0.00  0.00    +0.000 A 
ATOM      3  C   UNL     1      38.466   1.161  12.303  0.00  0.00    +0.000 A 
ATOM      4  C   UNL     1      38.068   2.425  12.701  0.00  0.00    +0.000 A 
ATOM      5  C   UNL     1      37.563   2.556  13.977  0.00  0.00    +0.000 A 
ATOM      6  C   UNL     1      37.471   1.448  14.808  0.00  0.00    +0.000 A 
ATOM      7  N   UNL     1      37.088   3.752  14.612  0.00  0.00    +0.000 N 
ATOM      8  C   UNL     1      36.531   4.939  14.068  0.00  0.00    +0.000 C 
ATOM      9  O   UNL     1      36.158   5.851  14.872  0.00  0.00    +0.000 OA
ATOM     10  C   UNL     1      36.310   5.300  12.673  0.00  0.00    +0.000 A 
ATOM     11  C   UNL     1      35.297   6.225  12.522  0.00  0.00    +0.000 A 
ATOM     12  C   UNL     1      34.933   6.694  11.277  0.00  0.00    +0.000 A 
ATOM     13  C   UNL     1      35.593   6.230  10.171  0.00  0.00    +0.000 A 
ATOM     14  C   UNL     1      36.604   5.304  10.333  0.00  0.00    +0.000 A 
ATOM     15  C   UNL     1      36.970   4.833  11.574  0.00  0.00    +0.000 A 
ATOM     16  S   UNL     1      38.303   3.656  11.428  0.00  0.00    +0.000 S 
ENDROOT
BRANCH   1  18
ATOM     17  N   UNL     1      38.449  -0.972  16.545  0.00  0.00    +0.000 NA
ATOM     18  C   UNL     1      37.754  -0.958  15.318  0.00  0.00    +0.000 C 
ATOM     19  O   UNL     1      37.044  -1.957  15.034  0.00  0.00    +0.000 OA
BRANCH  17  20
ATOM     20  C   UNL     1      38.358  -2.107  17.475  0.00  0.00    +0.000 C 
BRANCH  20  21
ATOM     21  C   UNL     1      37.798  -1.586  18.796  0.00  0.00    +0.000 C 
BRANCH  21  23
ATOM     22  C   UNL     1      35.994   0.038  19.021  0.00  0.00    +0.000 C 
ATOM     23  C   UNL     1      36.303  -1.402  18.653  0.00  0.00    +0.000 C 
ENDBRANCH  21  23
ENDBRANCH  20  21
ENDBRANCH  17  20
ENDBRANCH   1  18
BRANCH   7  24
ATOM     24  C   UNL     1      37.193   3.744  16.044  0.00  0.00    +0.000 C 
BRANCH  24  25
ATOM     25  C   UNL     1      38.353   4.520  16.539  0.00  0.00    +0.000 A 
ATOM     26  C   UNL     1      39.350   5.011  15.756  0.00  0.00    +0.000 A 
ATOM     27  C   UNL     1      40.399   5.726  16.296  0.00  0.00    +0.000 A 
ATOM     28  C   UNL     1      40.490   5.981  17.652  0.00  0.00    +0.000 A 
ATOM     29  C   UNL     1      41.627   6.752  18.212  0.00  0.00    +0.000 C 
ATOM     30  C   UNL     1      39.472   5.479  18.442  0.00  0.00    +0.000 A 
ATOM     31  C   UNL     1      38.410   4.755  17.904  0.00  0.00    +0.000 A 
ENDBRANCH  24  25
ENDBRANCH   7  24
TORSDOF 6
ENDMDL
MODEL 8
REMARK VINA RESULT:      -7.4      2.237      6.965
REMARK  Name = 
REMARK  6 active torsions:
REMARK  status: ('A' for Active; 'I' for Inactive)
REMARK    1  A    between atoms: C_2  and  C_3
REMARK    2  A    between atoms: C_3  and  C_4
REMARK    3  A    between atoms: C_4  and  N_5
REMARK    4  A    between atoms: C_6  and  C_8
REMARK    5  A    between atoms: N_14  and  C_15
REMARK    6  A    between atoms: C_15  and  C_16
REMARK                            x       y       z     vdW  Elec       q    Type
REMARK                         _______ _______ _______ _____ _____    ______ ____
ROOT
ATOM      1  C   UNL     1      36.120   2.166  16.428  0.00  0.00    +0.000 A 
ATOM      2  C   UNL     1      34.903   2.194  15.785  0.00  0.00    +0.000 A 
ATOM      3  C   UNL     1      34.539   3.253  14.984  0.00  0.00    +0.000 A 
ATOM      4  C   UNL     1      35.373   4.339  14.784  0.00  0.00    +0.000 A 
ATOM      5  C   UNL     1      36.595   4.323  15.423  0.00  0.00    +0.000 A 
ATOM      6  C   UNL     1      36.948   3.248  16.226  0.00  0.00    +0.000 A 
ATOM      7  N   UNL     1      37.622   5.323  15.373  0.00  0.00    +0.000 N 
ATOM      8  C   UNL     1      37.551   6.722  15.139  0.00  0.00    +0.000 C 
ATOM      9  O   UNL     1      38.631   7.393  15.180  0.00  0.00    +0.000 OA
ATOM     10  C   UNL     1      36.389   7.551  14.845  0.00  0.00    +0.000 A 
ATOM     11  C   UNL     1      36.575   8.869  15.211  0.00  0.00    +0.000 A 
ATOM     12  C   UNL     1      35.590   9.814  15.016  0.00  0.00    +0.000 A 
ATOM     13  C   UNL     1      34.404   9.433  14.447  0.00  0.00    +0.000 A 
ATOM     14  C   UNL     1      34.228   8.112  14.086  0.00  0.00    +0.000 A 
ATOM     15  C   UNL     1      35.209   7.165  14.279  0.00  0.00    +0.000 A 
ATOM     16  S   UNL     1      34.660   5.569  13.704  0.00  0.00    +0.000 S 
ENDROOT
BRANCH   1  18
ATOM     17  N   UNL     1      36.853  -0.201  16.718  0.00  0.00    +0.000 NA
ATOM     18  C   UNL     1      36.525   1.048  17.283  0.00  0.00    +0.000 C 
ATOM     19  O   UNL     1      36.592   1.163  18.533  0.00  0.00    +0.000 OA
BRANCH  17  20
ATOM     20  C   UNL     1      37.264  -1.344  17.547  0.00  0.00    +0.000 C 
BRANCH  20  21
ATOM     21  C   UNL     1      38.502  -1.965  16.908  0.00  0.00    +0.000 C 
BRANCH  21  23
ATOM     22  C   UNL     1      39.926  -1.228  15.071  0.00  0.00    +0.000 C 
ATOM     23  C   UNL     1      38.508  -1.632  15.432  0.00  0.00    +0.000 C 
ENDBRANCH  21  23
ENDBRANCH  20  21
ENDBRANCH  17  20
ENDBRANCH   1  18
BRANCH   7  24
ATOM     24  C   UNL     1      38.949   4.823  15.600  0.00  0.00    +0.000 C 
BRANCH  24  25
ATOM     25  C   UNL     1      39.555   5.348  16.844  0.00  0.00    +0.000 A 
ATOM     26  C   UNL     1      38.970   5.304  18.072  0.00  0.00    +0.000 A 
ATOM     27  C   UNL     1      39.603   5.816  19.185  0.00  0.00    +0.000 A 
ATOM     28  C   UNL     1      40.856   6.397  19.113  0.00  0.00    +0.000 A 
ATOM     29  C   UNL     1      41.518   6.942  20.324  0.00  0.00    +0.000 C 
ATOM     30  C   UNL     1      41.444   6.438  17.862  0.00  0.00    +0.000 A 
ATOM     31  C   UNL     1      40.811   5.923  16.732  0.00  0.00    +0.000 A 
ENDBRANCH  24  25
ENDBRANCH   7  24
TORSDOF 6
ENDMDL
MODEL 9
REMARK VINA RESULT:      -7.2      2.996      7.877
REMARK  Name = 
REMARK  6 active torsions:
REMARK  status: ('A' for Active; 'I' for Inactive)
REMARK    1  A    between atoms: C_2  and  C_3
REMARK    2  A    between atoms: C_3  and  C_4
REMARK    3  A    between atoms: C_4  and  N_5
REMARK    4  A    between atoms: C_6  and  C_8
REMARK    5  A    between atoms: N_14  and  C_15
REMARK    6  A    between atoms: C_15  and  C_16
REMARK                            x       y       z     vdW  Elec       q    Type
REMARK                         _______ _______ _______ _____ _____    ______ ____
ROOT
ATOM      1  C   UNL     1      38.212   3.712  15.178  0.00  0.00    +0.000 A 
ATOM      2  C   UNL     1      38.132   4.360  13.966  0.00  0.00    +0.000 A 
ATOM      3  C   UNL     1      38.109   5.735  13.886  0.00  0.00    +0.000 A 
ATOM      4  C   UNL     1      38.167   6.532  15.016  0.00  0.00    +0.000 A 
ATOM      5  C   UNL     1      38.248   5.895  16.236  0.00  0.00    +0.000 A 
ATOM      6  C   UNL     1      38.270   4.509  16.299  0.00  0.00    +0.000 A 
ATOM      7  N   UNL     1      38.318   6.499  17.536  0.00  0.00    +0.000 N 
ATOM      8  C   UNL     1      37.845   7.752  18.008  0.00  0.00    +0.000 C 
ATOM      9  O   UNL     1      38.015   8.032  19.238  0.00  0.00    +0.000 OA
ATOM     10  C   UNL     1      37.167   8.817  17.282  0.00  0.00    +0.000 A 
ATOM     11  C   UNL     1      36.388   9.605  18.104  0.00  0.00    +0.000 A 
ATOM     12  C   UNL     1      35.664  10.667  17.606  0.00  0.00    +0.000 A 
ATOM     13  C   UNL     1      35.722  10.943  16.266  0.00  0.00    +0.000 A 
ATOM     14  C   UNL     1      36.503  10.149  15.452  0.00  0.00    +0.000 A 
ATOM     15  C   UNL     1      37.227   9.087  15.945  0.00  0.00    +0.000 A 
ATOM     16  S   UNL     1      38.123   8.276  14.633  0.00  0.00    +0.000 S 
ENDROOT
BRANCH   1  18
ATOM     17  N   UNL     1      39.293   1.514  14.708  0.00  0.00    +0.000 NA
ATOM     18  C   UNL     1      38.237   2.252  15.281  0.00  0.00    +0.000 C 
ATOM     19  O   UNL     1      37.330   1.616  15.877  0.00  0.00    +0.000 OA
BRANCH  17  20
ATOM     20  C   UNL     1      39.349   0.046  14.794  0.00  0.00    +0.000 C 
BRANCH  20  21
ATOM     21  C   UNL     1      40.744  -0.394  14.362  0.00  0.00    +0.000 C 
BRANCH  21  23
ATOM     22  C   UNL     1      40.570  -2.704  15.125  0.00  0.00    +0.000 C 
ATOM     23  C   UNL     1      40.678  -1.830  13.888  0.00  0.00    +0.000 C 
ENDBRANCH  21  23
ENDBRANCH  20  21
ENDBRANCH  17  20
ENDBRANCH   1  18
BRANCH   7  24
ATOM     24  C   UNL     1      38.978   5.698  18.527  0.00  0.00    +0.000 C 
BRANCH  24  25
ATOM     25  C   UNL     1      40.400   6.069  18.712  0.00  0.00    +0.000 A 
ATOM     26  C   UNL     1      41.283   6.291  17.702  0.00  0.00    +0.000 A 
ATOM     27  C   UNL     1      42.594   6.634  17.959  0.00  0.00    +0.000 A 
ATOM     28  C   UNL     1      43.075   6.769  19.248  0.00  0.00    +0.000 A 
ATOM     29  C   UNL     1      44.490   7.139  19.501  0.00  0.00    +0.000 C 
ATOM     30  C   UNL     1      42.173   6.542  20.270  0.00  0.00    +0.000 A 
ATOM     31  C   UNL     1      40.846   6.194  20.018  0.00  0.00    +0.000 A 
ENDBRANCH  24  25
ENDBRANCH   7  24
TORSDOF 6
ENDMDL
MODEL 10
REMARK VINA RESULT:      -7.1      4.327      7.479
REMARK  Name = 
REMARK  6 active torsions:
REMARK  status: ('A' for Active; 'I' for Inactive)
REMARK    1  A    between atoms: C_2  and  C_3
REMARK    2  A    between atoms: C_3  and  C_4
REMARK    3  A    between atoms: C_4  and  N_5
REMARK    4  A    between atoms: C_6  and  C_8
REMARK    5  A    between atoms: N_14  and  C_15
REMARK    6  A    between atoms: C_15  and  C_16
REMARK                            x       y       z     vdW  Elec       q    Type
REMARK                         _______ _______ _______ _____ _____    ______ ____
ROOT
ATOM      1  C   UNL     1      38.099  -2.762  15.486  0.00  0.00    +0.000 A 
ATOM      2  C   UNL     1      39.311  -3.228  15.942  0.00  0.00    +0.000 A 
ATOM      3  C   UNL     1      40.484  -2.947  15.278  0.00  0.00    +0.000 A 
ATOM      4  C   UNL     1      40.505  -2.184  14.124  0.00  0.00    +0.000 A 
ATOM      5  C   UNL     1      39.297  -1.711  13.657  0.00  0.00    +0.000 A 
ATOM      6  C   UNL     1      38.124  -2.003  14.337  0.00  0.00    +0.000 A 
ATOM      7  N   UNL     1      39.064  -0.907  12.492  0.00  0.00    +0.000 N 
ATOM      8  C   UNL     1      39.794  -0.788  11.280  0.00  0.00    +0.000 C 
ATOM      9  O   UNL     1      39.341  -0.010  10.380  0.00  0.00    +0.000 OA
ATOM     10  C   UNL     1      41.034  -1.440  10.881  0.00  0.00    +0.000 A 
ATOM     11  C   UNL     1      41.164  -1.535   9.510  0.00  0.00    +0.000 A 
ATOM     12  C   UNL     1      42.270  -2.121   8.932  0.00  0.00    +0.000 A 
ATOM     13  C   UNL     1      43.258  -2.620   9.739  0.00  0.00    +0.000 A 
ATOM     14  C   UNL     1      43.119  -2.520  11.108  0.00  0.00    +0.000 A 
ATOM     15  C   UNL     1      42.016  -1.936  11.689  0.00  0.00    +0.000 A 
ATOM     16  S   UNL     1      42.152  -1.971  13.468  0.00  0.00    +0.000 S 
ENDROOT
BRANCH   1  18
ATOM     17  N   UNL     1      35.711  -2.233  15.976  0.00  0.00    +0.000 NA
ATOM     18  C   UNL     1      36.841  -3.051  16.178  0.00  0.00    +0.000 C 
ATOM     19  O   UNL     1      36.729  -4.025  16.966  0.00  0.00    +0.000 OA
BRANCH  17  20
ATOM     20  C   UNL     1      34.433  -2.495  16.655  0.00  0.00    +0.000 C 
BRANCH  20  21
ATOM     21  C   UNL     1      34.107  -1.283  17.523  0.00  0.00    +0.000 C 
BRANCH  21  23
ATOM     22  C   UNL     1      35.657   0.506  18.110  0.00  0.00    +0.000 C 
ATOM     23  C   UNL     1      34.838  -0.078  16.973  0.00  0.00    +0.000 C 
ENDBRANCH  21  23
ENDBRANCH  20  21
ENDBRANCH  17  20
ENDBRANCH   1  18
BRANCH   7  24
ATOM     24  C   UNL     1      37.889  -0.085  12.564  0.00  0.00    +0.000 C 
BRANCH  24  25
ATOM     25  C   UNL     1      38.030   1.034  13.524  0.00  0.00    +0.000 A 
ATOM     26  C   UNL     1      39.185   1.712  13.763  0.00  0.00    +0.000 A 
ATOM     27  C   UNL     1      39.233   2.745  14.676  0.00  0.00    +0.000 A 
ATOM     28  C   UNL     1      38.118   3.142  15.390  0.00  0.00    +0.000 A 
ATOM     29  C   UNL     1      38.193   4.256  16.368  0.00  0.00    +0.000 C 
ATOM     30  C   UNL     1      36.949   2.448  15.143  0.00  0.00    +0.000 A 
ATOM     31  C   UNL     1      36.892   1.403  14.223  0.00  0.00    +0.000 A 
ENDBRANCH  24  25
ENDBRANCH   7  24
TORSDOF 6
ENDMDL
