MODEL 1
REMARK VINA RESULT:      -6.1      0.000      0.000
REMARK  Name = 
REMARK  4 active torsions:
REMARK  status: ('A' for Active; 'I' for Inactive)
REMARK    1  A    between atoms: C_2  and  C_3
REMARK    2  A    between atoms: C_9  and  N_10
REMARK    3  A    between atoms: C_11  and  C_13
REMARK    4  A    between atoms: C_18  and  N_19
REMARK                            x       y       z     vdW  Elec       q    Type
REMARK                         _______ _______ _______ _____ _____    ______ ____
ROOT
ATOM      1  N   UNL     1      12.314  23.269  20.267  0.00  0.00    +0.000 NA
ATOM      2  C   UNL     1      11.432  22.419  20.960  0.00  0.00    +0.000 C 
ATOM      3  O   UNL     1      11.358  22.680  22.223  0.00  0.00    +0.000 OA
ENDROOT
BRANCH   1  10
ATOM      4  C   UNL     1      14.337  24.054  21.301  0.00  0.00    +0.000 A 
ATOM      5  C   UNL     1      15.099  25.050  21.887  0.00  0.00    +0.000 A 
ATOM      6  C   UNL     1      14.608  26.321  22.062  0.00  0.00    +0.000 A 
ATOM      7  C   UNL     1      13.327  26.589  21.637  0.00  0.00    +0.000 A 
ATOM      8  C   UNL     1      12.573  25.587  21.052  0.00  0.00    +0.000 A 
ATOM      9  C   UNL     1      11.175  25.861  20.583  0.00  0.00    +0.000 C 
ATOM     10  C   UNL     1      13.054  24.312  20.871  0.00  0.00    +0.000 A 
BRANCH   4  12
ATOM     11  C   UNL     1      15.637  22.339  22.467  0.00  0.00    +0.000 C 
ATOM     12  C   UNL     1      14.985  22.725  21.181  0.00  0.00    +0.000 C 
ENDBRANCH   4  12
ENDBRANCH   1  10
BRANCH   2  13
ATOM     13  C   UNL     1      10.637  21.328  20.429  0.00  0.00    +0.000 A 
ATOM     14  C   UNL     1      11.209  20.035  20.385  0.00  0.00    +0.000 A 
ATOM     15  C   UNL     1      10.529  18.973  19.836  0.00  0.00    +0.000 A 
ATOM     16  C   UNL     1       9.270  19.119  19.308  0.00  0.00    +0.000 A 
ATOM     17  C   UNL     1       8.705  20.354  19.345  0.00  0.00    +0.000 A 
ATOM     18  C   UNL     1       9.393  21.449  19.907  0.00  0.00    +0.000 A 
BRANCH  18  19
ATOM     19  N   UNL     1       8.705  22.686  19.913  0.00  0.00    +0.000 N 
ATOM     20  O   UNL     1       7.937  22.978  20.820  0.00  0.00    +0.000 OA
ATOM     21  O   UNL     1       8.856  23.571  18.856  0.00  0.00    +0.000 OA
ENDBRANCH  18  19
ENDBRANCH   2  13
TORSDOF 4
ENDMDL
MODEL 2
REMARK VINA RESULT:      -6.1     21.076     23.620
REMARK  Name = 
REMARK  4 active torsions:
REMARK  status: ('A' for Active; 'I' for Inactive)
REMARK    1  A    between atoms: C_2  and  C_3
REMARK    2  A    between atoms: C_9  and  N_10
REMARK    3  A    between atoms: C_11  and  C_13
REMARK    4  A    between atoms: C_18  and  N_19
REMARK                            x       y       z     vdW  Elec       q    Type
REMARK                         _______ _______ _______ _____ _____    ______ ____
ROOT
ATOM      1  N   UNL     1      18.955   9.607  37.265  0.00  0.00    +0.000 NA
ATOM      2  C   UNL     1      20.118  10.354  37.531  0.00  0.00    +0.000 C 
ATOM      3  O   UNL     1      19.879  11.597  37.790  0.00  0.00    +0.000 OA
ENDROOT
BRANCH   1  10
ATOM      4  C   UNL     1      16.972  10.224  38.475  0.00  0.00    +0.000 A 
ATOM      5  C   UNL     1      15.693  10.751  38.533  0.00  0.00    +0.000 A 
ATOM      6  C   UNL     1      15.054  11.207  37.406  0.00  0.00    +0.000 A 
ATOM      7  C   UNL     1      15.717  11.128  36.203  0.00  0.00    +0.000 A 
ATOM      8  C   UNL     1      16.996  10.600  36.156  0.00  0.00    +0.000 A 
ATOM      9  C   UNL     1      17.734  10.507  34.853  0.00  0.00    +0.000 C 
ATOM     10  C   UNL     1      17.646  10.142  37.276  0.00  0.00    +0.000 A 
BRANCH   4  12
ATOM     11  C   UNL     1      16.460   9.314  40.689  0.00  0.00    +0.000 C 
ATOM     12  C   UNL     1      17.543   9.760  39.764  0.00  0.00    +0.000 C 
ENDBRANCH   4  12
ENDBRANCH   1  10
BRANCH   2  13
ATOM     13  C   UNL     1      21.495   9.897  37.541  0.00  0.00    +0.000 A 
ATOM     14  C   UNL     1      22.222   9.918  36.327  0.00  0.00    +0.000 A 
ATOM     15  C   UNL     1      23.509   9.439  36.259  0.00  0.00    +0.000 A 
ATOM     16  C   UNL     1      24.144   8.920  37.361  0.00  0.00    +0.000 A 
ATOM     17  C   UNL     1      23.461   8.895  38.534  0.00  0.00    +0.000 A 
ATOM     18  C   UNL     1      22.140   9.385  38.616  0.00  0.00    +0.000 A 
BRANCH  18  19
ATOM     19  N   UNL     1      21.528   9.330  39.891  0.00  0.00    +0.000 N 
ATOM     20  O   UNL     1      21.678  10.233  40.703  0.00  0.00    +0.000 OA
ATOM     21  O   UNL     1      20.784   8.219  40.257  0.00  0.00    +0.000 OA
ENDBRANCH  18  19
ENDBRANCH   2  13
TORSDOF 4
ENDMDL
MODEL 3
REMARK VINA RESULT:      -6.0     16.907     19.913
REMARK  Name = 
REMARK  4 active torsions:
REMARK  status: ('A' for Active; 'I' for Inactive)
REMARK    1  A    between atoms: C_2  and  C_3
REMARK    2  A    between atoms: C_9  and  N_10
REMARK    3  A    between atoms: C_11  and  C_13
REMARK    4  A    between atoms: C_18  and  N_19
REMARK                            x       y       z     vdW  Elec       q    Type
REMARK                         _______ _______ _______ _____ _____    ______ ____
ROOT
ATOM      1  N   UNL     1      29.424  22.163  26.971  0.00  0.00    +0.000 NA
ATOM      2  C   UNL     1      30.127  22.946  27.906  0.00  0.00    +0.000 C 
ATOM      3  O   UNL     1      30.122  24.207  27.622  0.00  0.00    +0.000 OA
ENDROOT
BRANCH   1  10
ATOM      4  C   UNL     1      29.457  22.744  24.638  0.00  0.00    +0.000 A 
ATOM      5  C   UNL     1      28.849  23.235  23.495  0.00  0.00    +0.000 A 
ATOM      6  C   UNL     1      27.548  23.676  23.508  0.00  0.00    +0.000 A 
ATOM      7  C   UNL     1      26.852  23.620  24.693  0.00  0.00    +0.000 A 
ATOM      8  C   UNL     1      27.468  23.128  25.830  0.00  0.00    +0.000 A 
ATOM      9  C   UNL     1      26.724  23.059  27.130  0.00  0.00    +0.000 C 
ATOM     10  C   UNL     1      28.768  22.683  25.830  0.00  0.00    +0.000 A 
BRANCH   4  12
ATOM     11  C   UNL     1      31.784  23.487  24.485  0.00  0.00    +0.000 C 
ATOM     12  C   UNL     1      30.867  22.309  24.489  0.00  0.00    +0.000 C 
ENDBRANCH   4  12
ENDBRANCH   1  10
BRANCH   2  13
ATOM     13  C   UNL     1      30.827  22.506  29.097  0.00  0.00    +0.000 A 
ATOM     14  C   UNL     1      32.159  22.046  28.966  0.00  0.00    +0.000 A 
ATOM     15  C   UNL     1      32.854  21.557  30.047  0.00  0.00    +0.000 A 
ATOM     16  C   UNL     1      32.289  21.493  31.297  0.00  0.00    +0.000 A 
ATOM     17  C   UNL     1      31.013  21.934  31.440  0.00  0.00    +0.000 A 
ATOM     18  C   UNL     1      30.291  22.438  30.338  0.00  0.00    +0.000 A 
BRANCH  18  19
ATOM     19  N   UNL     1      28.976  22.889  30.603  0.00  0.00    +0.000 N 
ATOM     20  O   UNL     1      28.764  24.034  30.981  0.00  0.00    +0.000 OA
ATOM     21  O   UNL     1      27.904  22.017  30.483  0.00  0.00    +0.000 OA
ENDBRANCH  18  19
ENDBRANCH   2  13
TORSDOF 4
ENDMDL
MODEL 4
REMARK VINA RESULT:      -6.0     15.501     18.324
REMARK  Name = 
REMARK  4 active torsions:
REMARK  status: ('A' for Active; 'I' for Inactive)
REMARK    1  A    between atoms: C_2  and  C_3
REMARK    2  A    between atoms: C_9  and  N_10
REMARK    3  A    between atoms: C_11  and  C_13
REMARK    4  A    between atoms: C_18  and  N_19
REMARK                            x       y       z     vdW  Elec       q    Type
REMARK                         _______ _______ _______ _____ _____    ______ ____
ROOT
ATOM      1  N   UNL     1      28.058  22.913  25.335  0.00  0.00    +0.000 NA
ATOM      2  C   UNL     1      27.928  23.690  26.502  0.00  0.00    +0.000 C 
ATOM      3  O   UNL     1      27.879  24.959  26.267  0.00  0.00    +0.000 OA
ENDROOT
BRANCH   1  10
ATOM      4  C   UNL     1      29.361  23.760  23.502  0.00  0.00    +0.000 A 
ATOM      5  C   UNL     1      29.474  24.274  22.222  0.00  0.00    +0.000 A 
ATOM      6  C   UNL     1      28.369  24.489  21.435  0.00  0.00    +0.000 A 
ATOM      7  C   UNL     1      27.132  24.180  21.950  0.00  0.00    +0.000 A 
ATOM      8  C   UNL     1      27.029  23.667  23.231  0.00  0.00    +0.000 A 
ATOM      9  C   UNL     1      25.688  23.324  23.808  0.00  0.00    +0.000 C 
ATOM     10  C   UNL     1      28.127  23.447  24.027  0.00  0.00    +0.000 A 
BRANCH   4  12
ATOM     11  C   UNL     1      31.137  24.900  24.744  0.00  0.00    +0.000 C 
ATOM     12  C   UNL     1      30.632  23.586  24.248  0.00  0.00    +0.000 C 
ENDBRANCH   4  12
ENDBRANCH   1  10
BRANCH   2  13
ATOM     13  C   UNL     1      27.851  23.235  27.877  0.00  0.00    +0.000 A 
ATOM     14  C   UNL     1      26.580  23.156  28.492  0.00  0.00    +0.000 A 
ATOM     15  C   UNL     1      26.447  22.792  29.812  0.00  0.00    +0.000 A 
ATOM     16  C   UNL     1      27.539  22.492  30.589  0.00  0.00    +0.000 A 
ATOM     17  C   UNL     1      28.767  22.561  30.013  0.00  0.00    +0.000 A 
ATOM     18  C   UNL     1      28.914  22.931  28.660  0.00  0.00    +0.000 A 
BRANCH  18  19
ATOM     19  N   UNL     1      30.236  22.952  28.154  0.00  0.00    +0.000 N 
ATOM     20  O   UNL     1      30.949  23.937  28.290  0.00  0.00    +0.000 OA
ATOM     21  O   UNL     1      30.727  21.864  27.449  0.00  0.00    +0.000 OA
ENDBRANCH  18  19
ENDBRANCH   2  13
TORSDOF 4
ENDMDL
MODEL 5
REMARK VINA RESULT:      -6.0     15.406     17.152
REMARK  Name = 
REMARK  4 active torsions:
REMARK  status: ('A' for Active; 'I' for Inactive)
REMARK    1  A    between atoms: C_2  and  C_3
REMARK    2  A    between atoms: C_9  and  N_10
REMARK    3  A    between atoms: C_11  and  C_13
REMARK    4  A    between atoms: C_18  and  N_19
REMARK                            x       y       z     vdW  Elec       q    Type
REMARK                         _______ _______ _______ _____ _____    ______ ____
ROOT
ATOM      1  N   UNL     1      27.953  24.163  26.636  0.00  0.00    +0.000 NA
ATOM      2  C   UNL     1      27.823  23.408  25.455  0.00  0.00    +0.000 C 
ATOM      3  O   UNL     1      27.385  22.210  25.661  0.00  0.00    +0.000 OA
ENDROOT
BRANCH   1  10
ATOM      4  C   UNL     1      26.374  23.890  28.427  0.00  0.00    +0.000 A 
ATOM      5  C   UNL     1      26.022  23.425  29.683  0.00  0.00    +0.000 A 
ATOM      6  C   UNL     1      26.917  22.743  30.471  0.00  0.00    +0.000 A 
ATOM      7  C   UNL     1      28.185  22.529  29.983  0.00  0.00    +0.000 A 
ATOM      8  C   UNL     1      28.527  22.998  28.727  0.00  0.00    +0.000 A 
ATOM      9  C   UNL     1      29.904  22.773  28.178  0.00  0.00    +0.000 C 
ATOM     10  C   UNL     1      27.640  23.680  27.929  0.00  0.00    +0.000 A 
BRANCH   4  12
ATOM     11  C   UNL     1      24.838  25.796  28.467  0.00  0.00    +0.000 C 
ATOM     12  C   UNL     1      25.315  24.618  27.684  0.00  0.00    +0.000 C 
ENDBRANCH   4  12
ENDBRANCH   1  10
BRANCH   2  13
ATOM     13  C   UNL     1      28.118  23.814  24.095  0.00  0.00    +0.000 A 
ATOM     14  C   UNL     1      29.451  24.158  23.768  0.00  0.00    +0.000 A 
ATOM     15  C   UNL     1      29.783  24.610  22.512  0.00  0.00    +0.000 A 
ATOM     16  C   UNL     1      28.839  24.749  21.524  0.00  0.00    +0.000 A 
ATOM     17  C   UNL     1      27.556  24.420  21.821  0.00  0.00    +0.000 A 
ATOM     18  C   UNL     1      27.205  23.953  23.105  0.00  0.00    +0.000 A 
BRANCH  18  19
ATOM     19  N   UNL     1      25.843  23.620  23.301  0.00  0.00    +0.000 N 
ATOM     20  O   UNL     1      25.186  24.143  24.191  0.00  0.00    +0.000 OA
ATOM     21  O   UNL     1      25.244  22.650  22.512  0.00  0.00    +0.000 OA
ENDBRANCH  18  19
ENDBRANCH   2  13
TORSDOF 4
ENDMDL
MODEL 6
REMARK VINA RESULT:      -6.0     15.430     17.239
REMARK  Name = 
REMARK  4 active torsions:
REMARK  status: ('A' for Active; 'I' for Inactive)
REMARK    1  A    between atoms: C_2  and  C_3
REMARK    2  A    between atoms: C_9  and  N_10
REMARK    3  A    between atoms: C_11  and  C_13
REMARK    4  A    between atoms: C_18  and  N_19
REMARK                            x       y       z     vdW  Elec       q    Type
REMARK                         _______ _______ _______ _____ _____    ______ ____
ROOT
ATOM      1  N   UNL     1      27.903  24.156  26.606  0.00  0.00    +0.000 NA
ATOM      2  C   UNL     1      27.766  23.396  25.429  0.00  0.00    +0.000 C 
ATOM      3  O   UNL     1      27.287  22.215  25.636  0.00  0.00    +0.000 OA
ENDROOT
BRANCH   1  10
ATOM      4  C   UNL     1      28.497  23.003  28.630  0.00  0.00    +0.000 A 
ATOM      5  C   UNL     1      28.203  22.542  29.902  0.00  0.00    +0.000 A 
ATOM      6  C   UNL     1      26.973  22.753  30.474  0.00  0.00    +0.000 A 
ATOM      7  C   UNL     1      26.026  23.440  29.751  0.00  0.00    +0.000 A 
ATOM      8  C   UNL     1      26.330  23.897  28.480  0.00  0.00    +0.000 A 
ATOM      9  C   UNL     1      25.310  24.648  27.677  0.00  0.00    +0.000 C 
ATOM     10  C   UNL     1      27.557  23.692  27.897  0.00  0.00    +0.000 A 
BRANCH   4  12
ATOM     11  C   UNL     1      30.896  23.285  29.027  0.00  0.00    +0.000 C 
ATOM     12  C   UNL     1      29.860  22.699  28.127  0.00  0.00    +0.000 C 
ENDBRANCH   4  12
ENDBRANCH   1  10
BRANCH   2  13
ATOM     13  C   UNL     1      28.094  23.783  24.070  0.00  0.00    +0.000 A 
ATOM     14  C   UNL     1      29.428  24.148  23.775  0.00  0.00    +0.000 A 
ATOM     15  C   UNL     1      29.788  24.584  22.521  0.00  0.00    +0.000 A 
ATOM     16  C   UNL     1      28.872  24.684  21.503  0.00  0.00    +0.000 A 
ATOM     17  C   UNL     1      27.587  24.335  21.769  0.00  0.00    +0.000 A 
ATOM     18  C   UNL     1      27.207  23.885  23.051  0.00  0.00    +0.000 A 
BRANCH  18  19
ATOM     19  N   UNL     1      25.847  23.528  23.214  0.00  0.00    +0.000 N 
ATOM     20  O   UNL     1      25.321  22.696  22.487  0.00  0.00    +0.000 OA
ATOM     21  O   UNL     1      25.073  24.157  24.177  0.00  0.00    +0.000 OA
ENDBRANCH  18  19
ENDBRANCH   2  13
TORSDOF 4
ENDMDL
MODEL 7
REMARK VINA RESULT:      -5.9     15.555     18.325
REMARK  Name = 
REMARK  4 active torsions:
REMARK  status: ('A' for Active; 'I' for Inactive)
REMARK    1  A    between atoms: C_2  and  C_3
REMARK    2  A    between atoms: C_9  and  N_10
REMARK    3  A    between atoms: C_11  and  C_13
REMARK    4  A    between atoms: C_18  and  N_19
REMARK                            x       y       z     vdW  Elec       q    Type
REMARK                         _______ _______ _______ _____ _____    ______ ____
ROOT
ATOM      1  N   UNL     1      28.487  22.518  27.117  0.00  0.00    +0.000 NA
ATOM      2  C   UNL     1      28.091  23.621  26.338  0.00  0.00    +0.000 C 
ATOM      3  O   UNL     1      28.341  24.757  26.898  0.00  0.00    +0.000 OA
ENDROOT
BRANCH   1  10
ATOM      4  C   UNL     1      28.305  22.639  29.511  0.00  0.00    +0.000 A 
ATOM      5  C   UNL     1      28.866  22.726  30.774  0.00  0.00    +0.000 A 
ATOM      6  C   UNL     1      30.226  22.798  30.951  0.00  0.00    +0.000 A 
ATOM      7  C   UNL     1      31.031  22.782  29.835  0.00  0.00    +0.000 A 
ATOM      8  C   UNL     1      30.460  22.694  28.577  0.00  0.00    +0.000 A 
ATOM      9  C   UNL     1      31.322  22.674  27.350  0.00  0.00    +0.000 C 
ATOM     10  C   UNL     1      29.101  22.620  28.387  0.00  0.00    +0.000 A 
BRANCH   4  12
ATOM     11  C   UNL     1      26.303  21.595  30.458  0.00  0.00    +0.000 C 
ATOM     12  C   UNL     1      26.823  22.576  29.461  0.00  0.00    +0.000 C 
ENDBRANCH   4  12
ENDBRANCH   1  10
BRANCH   2  13
ATOM     13  C   UNL     1      27.456  23.614  25.034  0.00  0.00    +0.000 A 
ATOM     14  C   UNL     1      26.091  23.252  24.948  0.00  0.00    +0.000 A 
ATOM     15  C   UNL     1      25.450  23.166  23.735  0.00  0.00    +0.000 A 
ATOM     16  C   UNL     1      26.104  23.427  22.555  0.00  0.00    +0.000 A 
ATOM     17  C   UNL     1      27.414  23.779  22.620  0.00  0.00    +0.000 A 
ATOM     18  C   UNL     1      28.081  23.871  23.860  0.00  0.00    +0.000 A 
BRANCH  18  19
ATOM     19  N   UNL     1      29.439  24.266  23.814  0.00  0.00    +0.000 N 
ATOM     20  O   UNL     1      29.754  25.448  23.815  0.00  0.00    +0.000 OA
ATOM     21  O   UNL     1      30.438  23.309  23.717  0.00  0.00    +0.000 OA
ENDBRANCH  18  19
ENDBRANCH   2  13
TORSDOF 4
ENDMDL
MODEL 8
REMARK VINA RESULT:      -5.9     15.734     17.057
REMARK  Name = 
REMARK  4 active torsions:
REMARK  status: ('A' for Active; 'I' for Inactive)
REMARK    1  A    between atoms: C_2  and  C_3
REMARK    2  A    between atoms: C_9  and  N_10
REMARK    3  A    between atoms: C_11  and  C_13
REMARK    4  A    between atoms: C_18  and  N_19
REMARK                            x       y       z     vdW  Elec       q    Type
REMARK                         _______ _______ _______ _____ _____    ______ ____
ROOT
ATOM      1  N   UNL     1      27.990  24.508  25.658  0.00  0.00    +0.000 NA
ATOM      2  C   UNL     1      27.108  23.618  26.298  0.00  0.00    +0.000 C 
ATOM      3  O   UNL     1      26.397  22.922  25.474  0.00  0.00    +0.000 OA
ENDROOT
BRANCH   1  10
ATOM      4  C   UNL     1      28.991  23.830  23.580  0.00  0.00    +0.000 A 
ATOM      5  C   UNL     1      29.127  23.921  22.206  0.00  0.00    +0.000 A 
ATOM      6  C   UNL     1      28.391  24.818  21.470  0.00  0.00    +0.000 A 
ATOM      7  C   UNL     1      27.505  25.635  22.133  0.00  0.00    +0.000 A 
ATOM      8  C   UNL     1      27.376  25.536  23.508  0.00  0.00    +0.000 A 
ATOM      9  C   UNL     1      26.415  26.418  24.248  0.00  0.00    +0.000 C 
ATOM     10  C   UNL     1      28.106  24.643  24.254  0.00  0.00    +0.000 A 
BRANCH   4  12
ATOM     11  C   UNL     1      31.232  23.360  24.447  0.00  0.00    +0.000 C 
ATOM     12  C   UNL     1      29.851  22.826  24.254  0.00  0.00    +0.000 C 
ENDBRANCH   4  12
ENDBRANCH   1  10
BRANCH   2  13
ATOM     13  C   UNL     1      26.918  23.413  27.721  0.00  0.00    +0.000 A 
ATOM     14  C   UNL     1      27.554  22.308  28.335  0.00  0.00    +0.000 A 
ATOM     15  C   UNL     1      27.363  22.024  29.667  0.00  0.00    +0.000 A 
ATOM     16  C   UNL     1      26.549  22.798  30.458  0.00  0.00    +0.000 A 
ATOM     17  C   UNL     1      25.934  23.864  29.885  0.00  0.00    +0.000 A 
ATOM     18  C   UNL     1      26.124  24.165  28.520  0.00  0.00    +0.000 A 
BRANCH  18  19
ATOM     19  N   UNL     1      25.452  25.310  28.030  0.00  0.00    +0.000 N 
ATOM     20  O   UNL     1      25.919  26.430  28.182  0.00  0.00    +0.000 OA
ATOM     21  O   UNL     1      24.219  25.180  27.409  0.00  0.00    +0.000 OA
ENDBRANCH  18  19
ENDBRANCH   2  13
TORSDOF 4
ENDMDL
MODEL 9
REMARK VINA RESULT:      -5.9     15.793     17.358
REMARK  Name = 
REMARK  4 active torsions:
REMARK  status: ('A' for Active; 'I' for Inactive)
REMARK    1  A    between atoms: C_2  and  C_3
REMARK    2  A    between atoms: C_9  and  N_10
REMARK    3  A    between atoms: C_11  and  C_13
REMARK    4  A    between atoms: C_18  and  N_19
REMARK                            x       y       z     vdW  Elec       q    Type
REMARK                         _______ _______ _______ _____ _____    ______ ____
ROOT
ATOM      1  N   UNL     1      26.837  24.163  25.579  0.00  0.00    +0.000 NA
ATOM      2  C   UNL     1      27.587  25.263  25.121  0.00  0.00    +0.000 C 
ATOM      3  O   UNL     1      28.311  25.806  26.043  0.00  0.00    +0.000 OA
ENDROOT
BRANCH   1  10
ATOM      4  C   UNL     1      27.823  22.763  27.266  0.00  0.00    +0.000 A 
ATOM      5  C   UNL     1      27.888  22.275  28.560  0.00  0.00    +0.000 A 
ATOM      6  C   UNL     1      27.003  22.685  29.527  0.00  0.00    +0.000 A 
ATOM      7  C   UNL     1      26.038  23.602  29.181  0.00  0.00    +0.000 A 
ATOM      8  C   UNL     1      25.981  24.084  27.885  0.00  0.00    +0.000 A 
ATOM      9  C   UNL     1      24.935  25.085  27.490  0.00  0.00    +0.000 C 
ATOM     10  C   UNL     1      26.861  23.682  26.909  0.00  0.00    +0.000 A 
BRANCH   4  12
ATOM     11  C   UNL     1      30.209  22.631  26.735  0.00  0.00    +0.000 C 
ATOM     12  C   UNL     1      28.833  22.230  26.319  0.00  0.00    +0.000 C 
ENDBRANCH   4  12
ENDBRANCH   1  10
BRANCH   2  13
ATOM     13  C   UNL     1      27.626  25.827  23.785  0.00  0.00    +0.000 A 
ATOM     14  C   UNL     1      27.023  27.087  23.566  0.00  0.00    +0.000 A 
ATOM     15  C   UNL     1      26.972  27.645  22.310  0.00  0.00    +0.000 A 
ATOM     16  C   UNL     1      27.503  27.006  21.217  0.00  0.00    +0.000 A 
ATOM     17  C   UNL     1      28.088  25.796  21.410  0.00  0.00    +0.000 A 
ATOM     18  C   UNL     1      28.147  25.216  22.695  0.00  0.00    +0.000 A 
BRANCH  18  19
ATOM     19  N   UNL     1      28.797  23.962  22.788  0.00  0.00    +0.000 N 
ATOM     20  O   UNL     1      28.177  22.916  22.648  0.00  0.00    +0.000 OA
ATOM     21  O   UNL     1      30.149  23.901  23.091  0.00  0.00    +0.000 OA
ENDBRANCH  18  19
ENDBRANCH   2  13
TORSDOF 4
ENDMDL
MODEL 10
REMARK VINA RESULT:      -5.9      0.352      2.379
REMARK  Name = 
REMARK  4 active torsions:
REMARK  status: ('A' for Active; 'I' for Inactive)
REMARK    1  A    between atoms: C_2  and  C_3
REMARK    2  A    between atoms: C_9  and  N_10
REMARK    3  A    between atoms: C_11  and  C_13
REMARK    4  A    between atoms: C_18  and  N_19
REMARK                            x       y       z     vdW  Elec       q    Type
REMARK                         _______ _______ _______ _____ _____    ______ ____
ROOT
ATOM      1  N   UNL     1      12.379  23.117  20.279  0.00  0.00    +0.000 NA
ATOM      2  C   UNL     1      11.491  22.268  20.967  0.00  0.00    +0.000 C 
ATOM      3  O   UNL     1      11.461  22.485  22.240  0.00  0.00    +0.000 OA
ENDROOT
BRANCH   1  10
ATOM      4  C   UNL     1      12.630  25.374  21.067  0.00  0.00    +0.000 A 
ATOM      5  C   UNL     1      13.362  26.377  21.679  0.00  0.00    +0.000 A 
ATOM      6  C   UNL     1      14.639  26.157  22.135  0.00  0.00    +0.000 A 
ATOM      7  C   UNL     1      15.184  24.905  21.971  0.00  0.00    +0.000 A 
ATOM      8  C   UNL     1      14.444  23.908  21.358  0.00  0.00    +0.000 A 
ATOM      9  C   UNL     1      15.022  22.537  21.171  0.00  0.00    +0.000 C 
ATOM     10  C   UNL     1      13.166  24.116  20.899  0.00  0.00    +0.000 A 
BRANCH   4  12
ATOM     11  C   UNL     1      11.336  26.780  19.538  0.00  0.00    +0.000 C 
ATOM     12  C   UNL     1      11.268  25.747  20.613  0.00  0.00    +0.000 C 
ENDBRANCH   4  12
ENDBRANCH   1  10
BRANCH   2  13
ATOM     13  C   UNL     1      10.650  21.220  20.421  0.00  0.00    +0.000 A 
ATOM     14  C   UNL     1      11.163  19.903  20.363  0.00  0.00    +0.000 A 
ATOM     15  C   UNL     1      10.438  18.879  19.800  0.00  0.00    +0.000 A 
ATOM     16  C   UNL     1       9.188  19.088  19.270  0.00  0.00    +0.000 A 
ATOM     17  C   UNL     1       8.680  20.346  19.320  0.00  0.00    +0.000 A 
ATOM     18  C   UNL     1       9.415  21.403  19.897  0.00  0.00    +0.000 A 
BRANCH  18  19
ATOM     19  N   UNL     1       8.783  22.670  19.915  0.00  0.00    +0.000 N 
ATOM     20  O   UNL     1       8.006  22.976  20.810  0.00  0.00    +0.000 OA
ATOM     21  O   UNL     1       9.000  23.571  18.884  0.00  0.00    +0.000 OA
ENDBRANCH  18  19
ENDBRANCH   2  13
TORSDOF 4
ENDMDL
