MODEL 1
REMARK VINA RESULT:      -7.1      0.000      0.000
REMARK  Name = 
REMARK  9 active torsions:
REMARK  status: ('A' for Active; 'I' for Inactive)
REMARK    1  A    between atoms: C_2  and  O_3
REMARK    2  A    between atoms: O_3  and  C_4
REMARK    3  A    between atoms: C_4  and  C_6
REMARK    4  A    between atoms: C_8  and  C_9
REMARK    5  A    between atoms: N_15  and  C_16
REMARK    6  A    between atoms: C_16  and  C_17
REMARK    7  A    between atoms: C_17  and  C_18
REMARK    8  A    between atoms: N_20  and  C_21
REMARK    9  A    between atoms: C_24  and  O_25
REMARK                            x       y       z     vdW  Elec       q    Type
REMARK                         _______ _______ _______ _____ _____    ______ ____
ROOT
ATOM      1  C   UNL     1      36.191  -0.477  16.321  0.00  0.00    +0.000 A 
ATOM      2  C   UNL     1      37.271  -0.940  15.610  0.00  0.00    +0.000 A 
ATOM      3  C   UNL     1      37.828   0.094  14.867  0.00  0.00    +0.000 A 
ATOM      4  N   UNL     1      37.090   1.173  15.131  0.00  0.00    +0.000 N 
ATOM      5  C   UNL     1      36.092   0.850  16.008  0.00  0.00    +0.000 A 
ATOM      6  C   UNL     1      35.051   1.762  16.554  0.00  0.00    +0.000 C 
ENDROOT
BRANCH   3   7
ATOM      7  C   UNL     1      38.982  -0.082  13.959  0.00  0.00    +0.000 A 
ATOM      8  C   UNL     1      38.865  -0.088  12.595  0.00  0.00    +0.000 A 
ATOM      9  C   UNL     1      39.944  -0.253  11.753  0.00  0.00    +0.000 A 
ATOM     10  C   UNL     1      41.207  -0.421  12.304  0.00  0.00    +0.000 A 
ATOM     11  C   UNL     1      41.362  -0.420  13.672  0.00  0.00    +0.000 A 
ATOM     12  C   UNL     1      40.253  -0.252  14.470  0.00  0.00    +0.000 A 
ENDBRANCH   3   7
BRANCH   1  13
ATOM     13  C   UNL     1      35.331  -1.260  17.225  0.00  0.00    +0.000 C 
ATOM     14  O   UNL     1      34.132  -1.436  16.953  0.00  0.00    +0.000 OA
BRANCH  13  15
ATOM     15  O   UNL     1      35.836  -1.809  18.384  0.00  0.00    +0.000 OA
BRANCH  15  17
ATOM     16  C   UNL     1      38.044  -2.089  19.179  0.00  0.00    +0.000 C 
ATOM     17  C   UNL     1      36.796  -1.215  19.205  0.00  0.00    +0.000 C 
ENDBRANCH  15  17
ENDBRANCH  13  15
ENDBRANCH   1  13
BRANCH   4  18
ATOM     18  C   UNL     1      37.323   2.496  14.657  0.00  0.00    +0.000 C 
BRANCH  18  19
ATOM     19  C   UNL     1      38.456   3.252  15.127  0.00  0.00    +0.000 C 
BRANCH  19  20
ATOM     20  C   UNL     1      38.414   4.090  16.303  0.00  0.00    +0.000 C 
ATOM     21  O   UNL     1      37.733   3.802  17.302  0.00  0.00    +0.000 OA
ATOM     22  N   UNL     1      39.158   5.323  16.406  0.00  0.00    +0.000 NA
BRANCH  22  23
ATOM     23  C   UNL     1      39.082   6.113  17.590  0.00  0.00    +0.000 A 
ATOM     24  C   UNL     1      38.195   7.154  17.722  0.00  0.00    +0.000 A 
ATOM     25  C   UNL     1      38.140   7.904  18.877  0.00  0.00    +0.000 A 
ATOM     26  C   UNL     1      38.974   7.634  19.933  0.00  0.00    +0.000 A 
ATOM     27  C   UNL     1      39.870   6.594  19.816  0.00  0.00    +0.000 A 
ATOM     28  C   UNL     1      39.914   5.851  18.656  0.00  0.00    +0.000 A 
BRANCH  26  29
ATOM     29  O   UNL     1      38.867   8.424  21.061  0.00  0.00    +0.000 OA
ATOM     30  C   UNL     1      38.516   9.799  21.013  0.00  0.00    +0.000 C 
ENDBRANCH  26  29
ENDBRANCH  22  23
ENDBRANCH  19  20
ENDBRANCH  18  19
ENDBRANCH   4  18
TORSDOF 9
ENDMDL
MODEL 2
REMARK VINA RESULT:      -7.1      3.026      5.744
REMARK  Name = 
REMARK  9 active torsions:
REMARK  status: ('A' for Active; 'I' for Inactive)
REMARK    1  A    between atoms: C_2  and  O_3
REMARK    2  A    between atoms: O_3  and  C_4
REMARK    3  A    between atoms: C_4  and  C_6
REMARK    4  A    between atoms: C_8  and  C_9
REMARK    5  A    between atoms: N_15  and  C_16
REMARK    6  A    between atoms: C_16  and  C_17
REMARK    7  A    between atoms: C_17  and  C_18
REMARK    8  A    between atoms: N_20  and  C_21
REMARK    9  A    between atoms: C_24  and  O_25
REMARK                            x       y       z     vdW  Elec       q    Type
REMARK                         _______ _______ _______ _____ _____    ______ ____
ROOT
ATOM      1  C   UNL     1      35.106   5.454  13.959  0.00  0.00    +0.000 A 
ATOM      2  C   UNL     1      34.687   4.323  14.615  0.00  0.00    +0.000 A 
ATOM      3  C   UNL     1      35.726   3.403  14.686  0.00  0.00    +0.000 A 
ATOM      4  N   UNL     1      36.765   3.977  14.080  0.00  0.00    +0.000 N 
ATOM      5  C   UNL     1      36.412   5.219  13.629  0.00  0.00    +0.000 A 
ATOM      6  C   UNL     1      37.276   6.184  12.898  0.00  0.00    +0.000 C 
ENDROOT
BRANCH   3   7
ATOM      7  C   UNL     1      35.590   2.062  15.296  0.00  0.00    +0.000 A 
ATOM      8  C   UNL     1      34.986   1.849  16.506  0.00  0.00    +0.000 A 
ATOM      9  C   UNL     1      34.863   0.598  17.071  0.00  0.00    +0.000 A 
ATOM     10  C   UNL     1      35.371  -0.499  16.389  0.00  0.00    +0.000 A 
ATOM     11  C   UNL     1      35.984  -0.323  15.169  0.00  0.00    +0.000 A 
ATOM     12  C   UNL     1      36.083   0.947  14.648  0.00  0.00    +0.000 A 
ENDBRANCH   3   7
BRANCH   1  13
ATOM     13  C   UNL     1      34.305   6.657  13.677  0.00  0.00    +0.000 C 
ATOM     14  O   UNL     1      34.270   7.593  14.494  0.00  0.00    +0.000 OA
BRANCH  13  15
ATOM     15  O   UNL     1      33.582   6.768  12.509  0.00  0.00    +0.000 OA
BRANCH  15  17
ATOM     16  C   UNL     1      34.718   6.930  10.444  0.00  0.00    +0.000 C 
ATOM     17  C   UNL     1      33.861   7.658  11.471  0.00  0.00    +0.000 C 
ENDBRANCH  15  17
ENDBRANCH  13  15
ENDBRANCH   1  13
BRANCH   4  18
ATOM     18  C   UNL     1      38.082   3.445  13.968  0.00  0.00    +0.000 C 
BRANCH  18  19
ATOM     19  C   UNL     1      38.929   3.340  15.130  0.00  0.00    +0.000 C 
BRANCH  19  20
ATOM     20  C   UNL     1      38.767   4.168  16.303  0.00  0.00    +0.000 C 
ATOM     21  O   UNL     1      38.026   3.848  17.248  0.00  0.00    +0.000 OA
ATOM     22  N   UNL     1      39.452   5.428  16.464  0.00  0.00    +0.000 NA
BRANCH  22  23
ATOM     23  C   UNL     1      39.259   6.208  17.641  0.00  0.00    +0.000 A 
ATOM     24  C   UNL     1      40.017   6.029  18.774  0.00  0.00    +0.000 A 
ATOM     25  C   UNL     1      39.811   6.796  19.900  0.00  0.00    +0.000 A 
ATOM     26  C   UNL     1      38.838   7.765  19.925  0.00  0.00    +0.000 A 
ATOM     27  C   UNL     1      38.070   7.956  18.798  0.00  0.00    +0.000 A 
ATOM     28  C   UNL     1      38.286   7.183  17.678  0.00  0.00    +0.000 A 
BRANCH  26  29
ATOM     29  O   UNL     1      38.685   8.498  21.086  0.00  0.00    +0.000 OA
ATOM     30  C   UNL     1      38.546   9.910  21.098  0.00  0.00    +0.000 C 
ENDBRANCH  26  29
ENDBRANCH  22  23
ENDBRANCH  19  20
ENDBRANCH  18  19
ENDBRANCH   4  18
TORSDOF 9
ENDMDL
MODEL 3
REMARK VINA RESULT:      -7.0      0.849      1.664
REMARK  Name = 
REMARK  9 active torsions:
REMARK  status: ('A' for Active; 'I' for Inactive)
REMARK    1  A    between atoms: C_2  and  O_3
REMARK    2  A    between atoms: O_3  and  C_4
REMARK    3  A    between atoms: C_4  and  C_6
REMARK    4  A    between atoms: C_8  and  C_9
REMARK    5  A    between atoms: N_15  and  C_16
REMARK    6  A    between atoms: C_16  and  C_17
REMARK    7  A    between atoms: C_17  and  C_18
REMARK    8  A    between atoms: N_20  and  C_21
REMARK    9  A    between atoms: C_24  and  O_25
REMARK                            x       y       z     vdW  Elec       q    Type
REMARK                         _______ _______ _______ _____ _____    ______ ____
ROOT
ATOM      1  C   UNL     1      37.088  -0.944  16.683  0.00  0.00    +0.000 A 
ATOM      2  C   UNL     1      38.155  -1.230  15.868  0.00  0.00    +0.000 A 
ATOM      3  C   UNL     1      38.414  -0.153  15.030  0.00  0.00    +0.000 A 
ATOM      4  N   UNL     1      37.512   0.779  15.341  0.00  0.00    +0.000 N 
ATOM      5  C   UNL     1      36.696   0.320  16.338  0.00  0.00    +0.000 A 
ATOM      6  C   UNL     1      35.561   1.045  16.969  0.00  0.00    +0.000 C 
ENDROOT
BRANCH   3   7
ATOM      7  C   UNL     1      39.477  -0.155  14.001  0.00  0.00    +0.000 A 
ATOM      8  C   UNL     1      40.795   0.087  14.286  0.00  0.00    +0.000 A 
ATOM      9  C   UNL     1      41.781   0.085  13.323  0.00  0.00    +0.000 A 
ATOM     10  C   UNL     1      41.431  -0.172  12.005  0.00  0.00    +0.000 A 
ATOM     11  C   UNL     1      40.116  -0.420  11.681  0.00  0.00    +0.000 A 
ATOM     12  C   UNL     1      39.169  -0.406  12.679  0.00  0.00    +0.000 A 
ENDBRANCH   3   7
BRANCH   1  13
ATOM     13  C   UNL     1      36.500  -1.824  17.707  0.00  0.00    +0.000 C 
ATOM     14  O   UNL     1      36.818  -1.696  18.901  0.00  0.00    +0.000 OA
BRANCH  13  15
ATOM     15  O   UNL     1      35.592  -2.802  17.363  0.00  0.00    +0.000 OA
BRANCH  15  17
ATOM     16  C   UNL     1      33.398  -1.925  17.333  0.00  0.00    +0.000 C 
ATOM     17  C   UNL     1      34.489  -2.620  16.528  0.00  0.00    +0.000 C 
ENDBRANCH  15  17
ENDBRANCH  13  15
ENDBRANCH   1  13
BRANCH   4  18
ATOM     18  C   UNL     1      37.428   2.093  14.798  0.00  0.00    +0.000 C 
BRANCH  18  19
ATOM     19  C   UNL     1      38.436   3.076  15.104  0.00  0.00    +0.000 C 
BRANCH  19  20
ATOM     20  C   UNL     1      38.363   3.952  16.250  0.00  0.00    +0.000 C 
ATOM     21  O   UNL     1      37.614   3.724  17.215  0.00  0.00    +0.000 OA
ATOM     22  N   UNL     1      39.153   5.155  16.361  0.00  0.00    +0.000 NA
BRANCH  22  23
ATOM     23  C   UNL     1      39.044   5.985  17.515  0.00  0.00    +0.000 A 
ATOM     24  C   UNL     1      38.152   7.028  17.587  0.00  0.00    +0.000 A 
ATOM     25  C   UNL     1      38.065   7.816  18.715  0.00  0.00    +0.000 A 
ATOM     26  C   UNL     1      38.870   7.583  19.802  0.00  0.00    +0.000 A 
ATOM     27  C   UNL     1      39.770   6.542  19.744  0.00  0.00    +0.000 A 
ATOM     28  C   UNL     1      39.847   5.760  18.612  0.00  0.00    +0.000 A 
BRANCH  26  29
ATOM     29  O   UNL     1      38.732   8.411  20.898  0.00  0.00    +0.000 OA
ATOM     30  C   UNL     1      39.160   9.764  20.907  0.00  0.00    +0.000 C 
ENDBRANCH  26  29
ENDBRANCH  22  23
ENDBRANCH  19  20
ENDBRANCH  18  19
ENDBRANCH   4  18
TORSDOF 9
ENDMDL
MODEL 4
REMARK VINA RESULT:      -6.8     22.775     26.181
REMARK  Name = 
REMARK  9 active torsions:
REMARK  status: ('A' for Active; 'I' for Inactive)
REMARK    1  A    between atoms: C_2  and  O_3
REMARK    2  A    between atoms: O_3  and  C_4
REMARK    3  A    between atoms: C_4  and  C_6
REMARK    4  A    between atoms: C_8  and  C_9
REMARK    5  A    between atoms: N_15  and  C_16
REMARK    6  A    between atoms: C_16  and  C_17
REMARK    7  A    between atoms: C_17  and  C_18
REMARK    8  A    between atoms: N_20  and  C_21
REMARK    9  A    between atoms: C_24  and  O_25
REMARK                            x       y       z     vdW  Elec       q    Type
REMARK                         _______ _______ _______ _____ _____    ______ ____
ROOT
ATOM      1  C   UNL     1      25.875  15.465  38.596  0.00  0.00    +0.000 A 
ATOM      2  C   UNL     1      25.226  15.320  37.395  0.00  0.00    +0.000 A 
ATOM      3  C   UNL     1      26.067  15.692  36.353  0.00  0.00    +0.000 A 
ATOM      4  N   UNL     1      27.216  16.057  36.923  0.00  0.00    +0.000 N 
ATOM      5  C   UNL     1      27.121  15.930  38.281  0.00  0.00    +0.000 A 
ATOM      6  C   UNL     1      28.177  16.235  39.284  0.00  0.00    +0.000 C 
ENDROOT
BRANCH   3   7
ATOM      7  C   UNL     1      25.659  15.691  34.932  0.00  0.00    +0.000 A 
ATOM      8  C   UNL     1      25.741  14.583  34.131  0.00  0.00    +0.000 A 
ATOM      9  C   UNL     1      25.360  14.587  32.807  0.00  0.00    +0.000 A 
ATOM     10  C   UNL     1      24.871  15.762  32.253  0.00  0.00    +0.000 A 
ATOM     11  C   UNL     1      24.773  16.895  33.027  0.00  0.00    +0.000 A 
ATOM     12  C   UNL     1      25.167  16.840  34.345  0.00  0.00    +0.000 A 
ENDBRANCH   3   7
BRANCH   1  13
ATOM     13  C   UNL     1      25.327  15.179  39.932  0.00  0.00    +0.000 C 
ATOM     14  O   UNL     1      24.959  16.107  40.672  0.00  0.00    +0.000 OA
BRANCH  13  15
ATOM     15  O   UNL     1      25.213  13.883  40.388  0.00  0.00    +0.000 OA
BRANCH  15  17
ATOM     16  C   UNL     1      27.125  13.748  41.771  0.00  0.00    +0.000 C 
ATOM     17  C   UNL     1      26.281  13.047  40.714  0.00  0.00    +0.000 C 
ENDBRANCH  15  17
ENDBRANCH  13  15
ENDBRANCH   1  13
BRANCH   4  18
ATOM     18  C   UNL     1      28.410  16.447  36.252  0.00  0.00    +0.000 C 
BRANCH  18  19
ATOM     19  C   UNL     1      29.190  15.477  35.524  0.00  0.00    +0.000 C 
BRANCH  19  20
ATOM     20  C   UNL     1      30.391  14.873  36.051  0.00  0.00    +0.000 C 
ATOM     21  O   UNL     1      30.878  15.203  37.146  0.00  0.00    +0.000 OA
ATOM     22  N   UNL     1      31.116  13.842  35.348  0.00  0.00    +0.000 NA
BRANCH  22  23
ATOM     23  C   UNL     1      32.297  13.277  35.912  0.00  0.00    +0.000 A 
ATOM     24  C   UNL     1      32.255  12.269  36.845  0.00  0.00    +0.000 A 
ATOM     25  C   UNL     1      33.411  11.739  37.376  0.00  0.00    +0.000 A 
ATOM     26  C   UNL     1      34.644  12.205  36.989  0.00  0.00    +0.000 A 
ATOM     27  C   UNL     1      34.702  13.216  36.055  0.00  0.00    +0.000 A 
ATOM     28  C   UNL     1      33.539  13.737  35.531  0.00  0.00    +0.000 A 
BRANCH  26  29
ATOM     29  O   UNL     1      35.761  11.630  37.560  0.00  0.00    +0.000 OA
ATOM     30  C   UNL     1      36.197  10.313  37.257  0.00  0.00    +0.000 C 
ENDBRANCH  26  29
ENDBRANCH  22  23
ENDBRANCH  19  20
ENDBRANCH  18  19
ENDBRANCH   4  18
TORSDOF 9
ENDMDL
MODEL 5
REMARK VINA RESULT:      -6.8      3.189      9.056
REMARK  Name = 
REMARK  9 active torsions:
REMARK  status: ('A' for Active; 'I' for Inactive)
REMARK    1  A    between atoms: C_2  and  O_3
REMARK    2  A    between atoms: O_3  and  C_4
REMARK    3  A    between atoms: C_4  and  C_6
REMARK    4  A    between atoms: C_8  and  C_9
REMARK    5  A    between atoms: N_15  and  C_16
REMARK    6  A    between atoms: C_16  and  C_17
REMARK    7  A    between atoms: C_17  and  C_18
REMARK    8  A    between atoms: N_20  and  C_21
REMARK    9  A    between atoms: C_24  and  O_25
REMARK                            x       y       z     vdW  Elec       q    Type
REMARK                         _______ _______ _______ _____ _____    ______ ____
ROOT
ATOM      1  C   UNL     1      36.798   7.169  14.578  0.00  0.00    +0.000 A 
ATOM      2  C   UNL     1      37.719   7.503  15.541  0.00  0.00    +0.000 A 
ATOM      3  C   UNL     1      38.187   6.355  16.168  0.00  0.00    +0.000 A 
ATOM      4  N   UNL     1      37.556   5.335  15.585  0.00  0.00    +0.000 N 
ATOM      5  C   UNL     1      36.708   5.805  14.621  0.00  0.00    +0.000 A 
ATOM      6  C   UNL     1      35.819   4.999  13.742  0.00  0.00    +0.000 C 
ENDROOT
BRANCH   3   7
ATOM      7  C   UNL     1      39.160   6.371  17.283  0.00  0.00    +0.000 A 
ATOM      8  C   UNL     1      40.514   6.291  17.093  0.00  0.00    +0.000 A 
ATOM      9  C   UNL     1      41.417   6.305  18.135  0.00  0.00    +0.000 A 
ATOM     10  C   UNL     1      40.940   6.404  19.435  0.00  0.00    +0.000 A 
ATOM     11  C   UNL     1      39.586   6.487  19.663  0.00  0.00    +0.000 A 
ATOM     12  C   UNL     1      38.725   6.468  18.589  0.00  0.00    +0.000 A 
ENDBRANCH   3   7
BRANCH   1  13
ATOM     13  C   UNL     1      36.071   8.096  13.696  0.00  0.00    +0.000 C 
ATOM     14  O   UNL     1      36.679   8.739  12.824  0.00  0.00    +0.000 OA
BRANCH  13  15
ATOM     15  O   UNL     1      34.709   8.270  13.819  0.00  0.00    +0.000 OA
BRANCH  15  17
ATOM     16  C   UNL     1      33.566   8.905  15.788  0.00  0.00    +0.000 C 
ATOM     17  C   UNL     1      34.089   9.360  14.431  0.00  0.00    +0.000 C 
ENDBRANCH  15  17
ENDBRANCH  13  15
ENDBRANCH   1  13
BRANCH   4  18
ATOM     18  C   UNL     1      37.764   3.950  15.842  0.00  0.00    +0.000 C 
BRANCH  18  19
ATOM     19  C   UNL     1      36.904   3.238  16.755  0.00  0.00    +0.000 C 
BRANCH  19  20
ATOM     20  C   UNL     1      36.268   1.984  16.426  0.00  0.00    +0.000 C 
ATOM     21  O   UNL     1      35.335   1.905  15.609  0.00  0.00    +0.000 OA
ATOM     22  N   UNL     1      36.667   0.731  17.020  0.00  0.00    +0.000 NA
BRANCH  22  23
ATOM     23  C   UNL     1      36.007  -0.480  16.660  0.00  0.00    +0.000 A 
ATOM     24  C   UNL     1      36.430  -1.264  15.614  0.00  0.00    +0.000 A 
ATOM     25  C   UNL     1      35.775  -2.432  15.285  0.00  0.00    +0.000 A 
ATOM     26  C   UNL     1      34.676  -2.847  15.995  0.00  0.00    +0.000 A 
ATOM     27  C   UNL     1      34.239  -2.071  17.046  0.00  0.00    +0.000 A 
ATOM     28  C   UNL     1      34.903  -0.907  17.366  0.00  0.00    +0.000 A 
BRANCH  26  29
ATOM     29  O   UNL     1      34.067  -4.026  15.613  0.00  0.00    +0.000 OA
ATOM     30  C   UNL     1      34.717  -5.015  14.828  0.00  0.00    +0.000 C 
ENDBRANCH  26  29
ENDBRANCH  22  23
ENDBRANCH  19  20
ENDBRANCH  18  19
ENDBRANCH   4  18
TORSDOF 9
ENDMDL
MODEL 6
REMARK VINA RESULT:      -6.7      2.614      5.534
REMARK  Name = 
REMARK  9 active torsions:
REMARK  status: ('A' for Active; 'I' for Inactive)
REMARK    1  A    between atoms: C_2  and  O_3
REMARK    2  A    between atoms: O_3  and  C_4
REMARK    3  A    between atoms: C_4  and  C_6
REMARK    4  A    between atoms: C_8  and  C_9
REMARK    5  A    between atoms: N_15  and  C_16
REMARK    6  A    between atoms: C_16  and  C_17
REMARK    7  A    between atoms: C_17  and  C_18
REMARK    8  A    between atoms: N_20  and  C_21
REMARK    9  A    between atoms: C_24  and  O_25
REMARK                            x       y       z     vdW  Elec       q    Type
REMARK                         _______ _______ _______ _____ _____    ______ ____
ROOT
ATOM      1  C   UNL     1      36.957   3.499  16.467  0.00  0.00    +0.000 A 
ATOM      2  C   UNL     1      37.907   3.842  17.398  0.00  0.00    +0.000 A 
ATOM      3  C   UNL     1      38.476   5.066  17.066  0.00  0.00    +0.000 A 
ATOM      4  N   UNL     1      37.870   5.460  15.946  0.00  0.00    +0.000 N 
ATOM      5  C   UNL     1      36.948   4.525  15.563  0.00  0.00    +0.000 A 
ATOM      6  C   UNL     1      36.062   4.579  14.369  0.00  0.00    +0.000 C 
ENDROOT
BRANCH   3   7
ATOM      7  C   UNL     1      39.563   5.700  17.844  0.00  0.00    +0.000 A 
ATOM      8  C   UNL     1      40.763   6.063  17.293  0.00  0.00    +0.000 A 
ATOM      9  C   UNL     1      41.773   6.652  18.022  0.00  0.00    +0.000 A 
ATOM     10  C   UNL     1      41.573   6.891  19.375  0.00  0.00    +0.000 A 
ATOM     11  C   UNL     1      40.379   6.539  19.963  0.00  0.00    +0.000 A 
ATOM     12  C   UNL     1      39.402   5.953  19.192  0.00  0.00    +0.000 A 
ENDBRANCH   3   7
BRANCH   1  13
ATOM     13  C   UNL     1      36.132   2.280  16.459  0.00  0.00    +0.000 C 
ATOM     14  O   UNL     1      34.895   2.359  16.535  0.00  0.00    +0.000 OA
BRANCH  13  15
ATOM     15  O   UNL     1      36.713   1.033  16.367  0.00  0.00    +0.000 OA
BRANCH  15  17
ATOM     16  C   UNL     1      38.335   0.765  14.670  0.00  0.00    +0.000 C 
ATOM     17  C   UNL     1      36.961   0.345  15.179  0.00  0.00    +0.000 C 
ENDBRANCH  15  17
ENDBRANCH  13  15
ENDBRANCH   1  13
BRANCH   4  18
ATOM     18  C   UNL     1      38.066   6.696  15.265  0.00  0.00    +0.000 C 
BRANCH  18  19
ATOM     19  C   UNL     1      37.382   7.887  15.701  0.00  0.00    +0.000 C 
BRANCH  19  20
ATOM     20  C   UNL     1      37.861   8.723  16.777  0.00  0.00    +0.000 C 
ATOM     21  O   UNL     1      39.021   9.167  16.810  0.00  0.00    +0.000 OA
ATOM     22  N   UNL     1      37.029   9.105  17.894  0.00  0.00    +0.000 NA
BRANCH  22  23
ATOM     23  C   UNL     1      37.550   9.932  18.931  0.00  0.00    +0.000 A 
ATOM     24  C   UNL     1      37.568  11.303  18.836  0.00  0.00    +0.000 A 
ATOM     25  C   UNL     1      38.076  12.083  19.853  0.00  0.00    +0.000 A 
ATOM     26  C   UNL     1      38.583  11.511  20.994  0.00  0.00    +0.000 A 
ATOM     27  C   UNL     1      38.573  10.138  21.103  0.00  0.00    +0.000 A 
ATOM     28  C   UNL     1      38.061   9.369  20.080  0.00  0.00    +0.000 A 
BRANCH  26  29
ATOM     29  O   UNL     1      39.077  12.350  21.974  0.00  0.00    +0.000 OA
ATOM     30  C   UNL     1      38.251  13.200  22.754  0.00  0.00    +0.000 C 
ENDBRANCH  26  29
ENDBRANCH  22  23
ENDBRANCH  19  20
ENDBRANCH  18  19
ENDBRANCH   4  18
TORSDOF 9
ENDMDL
MODEL 7
REMARK VINA RESULT:      -6.7      2.360      7.439
REMARK  Name = 
REMARK  9 active torsions:
REMARK  status: ('A' for Active; 'I' for Inactive)
REMARK    1  A    between atoms: C_2  and  O_3
REMARK    2  A    between atoms: O_3  and  C_4
REMARK    3  A    between atoms: C_4  and  C_6
REMARK    4  A    between atoms: C_8  and  C_9
REMARK    5  A    between atoms: N_15  and  C_16
REMARK    6  A    between atoms: C_16  and  C_17
REMARK    7  A    between atoms: C_17  and  C_18
REMARK    8  A    between atoms: N_20  and  C_21
REMARK    9  A    between atoms: C_24  and  O_25
REMARK                            x       y       z     vdW  Elec       q    Type
REMARK                         _______ _______ _______ _____ _____    ______ ____
ROOT
ATOM      1  C   UNL     1      38.843   2.319  13.904  0.00  0.00    +0.000 A 
ATOM      2  C   UNL     1      39.302   3.266  14.786  0.00  0.00    +0.000 A 
ATOM      3  C   UNL     1      38.240   3.797  15.508  0.00  0.00    +0.000 A 
ATOM      4  N   UNL     1      37.148   3.171  15.066  0.00  0.00    +0.000 N 
ATOM      5  C   UNL     1      37.489   2.274  14.093  0.00  0.00    +0.000 A 
ATOM      6  C   UNL     1      36.570   1.378  13.341  0.00  0.00    +0.000 C 
ENDROOT
BRANCH   3   7
ATOM      7  C   UNL     1      38.391   4.871  16.514  0.00  0.00    +0.000 A 
ATOM      8  C   UNL     1      38.130   6.189  16.244  0.00  0.00    +0.000 A 
ATOM      9  C   UNL     1      38.274   7.186  17.184  0.00  0.00    +0.000 A 
ATOM     10  C   UNL     1      38.699   6.849  18.461  0.00  0.00    +0.000 A 
ATOM     11  C   UNL     1      38.969   5.535  18.768  0.00  0.00    +0.000 A 
ATOM     12  C   UNL     1      38.812   4.576  17.794  0.00  0.00    +0.000 A 
ENDBRANCH   3   7
BRANCH   1  13
ATOM     13  C   UNL     1      39.651   1.530  12.960  0.00  0.00    +0.000 C 
ATOM     14  O   UNL     1      40.242   2.088  12.021  0.00  0.00    +0.000 OA
BRANCH  13  15
ATOM     15  O   UNL     1      39.766   0.163  13.098  0.00  0.00    +0.000 OA
BRANCH  15  17
ATOM     16  C   UNL     1      41.962   0.395  13.939  0.00  0.00    +0.000 C 
ATOM     17  C   UNL     1      40.966  -0.532  13.254  0.00  0.00    +0.000 C 
ENDBRANCH  15  17
ENDBRANCH  13  15
ENDBRANCH   1  13
BRANCH   4  18
ATOM     18  C   UNL     1      35.822   3.327  15.563  0.00  0.00    +0.000 C 
BRANCH  18  19
ATOM     19  C   UNL     1      35.237   2.321  16.414  0.00  0.00    +0.000 C 
BRANCH  19  20
ATOM     20  C   UNL     1      36.022   1.360  17.155  0.00  0.00    +0.000 C 
ATOM     21  O   UNL     1      36.813   1.697  18.052  0.00  0.00    +0.000 OA
ATOM     22  N   UNL     1      35.946  -0.060  16.909  0.00  0.00    +0.000 NA
BRANCH  22  23
ATOM     23  C   UNL     1      36.741  -0.966  17.669  0.00  0.00    +0.000 A 
ATOM     24  C   UNL     1      36.546  -1.163  19.015  0.00  0.00    +0.000 A 
ATOM     25  C   UNL     1      37.328  -2.046  19.729  0.00  0.00    +0.000 A 
ATOM     26  C   UNL     1      38.330  -2.756  19.114  0.00  0.00    +0.000 A 
ATOM     27  C   UNL     1      38.538  -2.569  17.766  0.00  0.00    +0.000 A 
ATOM     28  C   UNL     1      37.749  -1.685  17.063  0.00  0.00    +0.000 A 
BRANCH  26  29
ATOM     29  O   UNL     1      39.076  -3.624  19.888  0.00  0.00    +0.000 OA
ATOM     30  C   UNL     1      39.021  -5.035  19.743  0.00  0.00    +0.000 C 
ENDBRANCH  26  29
ENDBRANCH  22  23
ENDBRANCH  19  20
ENDBRANCH  18  19
ENDBRANCH   4  18
TORSDOF 9
ENDMDL
MODEL 8
REMARK VINA RESULT:      -6.6      6.635      9.253
REMARK  Name = 
REMARK  9 active torsions:
REMARK  status: ('A' for Active; 'I' for Inactive)
REMARK    1  A    between atoms: C_2  and  O_3
REMARK    2  A    between atoms: O_3  and  C_4
REMARK    3  A    between atoms: C_4  and  C_6
REMARK    4  A    between atoms: C_8  and  C_9
REMARK    5  A    between atoms: N_15  and  C_16
REMARK    6  A    between atoms: C_16  and  C_17
REMARK    7  A    between atoms: C_17  and  C_18
REMARK    8  A    between atoms: N_20  and  C_21
REMARK    9  A    between atoms: C_24  and  O_25
REMARK                            x       y       z     vdW  Elec       q    Type
REMARK                         _______ _______ _______ _____ _____    ______ ____
ROOT
ATOM      1  C   UNL     1      43.895   6.378  22.371  0.00  0.00    +0.000 A 
ATOM      2  C   UNL     1      43.079   5.803  21.427  0.00  0.00    +0.000 A 
ATOM      3  C   UNL     1      42.554   6.783  20.594  0.00  0.00    +0.000 A 
ATOM      4  N   UNL     1      43.053   7.940  21.030  0.00  0.00    +0.000 N 
ATOM      5  C   UNL     1      43.865   7.719  22.107  0.00  0.00    +0.000 A 
ATOM      6  C   UNL     1      44.612   8.741  22.889  0.00  0.00    +0.000 C 
ENDROOT
BRANCH   3   7
ATOM      7  C   UNL     1      41.604   6.499  19.496  0.00  0.00    +0.000 A 
ATOM      8  C   UNL     1      41.964   6.506  18.175  0.00  0.00    +0.000 A 
ATOM      9  C   UNL     1      41.074   6.242  17.156  0.00  0.00    +0.000 A 
ATOM     10  C   UNL     1      39.754   5.957  17.475  0.00  0.00    +0.000 A 
ATOM     11  C   UNL     1      39.356   5.941  18.792  0.00  0.00    +0.000 A 
ATOM     12  C   UNL     1      40.282   6.211  19.773  0.00  0.00    +0.000 A 
ENDBRANCH   3   7
BRANCH   1  13
ATOM     13  C   UNL     1      44.636   5.682  23.436  0.00  0.00    +0.000 C 
ATOM     14  O   UNL     1      44.251   5.750  24.615  0.00  0.00    +0.000 OA
BRANCH  13  15
ATOM     15  O   UNL     1      45.765   4.945  23.148  0.00  0.00    +0.000 OA
BRANCH  15  17
ATOM     16  C   UNL     1      46.535   3.992  21.127  0.00  0.00    +0.000 C 
ATOM     17  C   UNL     1      46.628   5.179  22.077  0.00  0.00    +0.000 C 
ENDBRANCH  15  17
ENDBRANCH  13  15
ENDBRANCH   1  13
BRANCH   4  18
ATOM     18  C   UNL     1      42.858   9.223  20.442  0.00  0.00    +0.000 C 
BRANCH  18  19
ATOM     19  C   UNL     1      41.668   9.984  20.726  0.00  0.00    +0.000 C 
BRANCH  19  20
ATOM     20  C   UNL     1      40.473   9.912  19.917  0.00  0.00    +0.000 C 
ATOM     21  O   UNL     1      40.503   9.629  18.708  0.00  0.00    +0.000 OA
ATOM     22  N   UNL     1      39.156  10.162  20.453  0.00  0.00    +0.000 NA
BRANCH  22  23
ATOM     23  C   UNL     1      38.008  10.077  19.612  0.00  0.00    +0.000 A 
ATOM     24  C   UNL     1      37.552  11.148  18.881  0.00  0.00    +0.000 A 
ATOM     25  C   UNL     1      36.439  11.041  18.075  0.00  0.00    +0.000 A 
ATOM     26  C   UNL     1      35.750   9.857  17.979  0.00  0.00    +0.000 A 
ATOM     27  C   UNL     1      36.194   8.775  18.706  0.00  0.00    +0.000 A 
ATOM     28  C   UNL     1      37.308   8.894  19.508  0.00  0.00    +0.000 A 
BRANCH  26  29
ATOM     29  O   UNL     1      34.644   9.819  17.153  0.00  0.00    +0.000 OA
ATOM     30  C   UNL     1      33.339   9.511  17.619  0.00  0.00    +0.000 C 
ENDBRANCH  26  29
ENDBRANCH  22  23
ENDBRANCH  19  20
ENDBRANCH  18  19
ENDBRANCH   4  18
TORSDOF 9
ENDMDL
MODEL 9
REMARK VINA RESULT:      -6.5      2.578      5.017
REMARK  Name = 
REMARK  9 active torsions:
REMARK  status: ('A' for Active; 'I' for Inactive)
REMARK    1  A    between atoms: C_2  and  O_3
REMARK    2  A    between atoms: O_3  and  C_4
REMARK    3  A    between atoms: C_4  and  C_6
REMARK    4  A    between atoms: C_8  and  C_9
REMARK    5  A    between atoms: N_15  and  C_16
REMARK    6  A    between atoms: C_16  and  C_17
REMARK    7  A    between atoms: C_17  and  C_18
REMARK    8  A    between atoms: N_20  and  C_21
REMARK    9  A    between atoms: C_24  and  O_25
REMARK                            x       y       z     vdW  Elec       q    Type
REMARK                         _______ _______ _______ _____ _____    ______ ____
ROOT
ATOM      1  C   UNL     1      39.884  -1.576  14.335  0.00  0.00    +0.000 A 
ATOM      2  C   UNL     1      38.931  -1.966  15.244  0.00  0.00    +0.000 A 
ATOM      3  C   UNL     1      37.818  -1.141  15.148  0.00  0.00    +0.000 A 
ATOM      4  N   UNL     1      38.096  -0.261  14.185  0.00  0.00    +0.000 N 
ATOM      5  C   UNL     1      39.343  -0.504  13.680  0.00  0.00    +0.000 A 
ATOM      6  C   UNL     1      40.032   0.248  12.598  0.00  0.00    +0.000 C 
ENDROOT
BRANCH   3   7
ATOM      7  C   UNL     1      36.628  -1.268  16.018  0.00  0.00    +0.000 A 
ATOM      8  C   UNL     1      36.445  -0.517  17.149  0.00  0.00    +0.000 A 
ATOM      9  C   UNL     1      35.336  -0.640  17.957  0.00  0.00    +0.000 A 
ATOM     10  C   UNL     1      34.357  -1.563  17.617  0.00  0.00    +0.000 A 
ATOM     11  C   UNL     1      34.507  -2.335  16.487  0.00  0.00    +0.000 A 
ATOM     12  C   UNL     1      35.633  -2.175  15.713  0.00  0.00    +0.000 A 
ENDBRANCH   3   7
BRANCH   1  13
ATOM     13  C   UNL     1      41.204  -2.191  14.125  0.00  0.00    +0.000 C 
ATOM     14  O   UNL     1      41.334  -3.144  13.339  0.00  0.00    +0.000 OA
BRANCH  13  15
ATOM     15  O   UNL     1      42.318  -1.726  14.792  0.00  0.00    +0.000 OA
BRANCH  15  17
ATOM     16  C   UNL     1      44.440  -0.741  15.122  0.00  0.00    +0.000 C 
ATOM     17  C   UNL     1      43.109  -0.651  14.387  0.00  0.00    +0.000 C 
ENDBRANCH  15  17
ENDBRANCH  13  15
ENDBRANCH   1  13
BRANCH   4  18
ATOM     18  C   UNL     1      37.223   0.742  13.674  0.00  0.00    +0.000 C 
BRANCH  18  19
ATOM     19  C   UNL     1      36.828   1.856  14.499  0.00  0.00    +0.000 C 
BRANCH  19  20
ATOM     20  C   UNL     1      37.772   2.681  15.218  0.00  0.00    +0.000 C 
ATOM     21  O   UNL     1      38.973   2.381  15.322  0.00  0.00    +0.000 OA
ATOM     22  N   UNL     1      37.391   3.912  15.868  0.00  0.00    +0.000 NA
BRANCH  22  23
ATOM     23  C   UNL     1      38.361   4.689  16.564  0.00  0.00    +0.000 A 
ATOM     24  C   UNL     1      38.481   4.661  17.933  0.00  0.00    +0.000 A 
ATOM     25  C   UNL     1      39.428   5.422  18.583  0.00  0.00    +0.000 A 
ATOM     26  C   UNL     1      40.283   6.236  17.880  0.00  0.00    +0.000 A 
ATOM     27  C   UNL     1      40.175   6.275  16.508  0.00  0.00    +0.000 A 
ATOM     28  C   UNL     1      39.224   5.509  15.869  0.00  0.00    +0.000 A 
BRANCH  26  29
ATOM     29  O   UNL     1      41.208   6.971  18.594  0.00  0.00    +0.000 OA
ATOM     30  C   UNL     1      42.591   6.652  18.630  0.00  0.00    +0.000 C 
ENDBRANCH  26  29
ENDBRANCH  22  23
ENDBRANCH  19  20
ENDBRANCH  18  19
ENDBRANCH   4  18
TORSDOF 9
ENDMDL
MODEL 10
REMARK VINA RESULT:      -6.4      5.040     10.551
REMARK  Name = 
REMARK  9 active torsions:
REMARK  status: ('A' for Active; 'I' for Inactive)
REMARK    1  A    between atoms: C_2  and  O_3
REMARK    2  A    between atoms: O_3  and  C_4
REMARK    3  A    between atoms: C_4  and  C_6
REMARK    4  A    between atoms: C_8  and  C_9
REMARK    5  A    between atoms: N_15  and  C_16
REMARK    6  A    between atoms: C_16  and  C_17
REMARK    7  A    between atoms: C_17  and  C_18
REMARK    8  A    between atoms: N_20  and  C_21
REMARK    9  A    between atoms: C_24  and  O_25
REMARK                            x       y       z     vdW  Elec       q    Type
REMARK                         _______ _______ _______ _____ _____    ______ ____
ROOT
ATOM      1  C   UNL     1      36.253   0.318  16.329  0.00  0.00    +0.000 A 
ATOM      2  C   UNL     1      37.380   0.086  15.579  0.00  0.00    +0.000 A 
ATOM      3  C   UNL     1      37.484  -1.269  15.287  0.00  0.00    +0.000 A 
ATOM      4  N   UNL     1      36.426  -1.849  15.854  0.00  0.00    +0.000 N 
ATOM      5  C   UNL     1      35.667  -0.907  16.493  0.00  0.00    +0.000 A 
ATOM      6  C   UNL     1      34.407  -1.136  17.250  0.00  0.00    +0.000 C 
ENDROOT
BRANCH   3   7
ATOM      7  C   UNL     1      38.609  -1.857  14.528  0.00  0.00    +0.000 A 
ATOM      8  C   UNL     1      39.802  -2.202  15.107  0.00  0.00    +0.000 A 
ATOM      9  C   UNL     1      40.848  -2.749  14.395  0.00  0.00    +0.000 A 
ATOM     10  C   UNL     1      40.693  -2.962  13.033  0.00  0.00    +0.000 A 
ATOM     11  C   UNL     1      39.509  -2.629  12.417  0.00  0.00    +0.000 A 
ATOM     12  C   UNL     1      38.494  -2.084  13.172  0.00  0.00    +0.000 A 
ENDBRANCH   3   7
BRANCH   1  13
ATOM     13  C   UNL     1      35.789   1.618  16.841  0.00  0.00    +0.000 C 
ATOM     14  O   UNL     1      36.516   2.294  17.587  0.00  0.00    +0.000 OA
BRANCH  13  15
ATOM     15  O   UNL     1      34.544   2.108  16.505  0.00  0.00    +0.000 OA
BRANCH  15  17
ATOM     16  C   UNL     1      35.369   3.104  14.527  0.00  0.00    +0.000 C 
ATOM     17  C   UNL     1      34.305   3.157  15.617  0.00  0.00    +0.000 C 
ENDBRANCH  15  17
ENDBRANCH  13  15
ENDBRANCH   1  13
BRANCH   4  18
ATOM     18  C   UNL     1      36.061  -3.222  15.764  0.00  0.00    +0.000 C 
BRANCH  18  19
ATOM     19  C   UNL     1      35.446  -3.738  14.567  0.00  0.00    +0.000 C 
BRANCH  19  20
ATOM     20  C   UNL     1      34.504  -4.834  14.572  0.00  0.00    +0.000 C 
ATOM     21  O   UNL     1      33.354  -4.726  14.114  0.00  0.00    +0.000 OA
ATOM     22  N   UNL     1      34.828  -6.134  15.108  0.00  0.00    +0.000 NA
BRANCH  22  23
ATOM     23  C   UNL     1      33.862  -7.182  15.089  0.00  0.00    +0.000 A 
ATOM     24  C   UNL     1      33.752  -8.060  14.037  0.00  0.00    +0.000 A 
ATOM     25  C   UNL     1      32.810  -9.066  14.042  0.00  0.00    +0.000 A 
ATOM     26  C   UNL     1      31.950  -9.222  15.101  0.00  0.00    +0.000 A 
ATOM     27  C   UNL     1      32.048  -8.350  16.162  0.00  0.00    +0.000 A 
ATOM     28  C   UNL     1      32.994  -7.348  16.147  0.00  0.00    +0.000 A 
BRANCH  26  29
ATOM     29  O   UNL     1      31.031 -10.251  15.041  0.00  0.00    +0.000 OA
ATOM     30  C   UNL     1      30.008 -10.320  14.059  0.00  0.00    +0.000 C 
ENDBRANCH  26  29
ENDBRANCH  22  23
ENDBRANCH  19  20
ENDBRANCH  18  19
ENDBRANCH   4  18
TORSDOF 9
ENDMDL
