MODEL 1
REMARK VINA RESULT:      -5.9      0.000      0.000
REMARK  Name = 
REMARK  5 active torsions:
REMARK  status: ('A' for Active; 'I' for Inactive)
REMARK    1  A    between atoms: C_2  and  O_5
REMARK    2  A    between atoms: O_5  and  C_6
REMARK    3  A    between atoms: N_8  and  C_9
REMARK    4  A    between atoms: C_9  and  C_10
REMARK    5  A    between atoms: C_10  and  C_11
REMARK                            x       y       z     vdW  Elec       q    Type
REMARK                         _______ _______ _______ _____ _____    ______ ____
ROOT
ATOM      1  C   UNL     1      16.252  10.796  36.610  0.00  0.00    +0.000 C 
ENDROOT
BRANCH   1   2
ATOM      2  C   UNL     1      15.576  11.601  35.564  0.00  0.00    +0.000 A 
ATOM      3  C   UNL     1      14.709  12.637  35.787  0.00  0.00    +0.000 A 
ATOM      4  N   UNL     1      14.317  13.101  34.597  0.00  0.00    +0.000 NA
ATOM      5  C   UNL     1      14.914  12.384  33.637  0.00  0.00    +0.000 A 
ATOM      6  C   UNL     1      14.830  12.479  32.251  0.00  0.00    +0.000 A 
ATOM      7  C   UNL     1      15.563  11.600  31.487  0.00  0.00    +0.000 A 
ATOM      8  C   UNL     1      16.367  10.642  32.068  0.00  0.00    +0.000 A 
ATOM      9  C   UNL     1      16.468  10.526  33.438  0.00  0.00    +0.000 A 
ATOM     10  C   UNL     1      15.719  11.425  34.194  0.00  0.00    +0.000 A 
ENDBRANCH   1   2
BRANCH   1  11
ATOM     11  C   UNL     1      17.402  11.668  37.126  0.00  0.00    +0.000 C 
BRANCH  11  14
ATOM     12  C   UNL     1      19.189  10.310  38.141  0.00  0.00    +0.000 C 
ATOM     13  O   UNL     1      18.681  10.571  39.280  0.00  0.00    +0.000 OA
ATOM     14  N   UNL     1      18.601  10.835  36.939  0.00  0.00    +0.000 NA
BRANCH  12  15
ATOM     15  O   UNL     1      20.318   9.508  38.134  0.00  0.00    +0.000 OA
BRANCH  15  17
ATOM     16  C   UNL     1      22.640   9.375  38.758  0.00  0.00    +0.000 C 
ATOM     17  C   UNL     1      21.617  10.045  37.863  0.00  0.00    +0.000 C 
ATOM     18  C   UNL     1      21.954   9.772  36.414  0.00  0.00    +0.000 C 
ATOM     19  C   UNL     1      21.643  11.525  38.194  0.00  0.00    +0.000 C 
ENDBRANCH  15  17
ENDBRANCH  12  15
ENDBRANCH  11  14
ENDBRANCH   1  11
TORSDOF 5
ENDMDL
MODEL 2
REMARK VINA RESULT:      -5.9      1.271      2.331
REMARK  Name = 
REMARK  5 active torsions:
REMARK  status: ('A' for Active; 'I' for Inactive)
REMARK    1  A    between atoms: C_2  and  O_5
REMARK    2  A    between atoms: O_5  and  C_6
REMARK    3  A    between atoms: N_8  and  C_9
REMARK    4  A    between atoms: C_9  and  C_10
REMARK    5  A    between atoms: C_10  and  C_11
REMARK                            x       y       z     vdW  Elec       q    Type
REMARK                         _______ _______ _______ _____ _____    ______ ____
ROOT
ATOM      1  C   UNL     1      16.055  11.378  36.598  0.00  0.00    +0.000 C 
ENDROOT
BRANCH   1   2
ATOM      2  C   UNL     1      15.850  11.606  35.148  0.00  0.00    +0.000 A 
ATOM      3  C   UNL     1      16.465  10.921  34.135  0.00  0.00    +0.000 A 
ATOM      4  N   UNL     1      16.019  11.418  32.979  0.00  0.00    +0.000 NA
ATOM      5  C   UNL     1      15.141  12.395  33.240  0.00  0.00    +0.000 A 
ATOM      6  C   UNL     1      14.409  13.209  32.382  0.00  0.00    +0.000 A 
ATOM      7  C   UNL     1      13.566  14.150  32.927  0.00  0.00    +0.000 A 
ATOM      8  C   UNL     1      13.437  14.292  34.292  0.00  0.00    +0.000 A 
ATOM      9  C   UNL     1      14.150  13.499  35.166  0.00  0.00    +0.000 A 
ATOM     10  C   UNL     1      14.999  12.553  34.594  0.00  0.00    +0.000 A 
ENDBRANCH   1   2
BRANCH   1  11
ATOM     11  C   UNL     1      17.065  10.228  36.700  0.00  0.00    +0.000 C 
BRANCH  11  14
ATOM     12  C   UNL     1      19.171  10.116  37.971  0.00  0.00    +0.000 C 
ATOM     13  O   UNL     1      18.830   8.950  38.351  0.00  0.00    +0.000 OA
ATOM     14  N   UNL     1      18.320  10.882  37.103  0.00  0.00    +0.000 NA
BRANCH  12  15
ATOM     15  O   UNL     1      20.386  10.590  38.438  0.00  0.00    +0.000 OA
BRANCH  15  17
ATOM     16  C   UNL     1      22.479  11.408  37.574  0.00  0.00    +0.000 C 
ATOM     17  C   UNL     1      21.625  10.186  37.847  0.00  0.00    +0.000 C 
ATOM     18  C   UNL     1      22.341   9.273  38.817  0.00  0.00    +0.000 C 
ATOM     19  C   UNL     1      21.366   9.521  36.509  0.00  0.00    +0.000 C 
ENDBRANCH  15  17
ENDBRANCH  12  15
ENDBRANCH  11  14
ENDBRANCH   1  11
TORSDOF 5
ENDMDL
MODEL 3
REMARK VINA RESULT:      -5.6     20.986     22.462
REMARK  Name = 
REMARK  5 active torsions:
REMARK  status: ('A' for Active; 'I' for Inactive)
REMARK    1  A    between atoms: C_2  and  O_5
REMARK    2  A    between atoms: O_5  and  C_6
REMARK    3  A    between atoms: N_8  and  C_9
REMARK    4  A    between atoms: C_9  and  C_10
REMARK    5  A    between atoms: C_10  and  C_11
REMARK                            x       y       z     vdW  Elec       q    Type
REMARK                         _______ _______ _______ _____ _____    ______ ____
ROOT
ATOM      1  C   UNL     1      20.465  -9.644  24.954  0.00  0.00    +0.000 C 
ENDROOT
BRANCH   1   2
ATOM      2  C   UNL     1      19.437  -8.978  25.789  0.00  0.00    +0.000 A 
ATOM      3  C   UNL     1      18.424  -9.605  26.462  0.00  0.00    +0.000 A 
ATOM      4  N   UNL     1      17.714  -8.666  27.094  0.00  0.00    +0.000 NA
ATOM      5  C   UNL     1      18.256  -7.470  26.836  0.00  0.00    +0.000 A 
ATOM      6  C   UNL     1      17.885  -6.197  27.257  0.00  0.00    +0.000 A 
ATOM      7  C   UNL     1      18.631  -5.121  26.834  0.00  0.00    +0.000 A 
ATOM      8  C   UNL     1      19.724  -5.286  26.010  0.00  0.00    +0.000 A 
ATOM      9  C   UNL     1      20.114  -6.535  25.577  0.00  0.00    +0.000 A 
ATOM     10  C   UNL     1      19.346  -7.612  26.017  0.00  0.00    +0.000 A 
ENDBRANCH   1   2
BRANCH   1  11
ATOM     11  C   UNL     1      21.578 -10.065  25.922  0.00  0.00    +0.000 C 
BRANCH  11  14
ATOM     12  C   UNL     1      23.661  -9.500  24.735  0.00  0.00    +0.000 C 
ATOM     13  O   UNL     1      23.594 -10.637  24.164  0.00  0.00    +0.000 OA
ATOM     14  N   UNL     1      22.656  -9.094  25.678  0.00  0.00    +0.000 NA
BRANCH  12  15
ATOM     15  O   UNL     1      24.739  -8.699  24.397  0.00  0.00    +0.000 OA
BRANCH  15  17
ATOM     16  C   UNL     1      23.968  -6.421  24.295  0.00  0.00    +0.000 C 
ATOM     17  C   UNL     1      24.591  -7.570  23.530  0.00  0.00    +0.000 C 
ATOM     18  C   UNL     1      25.962  -7.166  23.034  0.00  0.00    +0.000 C 
ATOM     19  C   UNL     1      23.643  -7.911  22.396  0.00  0.00    +0.000 C 
ENDBRANCH  15  17
ENDBRANCH  12  15
ENDBRANCH  11  14
ENDBRANCH   1  11
TORSDOF 5
ENDMDL
MODEL 4
REMARK VINA RESULT:      -5.6     20.578     22.573
REMARK  Name = 
REMARK  5 active torsions:
REMARK  status: ('A' for Active; 'I' for Inactive)
REMARK    1  A    between atoms: C_2  and  O_5
REMARK    2  A    between atoms: O_5  and  C_6
REMARK    3  A    between atoms: N_8  and  C_9
REMARK    4  A    between atoms: C_9  and  C_10
REMARK    5  A    between atoms: C_10  and  C_11
REMARK                            x       y       z     vdW  Elec       q    Type
REMARK                         _______ _______ _______ _____ _____    ______ ____
ROOT
ATOM      1  C   UNL     1      17.224  -9.259  27.376  0.00  0.00    +0.000 C 
ENDROOT
BRANCH   1   2
ATOM      2  C   UNL     1      17.774  -7.937  26.987  0.00  0.00    +0.000 A 
ATOM      3  C   UNL     1      17.135  -6.734  27.126  0.00  0.00    +0.000 A 
ATOM      4  N   UNL     1      17.954  -5.785  26.663  0.00  0.00    +0.000 NA
ATOM      5  C   UNL     1      19.086  -6.361  26.241  0.00  0.00    +0.000 A 
ATOM      6  C   UNL     1      20.232  -5.805  25.682  0.00  0.00    +0.000 A 
ATOM      7  C   UNL     1      21.266  -6.642  25.331  0.00  0.00    +0.000 A 
ATOM      8  C   UNL     1      21.182  -8.005  25.524  0.00  0.00    +0.000 A 
ATOM      9  C   UNL     1      20.058  -8.583  26.075  0.00  0.00    +0.000 A 
ATOM     10  C   UNL     1      19.023  -7.718  26.424  0.00  0.00    +0.000 A 
ENDBRANCH   1   2
BRANCH   1  11
ATOM     11  C   UNL     1      16.396  -9.734  26.176  0.00  0.00    +0.000 C 
BRANCH  11  14
ATOM     12  C   UNL     1      14.300  -8.597  25.557  0.00  0.00    +0.000 C 
ATOM     13  O   UNL     1      14.862  -8.245  24.471  0.00  0.00    +0.000 OA
ATOM     14  N   UNL     1      15.012  -9.381  26.529  0.00  0.00    +0.000 NA
BRANCH  12  15
ATOM     15  O   UNL     1      12.990  -8.186  25.741  0.00  0.00    +0.000 OA
BRANCH  15  17
ATOM     16  C   UNL     1      10.989  -9.079  26.737  0.00  0.00    +0.000 C 
ATOM     17  C   UNL     1      11.889  -9.073  25.518  0.00  0.00    +0.000 C 
ATOM     18  C   UNL     1      11.113  -8.578  24.318  0.00  0.00    +0.000 C 
ATOM     19  C   UNL     1      12.395 -10.491  25.336  0.00  0.00    +0.000 C 
ENDBRANCH  15  17
ENDBRANCH  12  15
ENDBRANCH  11  14
ENDBRANCH   1  11
TORSDOF 5
ENDMDL
MODEL 5
REMARK VINA RESULT:      -5.6     18.015     19.029
REMARK  Name = 
REMARK  5 active torsions:
REMARK  status: ('A' for Active; 'I' for Inactive)
REMARK    1  A    between atoms: C_2  and  O_5
REMARK    2  A    between atoms: O_5  and  C_6
REMARK    3  A    between atoms: N_8  and  C_9
REMARK    4  A    between atoms: C_9  and  C_10
REMARK    5  A    between atoms: C_10  and  C_11
REMARK                            x       y       z     vdW  Elec       q    Type
REMARK                         _______ _______ _______ _____ _____    ______ ____
ROOT
ATOM      1  C   UNL     1      30.232  21.971  27.033  0.00  0.00    +0.000 C 
ENDROOT
BRANCH   1   2
ATOM      2  C   UNL     1      29.884  22.495  25.690  0.00  0.00    +0.000 A 
ATOM      3  C   UNL     1      30.775  22.821  24.704  0.00  0.00    +0.000 A 
ATOM      4  N   UNL     1      30.075  23.255  23.652  0.00  0.00    +0.000 NA
ATOM      5  C   UNL     1      28.771  23.208  23.953  0.00  0.00    +0.000 A 
ATOM      6  C   UNL     1      27.654  23.551  23.198  0.00  0.00    +0.000 A 
ATOM      7  C   UNL     1      26.408  23.403  23.763  0.00  0.00    +0.000 A 
ATOM      8  C   UNL     1      26.255  22.925  25.048  0.00  0.00    +0.000 A 
ATOM      9  C   UNL     1      27.345  22.579  25.818  0.00  0.00    +0.000 A 
ATOM     10  C   UNL     1      28.597  22.736  25.228  0.00  0.00    +0.000 A 
ENDBRANCH   1   2
BRANCH   1  11
ATOM     11  C   UNL     1      30.895  23.136  27.776  0.00  0.00    +0.000 C 
BRANCH  11  14
ATOM     12  C   UNL     1      29.258  23.829  29.481  0.00  0.00    +0.000 C 
ATOM     13  O   UNL     1      29.762  22.955  30.258  0.00  0.00    +0.000 OA
ATOM     14  N   UNL     1      29.773  24.012  28.152  0.00  0.00    +0.000 NA
BRANCH  12  15
ATOM     15  O   UNL     1      28.206  24.575  29.986  0.00  0.00    +0.000 OA
BRANCH  15  17
ATOM     16  C   UNL     1      25.919  24.766  30.716  0.00  0.00    +0.000 C 
ATOM     17  C   UNL     1      26.850  24.307  29.612  0.00  0.00    +0.000 C 
ATOM     18  C   UNL     1      26.546  25.070  28.342  0.00  0.00    +0.000 C 
ATOM     19  C   UNL     1      26.644  22.813  29.453  0.00  0.00    +0.000 C 
ENDBRANCH  15  17
ENDBRANCH  12  15
ENDBRANCH  11  14
ENDBRANCH   1  11
TORSDOF 5
ENDMDL
MODEL 6
REMARK VINA RESULT:      -5.6     19.318     21.893
REMARK  Name = 
REMARK  5 active torsions:
REMARK  status: ('A' for Active; 'I' for Inactive)
REMARK    1  A    between atoms: C_2  and  O_5
REMARK    2  A    between atoms: O_5  and  C_6
REMARK    3  A    between atoms: N_8  and  C_9
REMARK    4  A    between atoms: C_9  and  C_10
REMARK    5  A    between atoms: C_10  and  C_11
REMARK                            x       y       z     vdW  Elec       q    Type
REMARK                         _______ _______ _______ _____ _____    ______ ____
ROOT
ATOM      1  C   UNL     1      34.295  -2.857  34.823  0.00  0.00    +0.000 C 
ENDROOT
BRANCH   1   2
ATOM      2  C   UNL     1      33.939  -1.453  35.141  0.00  0.00    +0.000 A 
ATOM      3  C   UNL     1      33.537  -0.987  36.364  0.00  0.00    +0.000 A 
ATOM      4  N   UNL     1      33.311   0.324  36.243  0.00  0.00    +0.000 NA
ATOM      5  C   UNL     1      33.561   0.691  34.980  0.00  0.00    +0.000 A 
ATOM      6  C   UNL     1      33.474   1.935  34.364  0.00  0.00    +0.000 A 
ATOM      7  C   UNL     1      33.794   2.031  33.029  0.00  0.00    +0.000 A 
ATOM      8  C   UNL     1      34.195   0.927  32.307  0.00  0.00    +0.000 A 
ATOM      9  C   UNL     1      34.289  -0.317  32.892  0.00  0.00    +0.000 A 
ATOM     10  C   UNL     1      33.961  -0.394  34.244  0.00  0.00    +0.000 A 
ENDBRANCH   1   2
BRANCH   1  11
ATOM     11  C   UNL     1      33.091  -3.430  34.067  0.00  0.00    +0.000 C 
BRANCH  11  14
ATOM     12  C   UNL     1      33.997  -5.084  32.483  0.00  0.00    +0.000 C 
ATOM     13  O   UNL     1      33.883  -5.961  33.399  0.00  0.00    +0.000 OA
ATOM     14  N   UNL     1      33.613  -3.720  32.722  0.00  0.00    +0.000 NA
BRANCH  12  15
ATOM     15  O   UNL     1      34.505  -5.518  31.269  0.00  0.00    +0.000 OA
BRANCH  15  17
ATOM     16  C   UNL     1      32.227  -5.926  30.606  0.00  0.00    +0.000 C 
ATOM     17  C   UNL     1      33.687  -6.209  30.319  0.00  0.00    +0.000 C 
ATOM     18  C   UNL     1      34.038  -5.710  28.935  0.00  0.00    +0.000 C 
ATOM     19  C   UNL     1      33.883  -7.706  30.461  0.00  0.00    +0.000 C 
ENDBRANCH  15  17
ENDBRANCH  12  15
ENDBRANCH  11  14
ENDBRANCH   1  11
TORSDOF 5
ENDMDL
MODEL 7
REMARK VINA RESULT:      -5.4     18.137     19.228
REMARK  Name = 
REMARK  5 active torsions:
REMARK  status: ('A' for Active; 'I' for Inactive)
REMARK    1  A    between atoms: C_2  and  O_5
REMARK    2  A    between atoms: O_5  and  C_6
REMARK    3  A    between atoms: N_8  and  C_9
REMARK    4  A    between atoms: C_9  and  C_10
REMARK    5  A    between atoms: C_10  and  C_11
REMARK                            x       y       z     vdW  Elec       q    Type
REMARK                         _______ _______ _______ _____ _____    ______ ____
ROOT
ATOM      1  C   UNL     1      25.720  23.309  24.880  0.00  0.00    +0.000 C 
ENDROOT
BRANCH   1   2
ATOM      2  C   UNL     1      27.135  23.229  24.443  0.00  0.00    +0.000 A 
ATOM      3  C   UNL     1      27.600  23.501  23.185  0.00  0.00    +0.000 A 
ATOM      4  N   UNL     1      28.923  23.314  23.192  0.00  0.00    +0.000 NA
ATOM      5  C   UNL     1      29.298  22.936  24.420  0.00  0.00    +0.000 A 
ATOM      6  C   UNL     1      30.555  22.625  24.928  0.00  0.00    +0.000 A 
ATOM      7  C   UNL     1      30.658  22.258  26.250  0.00  0.00    +0.000 A 
ATOM      8  C   UNL     1      29.547  22.195  27.065  0.00  0.00    +0.000 A 
ATOM      9  C   UNL     1      28.290  22.497  26.588  0.00  0.00    +0.000 A 
ATOM     10  C   UNL     1      28.207  22.867  25.247  0.00  0.00    +0.000 A 
ENDBRANCH   1   2
BRANCH   1  11
ATOM     11  C   UNL     1      25.424  24.803  25.060  0.00  0.00    +0.000 C 
BRANCH  11  14
ATOM     12  C   UNL     1      26.087  25.531  27.318  0.00  0.00    +0.000 C 
ATOM     13  O   UNL     1      27.198  25.908  26.823  0.00  0.00    +0.000 OA
ATOM     14  N   UNL     1      25.079  24.935  26.485  0.00  0.00    +0.000 NA
BRANCH  12  15
ATOM     15  O   UNL     1      25.915  25.725  28.678  0.00  0.00    +0.000 OA
BRANCH  15  17
ATOM     16  C   UNL     1      26.131  23.403  29.275  0.00  0.00    +0.000 C 
ATOM     17  C   UNL     1      26.483  24.831  29.641  0.00  0.00    +0.000 C 
ATOM     18  C   UNL     1      27.985  25.004  29.625  0.00  0.00    +0.000 C 
ATOM     19  C   UNL     1      25.884  25.097  31.009  0.00  0.00    +0.000 C 
ENDBRANCH  15  17
ENDBRANCH  12  15
ENDBRANCH  11  14
ENDBRANCH   1  11
TORSDOF 5
ENDMDL
MODEL 8
REMARK VINA RESULT:      -5.4     18.756     19.631
REMARK  Name = 
REMARK  5 active torsions:
REMARK  status: ('A' for Active; 'I' for Inactive)
REMARK    1  A    between atoms: C_2  and  O_5
REMARK    2  A    between atoms: O_5  and  C_6
REMARK    3  A    between atoms: N_8  and  C_9
REMARK    4  A    between atoms: C_9  and  C_10
REMARK    5  A    between atoms: C_10  and  C_11
REMARK                            x       y       z     vdW  Elec       q    Type
REMARK                         _______ _______ _______ _____ _____    ______ ____
ROOT
ATOM      1  C   UNL     1      25.835  24.999  25.735  0.00  0.00    +0.000 C 
ENDROOT
BRANCH   1   2
ATOM      2  C   UNL     1      26.201  24.374  24.442  0.00  0.00    +0.000 A 
ATOM      3  C   UNL     1      25.449  23.459  23.755  0.00  0.00    +0.000 A 
ATOM      4  N   UNL     1      26.117  23.138  22.643  0.00  0.00    +0.000 NA
ATOM      5  C   UNL     1      27.264  23.828  22.615  0.00  0.00    +0.000 A 
ATOM      6  C   UNL     1      28.291  23.841  21.676  0.00  0.00    +0.000 A 
ATOM      7  C   UNL     1      29.376  24.656  21.901  0.00  0.00    +0.000 A 
ATOM      8  C   UNL     1      29.458  25.448  23.026  0.00  0.00    +0.000 A 
ATOM      9  C   UNL     1      28.456  25.454  23.973  0.00  0.00    +0.000 A 
ATOM     10  C   UNL     1      27.365  24.622  23.728  0.00  0.00    +0.000 A 
ENDBRANCH   1   2
BRANCH   1  11
ATOM     11  C   UNL     1      25.664  23.840  26.724  0.00  0.00    +0.000 C 
BRANCH  11  14
ATOM     12  C   UNL     1      27.741  23.008  27.754  0.00  0.00    +0.000 C 
ATOM     13  O   UNL     1      27.402  23.612  28.823  0.00  0.00    +0.000 OA
ATOM     14  N   UNL     1      26.904  23.060  26.587  0.00  0.00    +0.000 NA
BRANCH  12  15
ATOM     15  O   UNL     1      28.940  22.315  27.786  0.00  0.00    +0.000 OA
BRANCH  15  17
ATOM     16  C   UNL     1      30.091  24.317  27.107  0.00  0.00    +0.000 C 
ATOM     17  C   UNL     1      30.105  22.802  27.112  0.00  0.00    +0.000 C 
ATOM     18  C   UNL     1      31.326  22.307  27.854  0.00  0.00    +0.000 C 
ATOM     19  C   UNL     1      30.088  22.355  25.663  0.00  0.00    +0.000 C 
ENDBRANCH  15  17
ENDBRANCH  12  15
ENDBRANCH  11  14
ENDBRANCH   1  11
TORSDOF 5
ENDMDL
MODEL 9
REMARK VINA RESULT:      -5.3     21.341     22.806
REMARK  Name = 
REMARK  5 active torsions:
REMARK  status: ('A' for Active; 'I' for Inactive)
REMARK    1  A    between atoms: C_2  and  O_5
REMARK    2  A    between atoms: O_5  and  C_6
REMARK    3  A    between atoms: N_8  and  C_9
REMARK    4  A    between atoms: C_9  and  C_10
REMARK    5  A    between atoms: C_10  and  C_11
REMARK                            x       y       z     vdW  Elec       q    Type
REMARK                         _______ _______ _______ _____ _____    ______ ____
ROOT
ATOM      1  C   UNL     1      22.058  -8.966  25.701  0.00  0.00    +0.000 C 
ENDROOT
BRANCH   1   2
ATOM      2  C   UNL     1      21.111  -7.825  25.718  0.00  0.00    +0.000 A 
ATOM      3  C   UNL     1      21.312  -6.610  25.118  0.00  0.00    +0.000 A 
ATOM      4  N   UNL     1      20.236  -5.856  25.360  0.00  0.00    +0.000 NA
ATOM      5  C   UNL     1      19.368  -6.565  26.093  0.00  0.00    +0.000 A 
ATOM      6  C   UNL     1      18.116  -6.225  26.594  0.00  0.00    +0.000 A 
ATOM      7  C   UNL     1      17.426  -7.161  27.330  0.00  0.00    +0.000 A 
ATOM      8  C   UNL     1      17.952  -8.412  27.572  0.00  0.00    +0.000 A 
ATOM      9  C   UNL     1      19.191  -8.775  27.088  0.00  0.00    +0.000 A 
ATOM     10  C   UNL     1      19.873  -7.814  26.345  0.00  0.00    +0.000 A 
ENDBRANCH   1   2
BRANCH   1  11
ATOM     11  C   UNL     1      22.559  -9.070  24.256  0.00  0.00    +0.000 C 
BRANCH  11  14
ATOM     12  C   UNL     1      24.607  -7.865  23.609  0.00  0.00    +0.000 C 
ATOM     13  O   UNL     1      23.882  -7.102  22.893  0.00  0.00    +0.000 OA
ATOM     14  N   UNL     1      24.020  -8.934  24.368  0.00  0.00    +0.000 NA
BRANCH  12  15
ATOM     15  O   UNL     1      25.968  -7.605  23.610  0.00  0.00    +0.000 OA
BRANCH  15  17
ATOM     16  C   UNL     1      27.813  -7.459  22.070  0.00  0.00    +0.000 C 
ATOM     17  C   UNL     1      26.879  -8.382  22.826  0.00  0.00    +0.000 C 
ATOM     18  C   UNL     1      27.681  -9.263  23.759  0.00  0.00    +0.000 C 
ATOM     19  C   UNL     1      26.116  -9.183  21.789  0.00  0.00    +0.000 C 
ENDBRANCH  15  17
ENDBRANCH  12  15
ENDBRANCH  11  14
ENDBRANCH   1  11
TORSDOF 5
ENDMDL
MODEL 10
REMARK VINA RESULT:      -5.2     23.324     24.881
REMARK  Name = 
REMARK  5 active torsions:
REMARK  status: ('A' for Active; 'I' for Inactive)
REMARK    1  A    between atoms: C_2  and  O_5
REMARK    2  A    between atoms: O_5  and  C_6
REMARK    3  A    between atoms: N_8  and  C_9
REMARK    4  A    between atoms: C_9  and  C_10
REMARK    5  A    between atoms: C_10  and  C_11
REMARK                            x       y       z     vdW  Elec       q    Type
REMARK                         _______ _______ _______ _____ _____    ______ ____
ROOT
ATOM      1  C   UNL     1      29.322  25.187  21.000  0.00  0.00    +0.000 C 
ENDROOT
BRANCH   1   2
ATOM      2  C   UNL     1      28.853  25.357  22.396  0.00  0.00    +0.000 A 
ATOM      3  C   UNL     1      29.426  26.169  23.338  0.00  0.00    +0.000 A 
ATOM      4  N   UNL     1      28.717  26.046  24.464  0.00  0.00    +0.000 NA
ATOM      5  C   UNL     1      27.717  25.181  24.252  0.00  0.00    +0.000 A 
ATOM      6  C   UNL     1      26.718  24.725  25.105  0.00  0.00    +0.000 A 
ATOM      7  C   UNL     1      25.803  23.819  24.620  0.00  0.00    +0.000 A 
ATOM      8  C   UNL     1      25.862  23.366  23.319  0.00  0.00    +0.000 A 
ATOM      9  C   UNL     1      26.842  23.801  22.453  0.00  0.00    +0.000 A 
ATOM     10  C   UNL     1      27.760  24.718  22.963  0.00  0.00    +0.000 A 
ENDBRANCH   1   2
BRANCH   1  11
ATOM     11  C   UNL     1      29.583  26.603  20.473  0.00  0.00    +0.000 C 
BRANCH  11  14
ATOM     12  C   UNL     1      30.309  27.582  18.333  0.00  0.00    +0.000 C 
ATOM     13  O   UNL     1      30.405  28.704  18.927  0.00  0.00    +0.000 OA
ATOM     14  N   UNL     1      29.885  26.409  19.045  0.00  0.00    +0.000 NA
BRANCH  12  15
ATOM     15  O   UNL     1      30.630  27.565  16.985  0.00  0.00    +0.000 OA
BRANCH  15  17
ATOM     16  C   UNL     1      28.382  28.317  16.566  0.00  0.00    +0.000 C 
ATOM     17  C   UNL     1      29.625  27.685  15.974  0.00  0.00    +0.000 C 
ATOM     18  C   UNL     1      30.163  28.564  14.867  0.00  0.00    +0.000 C 
ATOM     19  C   UNL     1      29.225  26.309  15.476  0.00  0.00    +0.000 C 
ENDBRANCH  15  17
ENDBRANCH  12  15
ENDBRANCH  11  14
ENDBRANCH   1  11
TORSDOF 5
ENDMDL
