MODEL 1
REMARK VINA RESULT:      -7.5      0.000      0.000
REMARK  Name = 
REMARK  3 active torsions:
REMARK  status: ('A' for Active; 'I' for Inactive)
REMARK    1  A    between atoms: C_6  and  N_7
REMARK    2  A    between atoms: N_10  and  C_11
REMARK    3  A    between atoms: C_11  and  C_12
REMARK                            x       y       z     vdW  Elec       q    Type
REMARK                         _______ _______ _______ _____ _____    ______ ____
ROOT
ATOM      1  N   UNL     1      16.648  11.348  35.828  0.00  0.00    +0.000 N 
ATOM      2  C   UNL     1      15.965  12.637  35.895  0.00  0.00    +0.000 C 
ATOM      3  C   UNL     1      14.784  12.374  34.976  0.00  0.00    +0.000 C 
ATOM      4  N   UNL     1      15.353  11.554  33.938  0.00  0.00    +0.000 N 
ATOM      5  C   UNL     1      16.520  10.902  34.474  0.00  0.00    +0.000 C 
ATOM      6  O   UNL     1      17.271  10.109  33.877  0.00  0.00    +0.000 OA
ENDROOT
BRANCH   1  12
ATOM      7  C   UNL     1      16.739   9.488  40.458  0.00  0.00    +0.000 C 
ATOM      8  C   UNL     1      17.371   9.756  39.143  0.00  0.00    +0.000 A 
ATOM      9  C   UNL     1      18.674   9.333  38.935  0.00  0.00    +0.000 A 
ATOM     10  C   UNL     1      19.308   9.559  37.728  0.00  0.00    +0.000 A 
ATOM     11  C   UNL     1      18.618  10.214  36.738  0.00  0.00    +0.000 A 
ATOM     12  C   UNL     1      17.301  10.667  36.887  0.00  0.00    +0.000 A 
ATOM     13  C   UNL     1      16.725  10.409  38.118  0.00  0.00    +0.000 A 
ENDBRANCH   1  12
BRANCH   4  14
ATOM     14  C   UNL     1      14.847  11.402  32.584  0.00  0.00    +0.000 C 
BRANCH  14  15
ATOM     15  C   UNL     1      15.360  12.423  31.674  0.00  0.00    +0.000 A 
ATOM     16  N   UNL     1      16.460  12.369  30.934  0.00  0.00    +0.000 NA
ATOM     17  C   UNL     1      16.601  13.513  30.237  0.00  0.00    +0.000 A 
ATOM     18  N   UNL     1      15.551  14.297  30.560  0.00  0.00    +0.000 NA
ATOM     19  C   UNL     1      14.775  13.661  31.433  0.00  0.00    +0.000 A 
ATOM     20  C   UNL     1      13.521  14.184  32.030  0.00  0.00    +0.000 C 
ENDBRANCH  14  15
ENDBRANCH   4  14
TORSDOF 3
ENDMDL
MODEL 2
REMARK VINA RESULT:      -7.4      2.112      7.305
REMARK  Name = 
REMARK  3 active torsions:
REMARK  status: ('A' for Active; 'I' for Inactive)
REMARK    1  A    between atoms: C_6  and  N_7
REMARK    2  A    between atoms: N_10  and  C_11
REMARK    3  A    between atoms: C_11  and  C_12
REMARK                            x       y       z     vdW  Elec       q    Type
REMARK                         _______ _______ _______ _____ _____    ______ ____
ROOT
ATOM      1  N   UNL     1      16.768  10.837  34.148  0.00  0.00    +0.000 N 
ATOM      2  C   UNL     1      17.852   9.871  34.306  0.00  0.00    +0.000 C 
ATOM      3  C   UNL     1      17.467   9.235  35.630  0.00  0.00    +0.000 C 
ATOM      4  N   UNL     1      16.947  10.343  36.388  0.00  0.00    +0.000 N 
ATOM      5  C   UNL     1      16.499  11.348  35.458  0.00  0.00    +0.000 C 
ATOM      6  O   UNL     1      15.982  12.445  35.737  0.00  0.00    +0.000 OA
ENDROOT
BRANCH   1  12
ATOM      7  C   UNL     1      16.217  13.753  30.137  0.00  0.00    +0.000 C 
ATOM      8  C   UNL     1      15.813  12.606  30.985  0.00  0.00    +0.000 A 
ATOM      9  C   UNL     1      14.722  11.845  30.597  0.00  0.00    +0.000 A 
ATOM     10  C   UNL     1      14.306  10.766  31.352  0.00  0.00    +0.000 A 
ATOM     11  C   UNL     1      14.996  10.465  32.500  0.00  0.00    +0.000 A 
ATOM     12  C   UNL     1      16.105  11.194  32.946  0.00  0.00    +0.000 A 
ATOM     13  C   UNL     1      16.470  12.261  32.144  0.00  0.00    +0.000 A 
ENDBRANCH   1  12
BRANCH   4  14
ATOM     14  C   UNL     1      16.879  10.442  37.837  0.00  0.00    +0.000 C 
BRANCH  14  15
ATOM     15  C   UNL     1      18.123  10.039  38.487  0.00  0.00    +0.000 A 
ATOM     16  N   UNL     1      18.399   8.872  39.053  0.00  0.00    +0.000 NA
ATOM     17  C   UNL     1      19.649   8.890  39.556  0.00  0.00    +0.000 A 
ATOM     18  N   UNL     1      20.157  10.111  39.289  0.00  0.00    +0.000 NA
ATOM     19  C   UNL     1      19.253  10.836  38.637  0.00  0.00    +0.000 A 
ATOM     20  C   UNL     1      19.429  12.230  38.162  0.00  0.00    +0.000 C 
ENDBRANCH  14  15
ENDBRANCH   4  14
TORSDOF 3
ENDMDL
MODEL 3
REMARK VINA RESULT:      -7.3      2.249      6.810
REMARK  Name = 
REMARK  3 active torsions:
REMARK  status: ('A' for Active; 'I' for Inactive)
REMARK    1  A    between atoms: C_6  and  N_7
REMARK    2  A    between atoms: N_10  and  C_11
REMARK    3  A    between atoms: C_11  and  C_12
REMARK                            x       y       z     vdW  Elec       q    Type
REMARK                         _______ _______ _______ _____ _____    ______ ____
ROOT
ATOM      1  N   UNL     1      16.295  11.487  35.081  0.00  0.00    +0.000 N 
ATOM      2  C   UNL     1      16.054  12.493  36.112  0.00  0.00    +0.000 C 
ATOM      3  C   UNL     1      17.363  12.424  36.879  0.00  0.00    +0.000 C 
ATOM      4  N   UNL     1      17.684  11.021  36.855  0.00  0.00    +0.000 N 
ATOM      5  C   UNL     1      17.020  10.431  35.720  0.00  0.00    +0.000 C 
ATOM      6  O   UNL     1      17.066   9.240  35.367  0.00  0.00    +0.000 OA
ENDROOT
BRANCH   1  12
ATOM      7  C   UNL     1      13.625  13.464  31.357  0.00  0.00    +0.000 C 
ATOM      8  C   UNL     1      14.605  12.485  31.888  0.00  0.00    +0.000 A 
ATOM      9  C   UNL     1      15.160  11.563  31.016  0.00  0.00    +0.000 A 
ATOM     10  C   UNL     1      16.078  10.630  31.461  0.00  0.00    +0.000 A 
ATOM     11  C   UNL     1      16.426  10.637  32.789  0.00  0.00    +0.000 A 
ATOM     12  C   UNL     1      15.901  11.542  33.720  0.00  0.00    +0.000 A 
ATOM     13  C   UNL     1      14.989  12.448  33.209  0.00  0.00    +0.000 A 
ENDBRANCH   1  12
BRANCH   4  14
ATOM     14  C   UNL     1      18.528  10.312  37.802  0.00  0.00    +0.000 C 
BRANCH  14  15
ATOM     15  C   UNL     1      19.949  10.417  37.476  0.00  0.00    +0.000 A 
ATOM     16  N   UNL     1      20.643   9.665  36.632  0.00  0.00    +0.000 NA
ATOM     17  C   UNL     1      21.930  10.063  36.614  0.00  0.00    +0.000 A 
ATOM     18  N   UNL     1      22.028  11.095  37.478  0.00  0.00    +0.000 NA
ATOM     19  C   UNL     1      20.838  11.337  38.019  0.00  0.00    +0.000 A 
ATOM     20  C   UNL     1      20.529  12.394  39.013  0.00  0.00    +0.000 C 
ENDBRANCH  14  15
ENDBRANCH   4  14
TORSDOF 3
ENDMDL
MODEL 4
REMARK VINA RESULT:      -6.8     27.956     30.527
REMARK  Name = 
REMARK  3 active torsions:
REMARK  status: ('A' for Active; 'I' for Inactive)
REMARK    1  A    between atoms: C_6  and  N_7
REMARK    2  A    between atoms: N_10  and  C_11
REMARK    3  A    between atoms: C_11  and  C_12
REMARK                            x       y       z     vdW  Elec       q    Type
REMARK                         _______ _______ _______ _____ _____    ______ ____
ROOT
ATOM      1  N   UNL     1      30.236  21.749  11.245  0.00  0.00    +0.000 N 
ATOM      2  C   UNL     1      30.759  20.442  11.632  0.00  0.00    +0.000 C 
ATOM      3  C   UNL     1      32.239  20.642  11.354  0.00  0.00    +0.000 C 
ATOM      4  N   UNL     1      32.243  21.450  10.162  0.00  0.00    +0.000 N 
ATOM      5  C   UNL     1      30.988  22.154  10.096  0.00  0.00    +0.000 C 
ATOM      6  O   UNL     1      30.627  22.953   9.214  0.00  0.00    +0.000 OA
ENDROOT
BRANCH   1  12
ATOM      7  C   UNL     1      28.612  24.999  14.666  0.00  0.00    +0.000 C 
ATOM      8  C   UNL     1      28.382  24.057  13.543  0.00  0.00    +0.000 A 
ATOM      9  C   UNL     1      27.086  23.866  13.093  0.00  0.00    +0.000 A 
ATOM     10  C   UNL     1      26.819  23.000  12.050  0.00  0.00    +0.000 A 
ATOM     11  C   UNL     1      27.868  22.330  11.470  0.00  0.00    +0.000 A 
ATOM     12  C   UNL     1      29.199  22.480  11.880  0.00  0.00    +0.000 A 
ATOM     13  C   UNL     1      29.397  23.362  12.927  0.00  0.00    +0.000 A 
ENDBRANCH   1  12
BRANCH   4  14
ATOM     14  C   UNL     1      33.319  21.548   9.190  0.00  0.00    +0.000 C 
BRANCH  14  15
ATOM     15  C   UNL     1      33.495  20.319   8.420  0.00  0.00    +0.000 A 
ATOM     16  N   UNL     1      32.722  19.856   7.447  0.00  0.00    +0.000 NA
ATOM     17  C   UNL     1      33.208  18.684   6.993  0.00  0.00    +0.000 A 
ATOM     18  N   UNL     1      34.318  18.420   7.713  0.00  0.00    +0.000 NA
ATOM     19  C   UNL     1      34.522  19.397   8.591  0.00  0.00    +0.000 A 
ATOM     20  C   UNL     1      35.639  19.479   9.563  0.00  0.00    +0.000 C 
ENDBRANCH  14  15
ENDBRANCH   4  14
TORSDOF 3
ENDMDL
MODEL 5
REMARK VINA RESULT:      -6.8      1.977      7.389
REMARK  Name = 
REMARK  3 active torsions:
REMARK  status: ('A' for Active; 'I' for Inactive)
REMARK    1  A    between atoms: C_6  and  N_7
REMARK    2  A    between atoms: N_10  and  C_11
REMARK    3  A    between atoms: C_11  and  C_12
REMARK                            x       y       z     vdW  Elec       q    Type
REMARK                         _______ _______ _______ _____ _____    ______ ____
ROOT
ATOM      1  N   UNL     1      16.312  11.451  35.185  0.00  0.00    +0.000 N 
ATOM      2  C   UNL     1      16.121  12.467  36.216  0.00  0.00    +0.000 C 
ATOM      3  C   UNL     1      17.425  12.332  36.984  0.00  0.00    +0.000 C 
ATOM      4  N   UNL     1      17.675  10.915  36.959  0.00  0.00    +0.000 N 
ATOM      5  C   UNL     1      16.984  10.360  35.824  0.00  0.00    +0.000 C 
ATOM      6  O   UNL     1      16.970   9.168  35.469  0.00  0.00    +0.000 OA
ENDROOT
BRANCH   1  12
ATOM      7  C   UNL     1      13.644  13.475  31.485  0.00  0.00    +0.000 C 
ATOM      8  C   UNL     1      14.628  12.493  32.004  0.00  0.00    +0.000 A 
ATOM      9  C   UNL     1      15.190  11.588  31.118  0.00  0.00    +0.000 A 
ATOM     10  C   UNL     1      16.111  10.653  31.551  0.00  0.00    +0.000 A 
ATOM     11  C   UNL     1      16.456  10.639  32.880  0.00  0.00    +0.000 A 
ATOM     12  C   UNL     1      15.922  11.526  33.824  0.00  0.00    +0.000 A 
ATOM     13  C   UNL     1      15.008  12.436  33.325  0.00  0.00    +0.000 A 
ENDBRANCH   1  12
BRANCH   4  14
ATOM     14  C   UNL     1      18.483  10.164  37.906  0.00  0.00    +0.000 C 
BRANCH  14  15
ATOM     15  C   UNL     1      17.716   9.708  39.062  0.00  0.00    +0.000 A 
ATOM     16  N   UNL     1      16.492  10.077  39.418  0.00  0.00    +0.000 NA
ATOM     17  C   UNL     1      16.134   9.445  40.553  0.00  0.00    +0.000 A 
ATOM     18  N   UNL     1      17.174   8.661  40.905  0.00  0.00    +0.000 NA
ATOM     19  C   UNL     1      18.154   8.798  40.017  0.00  0.00    +0.000 A 
ATOM     20  C   UNL     1      19.464   8.102  40.048  0.00  0.00    +0.000 C 
ENDBRANCH  14  15
ENDBRANCH   4  14
TORSDOF 3
ENDMDL
MODEL 6
REMARK VINA RESULT:      -6.7     27.935     30.537
REMARK  Name = 
REMARK  3 active torsions:
REMARK  status: ('A' for Active; 'I' for Inactive)
REMARK    1  A    between atoms: C_6  and  N_7
REMARK    2  A    between atoms: N_10  and  C_11
REMARK    3  A    between atoms: C_11  and  C_12
REMARK                            x       y       z     vdW  Elec       q    Type
REMARK                         _______ _______ _______ _____ _____    ______ ____
ROOT
ATOM      1  N   UNL     1      30.431  21.646  11.473  0.00  0.00    +0.000 N 
ATOM      2  C   UNL     1      30.940  20.373  11.972  0.00  0.00    +0.000 C 
ATOM      3  C   UNL     1      32.433  20.575  11.778  0.00  0.00    +0.000 C 
ATOM      4  N   UNL     1      32.506  21.308  10.542  0.00  0.00    +0.000 N 
ATOM      5  C   UNL     1      31.252  21.990  10.352  0.00  0.00    +0.000 C 
ATOM      6  O   UNL     1      30.941  22.729   9.401  0.00  0.00    +0.000 OA
ENDROOT
BRANCH   1  12
ATOM      7  C   UNL     1      28.535  24.985  14.661  0.00  0.00    +0.000 C 
ATOM      8  C   UNL     1      28.399  24.022  13.541  0.00  0.00    +0.000 A 
ATOM      9  C   UNL     1      27.148  23.834  12.976  0.00  0.00    +0.000 A 
ATOM     10  C   UNL     1      26.969  22.948  11.931  0.00  0.00    +0.000 A 
ATOM     11  C   UNL     1      28.059  22.256  11.465  0.00  0.00    +0.000 A 
ATOM     12  C   UNL     1      29.348  22.401  11.993  0.00  0.00    +0.000 A 
ATOM     13  C   UNL     1      29.458  23.303  13.036  0.00  0.00    +0.000 A 
ENDBRANCH   1  12
BRANCH   4  14
ATOM     14  C   UNL     1      33.642  21.361   9.636  0.00  0.00    +0.000 C 
BRANCH  14  15
ATOM     15  C   UNL     1      34.546  22.470   9.932  0.00  0.00    +0.000 A 
ATOM     16  N   UNL     1      34.427  23.735   9.551  0.00  0.00    +0.000 NA
ATOM     17  C   UNL     1      35.470  24.453  10.011  0.00  0.00    +0.000 A 
ATOM     18  N   UNL     1      36.257  23.598  10.698  0.00  0.00    +0.000 NA
ATOM     19  C   UNL     1      35.721  22.381  10.670  0.00  0.00    +0.000 A 
ATOM     20  C   UNL     1      36.281  21.166  11.311  0.00  0.00    +0.000 C 
ENDBRANCH  14  15
ENDBRANCH   4  14
TORSDOF 3
ENDMDL
MODEL 7
REMARK VINA RESULT:      -6.6     28.024     30.601
REMARK  Name = 
REMARK  3 active torsions:
REMARK  status: ('A' for Active; 'I' for Inactive)
REMARK    1  A    between atoms: C_6  and  N_7
REMARK    2  A    between atoms: N_10  and  C_11
REMARK    3  A    between atoms: C_11  and  C_12
REMARK                            x       y       z     vdW  Elec       q    Type
REMARK                         _______ _______ _______ _____ _____    ______ ____
ROOT
ATOM      1  N   UNL     1      30.746  21.536  11.660  0.00  0.00    +0.000 N 
ATOM      2  C   UNL     1      31.290  20.302  12.219  0.00  0.00    +0.000 C 
ATOM      3  C   UNL     1      32.778  20.546  12.034  0.00  0.00    +0.000 C 
ATOM      4  N   UNL     1      32.844  21.229  10.769  0.00  0.00    +0.000 N 
ATOM      5  C   UNL     1      31.571  21.860  10.535  0.00  0.00    +0.000 C 
ATOM      6  O   UNL     1      31.249  22.547   9.550  0.00  0.00    +0.000 OA
ENDROOT
BRANCH   1  12
ATOM      7  C   UNL     1      26.012  23.071  11.288  0.00  0.00    +0.000 C 
ATOM      8  C   UNL     1      27.328  23.041  11.972  0.00  0.00    +0.000 A 
ATOM      9  C   UNL     1      27.490  23.784  13.131  0.00  0.00    +0.000 A 
ATOM     10  C   UNL     1      28.696  23.790  13.805  0.00  0.00    +0.000 A 
ATOM     11  C   UNL     1      29.733  23.045  13.300  0.00  0.00    +0.000 A 
ATOM     12  C   UNL     1      29.632  22.275  12.135  0.00  0.00    +0.000 A 
ATOM     13  C   UNL     1      28.399  22.312  11.509  0.00  0.00    +0.000 A 
ENDBRANCH   1  12
BRANCH   4  14
ATOM     14  C   UNL     1      33.990  21.282   9.875  0.00  0.00    +0.000 C 
BRANCH  14  15
ATOM     15  C   UNL     1      33.849  20.390   8.727  0.00  0.00    +0.000 A 
ATOM     16  N   UNL     1      33.872  19.064   8.724  0.00  0.00    +0.000 NA
ATOM     17  C   UNL     1      33.722  18.605   7.466  0.00  0.00    +0.000 A 
ATOM     18  N   UNL     1      33.603  19.687   6.670  0.00  0.00    +0.000 NA
ATOM     19  C   UNL     1      33.675  20.792   7.407  0.00  0.00    +0.000 A 
ATOM     20  C   UNL     1      33.583  22.184   6.905  0.00  0.00    +0.000 C 
ENDBRANCH  14  15
ENDBRANCH   4  14
TORSDOF 3
ENDMDL
MODEL 8
REMARK VINA RESULT:      -6.3     21.158     22.260
REMARK  Name = 
REMARK  3 active torsions:
REMARK  status: ('A' for Active; 'I' for Inactive)
REMARK    1  A    between atoms: C_6  and  N_7
REMARK    2  A    between atoms: N_10  and  C_11
REMARK    3  A    between atoms: C_11  and  C_12
REMARK                            x       y       z     vdW  Elec       q    Type
REMARK                         _______ _______ _______ _____ _____    ______ ____
ROOT
ATOM      1  N   UNL     1      17.190  -8.346  26.993  0.00  0.00    +0.000 N 
ATOM      2  C   UNL     1      17.241  -9.252  28.136  0.00  0.00    +0.000 C 
ATOM      3  C   UNL     1      16.595 -10.490  27.539  0.00  0.00    +0.000 C 
ATOM      4  N   UNL     1      15.566  -9.947  26.691  0.00  0.00    +0.000 N 
ATOM      5  C   UNL     1      15.943  -8.602  26.339  0.00  0.00    +0.000 C 
ATOM      6  O   UNL     1      15.308  -7.816  25.613  0.00  0.00    +0.000 OA
ENDROOT
BRANCH   1  12
ATOM      7  C   UNL     1      21.603  -7.203  24.960  0.00  0.00    +0.000 C 
ATOM      8  C   UNL     1      20.326  -6.825  25.616  0.00  0.00    +0.000 A 
ATOM      9  C   UNL     1      20.084  -5.485  25.870  0.00  0.00    +0.000 A 
ATOM     10  C   UNL     1      18.911  -5.081  26.478  0.00  0.00    +0.000 A 
ATOM     11  C   UNL     1      17.990  -6.038  26.827  0.00  0.00    +0.000 A 
ATOM     12  C   UNL     1      18.177  -7.407  26.597  0.00  0.00    +0.000 A 
ATOM     13  C   UNL     1      19.371  -7.743  25.985  0.00  0.00    +0.000 A 
ENDBRANCH   1  12
BRANCH   4  14
ATOM     14  C   UNL     1      14.357 -10.627  26.258  0.00  0.00    +0.000 C 
BRANCH  14  15
ATOM     15  C   UNL     1      13.217 -10.359  27.133  0.00  0.00    +0.000 A 
ATOM     16  N   UNL     1      12.948 -10.918  28.305  0.00  0.00    +0.000 NA
ATOM     17  C   UNL     1      11.799 -10.417  28.799  0.00  0.00    +0.000 A 
ATOM     18  N   UNL     1      11.348  -9.519  27.898  0.00  0.00    +0.000 NA
ATOM     19  C   UNL     1      12.190  -9.459  26.871  0.00  0.00    +0.000 A 
ATOM     20  C   UNL     1      12.051  -8.589  25.677  0.00  0.00    +0.000 C 
ENDBRANCH  14  15
ENDBRANCH   4  14
TORSDOF 3
ENDMDL
MODEL 9
REMARK VINA RESULT:      -6.3      3.243      5.491
REMARK  Name = 
REMARK  3 active torsions:
REMARK  status: ('A' for Active; 'I' for Inactive)
REMARK    1  A    between atoms: C_6  and  N_7
REMARK    2  A    between atoms: N_10  and  C_11
REMARK    3  A    between atoms: C_11  and  C_12
REMARK                            x       y       z     vdW  Elec       q    Type
REMARK                         _______ _______ _______ _____ _____    ______ ____
ROOT
ATOM      1  N   UNL     1      20.354  10.394  38.083  0.00  0.00    +0.000 N 
ATOM      2  C   UNL     1      19.917   9.250  38.878  0.00  0.00    +0.000 C 
ATOM      3  C   UNL     1      18.534   9.018  38.293  0.00  0.00    +0.000 C 
ATOM      4  N   UNL     1      18.054  10.353  38.046  0.00  0.00    +0.000 N 
ATOM      5  C   UNL     1      19.197  11.218  37.905  0.00  0.00    +0.000 C 
ATOM      6  O   UNL     1      19.182  12.441  37.676  0.00  0.00    +0.000 OA
ENDROOT
BRANCH   1  12
ATOM      7  C   UNL     1      24.734  12.783  38.215  0.00  0.00    +0.000 C 
ATOM      8  C   UNL     1      23.798  11.797  37.620  0.00  0.00    +0.000 A 
ATOM      9  C   UNL     1      24.207  11.086  36.503  0.00  0.00    +0.000 A 
ATOM     10  C   UNL     1      23.373  10.157  35.911  0.00  0.00    +0.000 A 
ATOM     11  C   UNL     1      22.128   9.955  36.453  0.00  0.00    +0.000 A 
ATOM     12  C   UNL     1      21.656  10.642  37.580  0.00  0.00    +0.000 A 
ATOM     13  C   UNL     1      22.540  11.557  38.124  0.00  0.00    +0.000 A 
ENDBRANCH   1  12
BRANCH   4  14
ATOM     14  C   UNL     1      16.664  10.766  37.951  0.00  0.00    +0.000 C 
BRANCH  14  15
ATOM     15  C   UNL     1      16.239  10.996  36.572  0.00  0.00    +0.000 A 
ATOM     16  N   UNL     1      16.879  10.658  35.461  0.00  0.00    +0.000 NA
ATOM     17  C   UNL     1      16.170  11.054  34.385  0.00  0.00    +0.000 A 
ATOM     18  N   UNL     1      15.057  11.656  34.854  0.00  0.00    +0.000 NA
ATOM     19  C   UNL     1      15.068  11.637  36.183  0.00  0.00    +0.000 A 
ATOM     20  C   UNL     1      14.020  12.195  37.073  0.00  0.00    +0.000 C 
ENDBRANCH  14  15
ENDBRANCH   4  14
TORSDOF 3
ENDMDL
MODEL 10
REMARK VINA RESULT:      -6.1     20.170     24.127
REMARK  Name = 
REMARK  3 active torsions:
REMARK  status: ('A' for Active; 'I' for Inactive)
REMARK    1  A    between atoms: C_6  and  N_7
REMARK    2  A    between atoms: N_10  and  C_11
REMARK    3  A    between atoms: C_11  and  C_12
REMARK                            x       y       z     vdW  Elec       q    Type
REMARK                         _______ _______ _______ _____ _____    ______ ____
ROOT
ATOM      1  N   UNL     1      28.590  26.521  21.125  0.00  0.00    +0.000 N 
ATOM      2  C   UNL     1      27.291  26.696  21.767  0.00  0.00    +0.000 C 
ATOM      3  C   UNL     1      27.469  25.823  22.998  0.00  0.00    +0.000 C 
ATOM      4  N   UNL     1      28.239  24.712  22.503  0.00  0.00    +0.000 N 
ATOM      5  C   UNL     1      28.952  25.151  21.331  0.00  0.00    +0.000 C 
ATOM      6  O   UNL     1      29.727  24.473  20.632  0.00  0.00    +0.000 OA
ENDROOT
BRANCH   1  12
ATOM      7  C   UNL     1      31.746  27.913  17.519  0.00  0.00    +0.000 C 
ATOM      8  C   UNL     1      30.891  28.207  18.695  0.00  0.00    +0.000 A 
ATOM      9  C   UNL     1      30.838  29.509  19.166  0.00  0.00    +0.000 A 
ATOM     10  C   UNL     1      30.057  29.835  20.259  0.00  0.00    +0.000 A 
ATOM     11  C   UNL     1      29.337  28.839  20.870  0.00  0.00    +0.000 A 
ATOM     12  C   UNL     1      29.349  27.505  20.442  0.00  0.00    +0.000 A 
ATOM     13  C   UNL     1      30.149  27.246  19.344  0.00  0.00    +0.000 A 
ENDBRANCH   1  12
BRANCH   4  14
ATOM     14  C   UNL     1      28.298  23.378  23.077  0.00  0.00    +0.000 C 
BRANCH  14  15
ATOM     15  C   UNL     1      29.399  23.222  24.025  0.00  0.00    +0.000 A 
ATOM     16  N   UNL     1      30.694  23.400  23.798  0.00  0.00    +0.000 NA
ATOM     17  C   UNL     1      31.395  23.146  24.919  0.00  0.00    +0.000 A 
ATOM     18  N   UNL     1      30.500  22.801  25.868  0.00  0.00    +0.000 NA
ATOM     19  C   UNL     1      29.273  22.838  25.355  0.00  0.00    +0.000 A 
ATOM     20  C   UNL     1      28.015  22.529  26.078  0.00  0.00    +0.000 C 
ENDBRANCH  14  15
ENDBRANCH   4  14
TORSDOF 3
ENDMDL
