MODEL 1
REMARK VINA RESULT:      -7.9      0.000      0.000
REMARK  Name = 
REMARK  4 active torsions:
REMARK  status: ('A' for Active; 'I' for Inactive)
REMARK    1  A    between atoms: C_2  and  C_5
REMARK    2  A    between atoms: C_7  and  C_8
REMARK    3  A    between atoms: N_11  and  C_12
REMARK    4  A    between atoms: C_12  and  C_13
REMARK                            x       y       z     vdW  Elec       q    Type
REMARK                         _______ _______ _______ _____ _____    ______ ____
ROOT
ATOM      1  C   UNL     1      15.346  12.022  33.116  0.00  0.00    +0.000 A 
ATOM      2  C   UNL     1      16.249  11.081  33.605  0.00  0.00    +0.000 A 
ATOM      3  C   UNL     1      16.336  11.200  34.973  0.00  0.00    +0.000 A 
ATOM      4  N   UNL     1      15.498  12.190  35.274  0.00  0.00    +0.000 N 
ATOM      5  N   UNL     1      14.917  12.673  34.200  0.00  0.00    +0.000 NA
ENDROOT
BRANCH   1   7
ATOM      6  C   UNL     1      13.873  13.328  31.658  0.00  0.00    +0.000 C 
ATOM      7  C   UNL     1      14.941  12.265  31.729  0.00  0.00    +0.000 C 
ATOM      8  C   UNL     1      14.437  10.968  31.133  0.00  0.00    +0.000 C 
ATOM      9  C   UNL     1      16.150  12.701  30.934  0.00  0.00    +0.000 C 
ENDBRANCH   1   7
BRANCH   3  10
ATOM     10  C   UNL     1      17.142  10.468  35.936  0.00  0.00    +0.000 C 
ATOM     11  N   UNL     1      17.950  11.061  36.933  0.00  0.00    +0.000 NA
ATOM     12  O   UNL     1      17.129   9.194  35.906  0.00  0.00    +0.000 OA
ENDBRANCH   3  10
BRANCH   4  13
ATOM     13  C   UNL     1      15.281  12.748  36.618  0.00  0.00    +0.000 C 
BRANCH  13  14
ATOM     14  C   UNL     1      13.975  12.109  37.073  0.00  0.00    +0.000 A 
ATOM     15  C   UNL     1      14.021  11.102  38.029  0.00  0.00    +0.000 A 
ATOM     16  C   UNL     1      12.916  10.475  38.502  0.00  0.00    +0.000 A 
ATOM     17  C   UNL     1      11.659  10.864  38.000  0.00  0.00    +0.000 A 
ATOM     18  C   UNL     1      11.600  11.869  37.042  0.00  0.00    +0.000 A 
ATOM     19  C   UNL     1      12.762  12.481  36.593  0.00  0.00    +0.000 A 
ENDBRANCH  13  14
ENDBRANCH   4  13
TORSDOF 4
ENDMDL
MODEL 2
REMARK VINA RESULT:      -5.9     16.926     19.715
REMARK  Name = 
REMARK  4 active torsions:
REMARK  status: ('A' for Active; 'I' for Inactive)
REMARK    1  A    between atoms: C_2  and  C_5
REMARK    2  A    between atoms: C_7  and  C_8
REMARK    3  A    between atoms: N_11  and  C_12
REMARK    4  A    between atoms: C_12  and  C_13
REMARK                            x       y       z     vdW  Elec       q    Type
REMARK                         _______ _______ _______ _____ _____    ______ ____
ROOT
ATOM      1  C   UNL     1      29.336  23.086  28.048  0.00  0.00    +0.000 A 
ATOM      2  C   UNL     1      28.811  22.760  29.296  0.00  0.00    +0.000 A 
ATOM      3  C   UNL     1      27.450  22.962  29.286  0.00  0.00    +0.000 A 
ATOM      4  N   UNL     1      27.189  23.396  28.054  0.00  0.00    +0.000 N 
ATOM      5  N   UNL     1      28.279  23.470  27.327  0.00  0.00    +0.000 NA
ENDROOT
BRANCH   1   7
ATOM      6  C   UNL     1      31.407  24.367  27.779  0.00  0.00    +0.000 C 
ATOM      7  C   UNL     1      30.730  23.031  27.600  0.00  0.00    +0.000 C 
ATOM      8  C   UNL     1      30.760  22.614  26.144  0.00  0.00    +0.000 C 
ATOM      9  C   UNL     1      31.461  21.977  28.399  0.00  0.00    +0.000 C 
ENDBRANCH   1   7
BRANCH   3  10
ATOM     10  C   UNL     1      26.461  22.785  30.335  0.00  0.00    +0.000 C 
ATOM     11  N   UNL     1      25.899  21.547  30.718  0.00  0.00    +0.000 NA
ATOM     12  O   UNL     1      26.059  23.809  30.981  0.00  0.00    +0.000 OA
ENDBRANCH   3  10
BRANCH   4  13
ATOM     13  C   UNL     1      25.870  23.820  27.559  0.00  0.00    +0.000 C 
BRANCH  13  14
ATOM     14  C   UNL     1      26.076  23.984  26.059  0.00  0.00    +0.000 A 
ATOM     15  C   UNL     1      26.425  25.234  25.565  0.00  0.00    +0.000 A 
ATOM     16  C   UNL     1      26.635  25.481  24.249  0.00  0.00    +0.000 A 
ATOM     17  C   UNL     1      26.494  24.418  23.337  0.00  0.00    +0.000 A 
ATOM     18  C   UNL     1      26.144  23.162  23.819  0.00  0.00    +0.000 A 
ATOM     19  C   UNL     1      25.942  22.962  25.177  0.00  0.00    +0.000 A 
ENDBRANCH  13  14
ENDBRANCH   4  13
TORSDOF 4
ENDMDL
MODEL 3
REMARK VINA RESULT:      -5.7     17.011     19.701
REMARK  Name = 
REMARK  4 active torsions:
REMARK  status: ('A' for Active; 'I' for Inactive)
REMARK    1  A    between atoms: C_2  and  C_5
REMARK    2  A    between atoms: C_7  and  C_8
REMARK    3  A    between atoms: N_11  and  C_12
REMARK    4  A    between atoms: C_12  and  C_13
REMARK                            x       y       z     vdW  Elec       q    Type
REMARK                         _______ _______ _______ _____ _____    ______ ____
ROOT
ATOM      1  C   UNL     1      25.895  24.606  27.375  0.00  0.00    +0.000 A 
ATOM      2  C   UNL     1      25.821  24.212  28.709  0.00  0.00    +0.000 A 
ATOM      3  C   UNL     1      26.641  23.126  28.911  0.00  0.00    +0.000 A 
ATOM      4  N   UNL     1      27.183  22.894  27.717  0.00  0.00    +0.000 N 
ATOM      5  N   UNL     1      26.756  23.751  26.818  0.00  0.00    +0.000 NA
ENDROOT
BRANCH   1   7
ATOM      6  C   UNL     1      25.178  25.506  25.212  0.00  0.00    +0.000 C 
ATOM      7  C   UNL     1      25.195  25.706  26.707  0.00  0.00    +0.000 C 
ATOM      8  C   UNL     1      25.885  27.008  27.058  0.00  0.00    +0.000 C 
ATOM      9  C   UNL     1      23.779  25.777  27.230  0.00  0.00    +0.000 C 
ENDBRANCH   1   7
BRANCH   3  10
ATOM     10  C   UNL     1      26.899  22.346  30.109  0.00  0.00    +0.000 C 
ATOM     11  N   UNL     1      25.943  21.548  30.777  0.00  0.00    +0.000 NA
ATOM     12  O   UNL     1      28.071  22.358  30.610  0.00  0.00    +0.000 OA
ENDBRANCH   3  10
BRANCH   4  13
ATOM     13  C   UNL     1      28.091  21.783  27.392  0.00  0.00    +0.000 C 
BRANCH  13  14
ATOM     14  C   UNL     1      29.378  22.475  26.963  0.00  0.00    +0.000 A 
ATOM     15  C   UNL     1      29.775  22.386  25.635  0.00  0.00    +0.000 A 
ATOM     16  C   UNL     1      30.901  22.969  25.154  0.00  0.00    +0.000 A 
ATOM     17  C   UNL     1      31.708  23.703  26.045  0.00  0.00    +0.000 A 
ATOM     18  C   UNL     1      31.321  23.799  27.377  0.00  0.00    +0.000 A 
ATOM     19  C   UNL     1      30.158  23.184  27.818  0.00  0.00    +0.000 A 
ENDBRANCH  13  14
ENDBRANCH   4  13
TORSDOF 4
ENDMDL
MODEL 4
REMARK VINA RESULT:      -5.7     18.524     21.622
REMARK  Name = 
REMARK  4 active torsions:
REMARK  status: ('A' for Active; 'I' for Inactive)
REMARK    1  A    between atoms: C_2  and  C_5
REMARK    2  A    between atoms: C_7  and  C_8
REMARK    3  A    between atoms: N_11  and  C_12
REMARK    4  A    between atoms: C_12  and  C_13
REMARK                            x       y       z     vdW  Elec       q    Type
REMARK                         _______ _______ _______ _____ _____    ______ ____
ROOT
ATOM      1  C   UNL     1      27.471  23.408  27.000  0.00  0.00    +0.000 A 
ATOM      2  C   UNL     1      26.571  23.790  26.007  0.00  0.00    +0.000 A 
ATOM      3  C   UNL     1      27.149  23.605  24.772  0.00  0.00    +0.000 A 
ATOM      4  N   UNL     1      28.360  23.122  25.042  0.00  0.00    +0.000 N 
ATOM      5  N   UNL     1      28.555  23.003  26.334  0.00  0.00    +0.000 NA
ENDROOT
BRANCH   1   7
ATOM      6  C   UNL     1      27.460  22.056  29.043  0.00  0.00    +0.000 C 
ATOM      7  C   UNL     1      27.293  23.434  28.454  0.00  0.00    +0.000 C 
ATOM      8  C   UNL     1      25.915  23.980  28.767  0.00  0.00    +0.000 C 
ATOM      9  C   UNL     1      28.310  24.375  29.056  0.00  0.00    +0.000 C 
ENDBRANCH   1   7
BRANCH   3  10
ATOM     10  C   UNL     1      26.633  23.867  23.439  0.00  0.00    +0.000 C 
ATOM     11  N   UNL     1      25.803  22.989  22.705  0.00  0.00    +0.000 NA
ATOM     12  O   UNL     1      26.929  24.968  22.871  0.00  0.00    +0.000 OA
ENDBRANCH   3  10
BRANCH   4  13
ATOM     13  C   UNL     1      29.401  22.820  24.047  0.00  0.00    +0.000 C 
BRANCH  13  14
ATOM     14  C   UNL     1      30.519  23.801  24.376  0.00  0.00    +0.000 A 
ATOM     15  C   UNL     1      31.803  23.309  24.571  0.00  0.00    +0.000 A 
ATOM     16  C   UNL     1      32.865  24.100  24.864  0.00  0.00    +0.000 A 
ATOM     17  C   UNL     1      32.656  25.489  24.974  0.00  0.00    +0.000 A 
ATOM     18  C   UNL     1      31.375  25.992  24.782  0.00  0.00    +0.000 A 
ATOM     19  C   UNL     1      30.322  25.139  24.483  0.00  0.00    +0.000 A 
ENDBRANCH  13  14
ENDBRANCH   4  13
TORSDOF 4
ENDMDL
MODEL 5
REMARK VINA RESULT:      -5.7     20.069     22.848
REMARK  Name = 
REMARK  4 active torsions:
REMARK  status: ('A' for Active; 'I' for Inactive)
REMARK    1  A    between atoms: C_2  and  C_5
REMARK    2  A    between atoms: C_7  and  C_8
REMARK    3  A    between atoms: N_11  and  C_12
REMARK    4  A    between atoms: C_12  and  C_13
REMARK                            x       y       z     vdW  Elec       q    Type
REMARK                         _______ _______ _______ _____ _____    ______ ____
ROOT
ATOM      1  C   UNL     1      29.396  23.363  24.754  0.00  0.00    +0.000 A 
ATOM      2  C   UNL     1      28.031  23.266  25.018  0.00  0.00    +0.000 A 
ATOM      3  C   UNL     1      27.327  23.434  23.848  0.00  0.00    +0.000 A 
ATOM      4  N   UNL     1      28.264  23.624  22.921  0.00  0.00    +0.000 N 
ATOM      5  N   UNL     1      29.470  23.583  23.439  0.00  0.00    +0.000 NA
ENDROOT
BRANCH   1   7
ATOM      6  C   UNL     1      31.827  23.133  24.951  0.00  0.00    +0.000 C 
ATOM      7  C   UNL     1      30.517  23.254  25.690  0.00  0.00    +0.000 C 
ATOM      8  C   UNL     1      30.297  22.047  26.578  0.00  0.00    +0.000 C 
ATOM      9  C   UNL     1      30.541  24.480  26.574  0.00  0.00    +0.000 C 
ENDBRANCH   1   7
BRANCH   3  10
ATOM     10  C   UNL     1      25.895  23.436  23.599  0.00  0.00    +0.000 C 
ATOM     11  N   UNL     1      25.245  22.673  22.603  0.00  0.00    +0.000 NA
ATOM     12  O   UNL     1      25.146  24.167  24.327  0.00  0.00    +0.000 OA
ENDBRANCH   3  10
BRANCH   4  13
ATOM     13  C   UNL     1      28.015  23.919  21.502  0.00  0.00    +0.000 C 
BRANCH  13  14
ATOM     14  C   UNL     1      28.302  25.410  21.381  0.00  0.00    +0.000 A 
ATOM     15  C   UNL     1      29.360  25.825  20.583  0.00  0.00    +0.000 A 
ATOM     16  C   UNL     1      29.692  27.128  20.408  0.00  0.00    +0.000 A 
ATOM     17  C   UNL     1      28.928  28.109  21.068  0.00  0.00    +0.000 A 
ATOM     18  C   UNL     1      27.867  27.706  21.871  0.00  0.00    +0.000 A 
ATOM     19  C   UNL     1      27.567  26.359  22.015  0.00  0.00    +0.000 A 
ENDBRANCH  13  14
ENDBRANCH   4  13
TORSDOF 4
ENDMDL
MODEL 6
REMARK VINA RESULT:      -5.7     19.977     22.187
REMARK  Name = 
REMARK  4 active torsions:
REMARK  status: ('A' for Active; 'I' for Inactive)
REMARK    1  A    between atoms: C_2  and  C_5
REMARK    2  A    between atoms: C_7  and  C_8
REMARK    3  A    between atoms: N_11  and  C_12
REMARK    4  A    between atoms: C_12  and  C_13
REMARK                            x       y       z     vdW  Elec       q    Type
REMARK                         _______ _______ _______ _____ _____    ______ ____
ROOT
ATOM      1  C   UNL     1      28.118  26.377  23.181  0.00  0.00    +0.000 A 
ATOM      2  C   UNL     1      26.853  25.798  23.272  0.00  0.00    +0.000 A 
ATOM      3  C   UNL     1      26.984  24.433  23.385  0.00  0.00    +0.000 A 
ATOM      4  N   UNL     1      28.298  24.222  23.362  0.00  0.00    +0.000 N 
ATOM      5  N   UNL     1      28.965  25.347  23.245  0.00  0.00    +0.000 NA
ENDROOT
BRANCH   1   7
ATOM      6  C   UNL     1      29.108  28.063  21.705  0.00  0.00    +0.000 C 
ATOM      7  C   UNL     1      28.466  27.793  23.043  0.00  0.00    +0.000 C 
ATOM      8  C   UNL     1      29.406  28.176  24.167  0.00  0.00    +0.000 C 
ATOM      9  C   UNL     1      27.212  28.624  23.185  0.00  0.00    +0.000 C 
ENDBRANCH   1   7
BRANCH   3  10
ATOM     10  C   UNL     1      25.974  23.394  23.492  0.00  0.00    +0.000 C 
ATOM     11  N   UNL     1      25.344  22.761  22.396  0.00  0.00    +0.000 NA
ATOM     12  O   UNL     1      25.619  22.997  24.650  0.00  0.00    +0.000 OA
ENDBRANCH   3  10
BRANCH   4  13
ATOM     13  C   UNL     1      28.953  22.905  23.387  0.00  0.00    +0.000 C 
BRANCH  13  14
ATOM     14  C   UNL     1      29.557  22.823  24.783  0.00  0.00    +0.000 A 
ATOM     15  C   UNL     1      30.911  23.086  24.943  0.00  0.00    +0.000 A 
ATOM     16  C   UNL     1      31.540  23.043  26.143  0.00  0.00    +0.000 A 
ATOM     17  C   UNL     1      30.784  22.716  27.285  0.00  0.00    +0.000 A 
ATOM     18  C   UNL     1      29.428  22.450  27.138  0.00  0.00    +0.000 A 
ATOM     19  C   UNL     1      28.831  22.509  25.886  0.00  0.00    +0.000 A 
ENDBRANCH  13  14
ENDBRANCH   4  13
TORSDOF 4
ENDMDL
MODEL 7
REMARK VINA RESULT:      -5.6     19.545     21.251
REMARK  Name = 
REMARK  4 active torsions:
REMARK  status: ('A' for Active; 'I' for Inactive)
REMARK    1  A    between atoms: C_2  and  C_5
REMARK    2  A    between atoms: C_7  and  C_8
REMARK    3  A    between atoms: N_11  and  C_12
REMARK    4  A    between atoms: C_12  and  C_13
REMARK                            x       y       z     vdW  Elec       q    Type
REMARK                         _______ _______ _______ _____ _____    ______ ____
ROOT
ATOM      1  C   UNL     1      26.751  26.344  25.088  0.00  0.00    +0.000 A 
ATOM      2  C   UNL     1      26.666  25.880  23.776  0.00  0.00    +0.000 A 
ATOM      3  C   UNL     1      26.668  24.504  23.779  0.00  0.00    +0.000 A 
ATOM      4  N   UNL     1      26.750  24.175  25.066  0.00  0.00    +0.000 N 
ATOM      5  N   UNL     1      26.798  25.238  25.834  0.00  0.00    +0.000 NA
ENDROOT
BRANCH   1   7
ATOM      6  C   UNL     1      27.784  28.545  24.785  0.00  0.00    +0.000 C 
ATOM      7  C   UNL     1      26.784  27.728  25.566  0.00  0.00    +0.000 C 
ATOM      8  C   UNL     1      27.137  27.728  27.039  0.00  0.00    +0.000 C 
ATOM      9  C   UNL     1      25.406  28.332  25.421  0.00  0.00    +0.000 C 
ENDBRANCH   1   7
BRANCH   3  10
ATOM     10  C   UNL     1      26.613  23.558  22.677  0.00  0.00    +0.000 C 
ATOM     11  N   UNL     1      25.453  22.868  22.259  0.00  0.00    +0.000 NA
ATOM     12  O   UNL     1      27.677  23.323  22.016  0.00  0.00    +0.000 OA
ENDBRANCH   3  10
BRANCH   4  13
ATOM     13  C   UNL     1      26.853  22.805  25.593  0.00  0.00    +0.000 C 
BRANCH  13  14
ATOM     14  C   UNL     1      28.308  22.686  26.024  0.00  0.00    +0.000 A 
ATOM     15  C   UNL     1      28.598  22.573  27.378  0.00  0.00    +0.000 A 
ATOM     16  C   UNL     1      29.859  22.458  27.861  0.00  0.00    +0.000 A 
ATOM     17  C   UNL     1      30.930  22.452  26.946  0.00  0.00    +0.000 A 
ATOM     18  C   UNL     1      30.653  22.566  25.589  0.00  0.00    +0.000 A 
ATOM     19  C   UNL     1      29.343  22.679  25.145  0.00  0.00    +0.000 A 
ENDBRANCH  13  14
ENDBRANCH   4  13
TORSDOF 4
ENDMDL
MODEL 8
REMARK VINA RESULT:      -5.6      3.482      6.700
REMARK  Name = 
REMARK  4 active torsions:
REMARK  status: ('A' for Active; 'I' for Inactive)
REMARK    1  A    between atoms: C_2  and  C_5
REMARK    2  A    between atoms: C_7  and  C_8
REMARK    3  A    between atoms: N_11  and  C_12
REMARK    4  A    between atoms: C_12  and  C_13
REMARK                            x       y       z     vdW  Elec       q    Type
REMARK                         _______ _______ _______ _____ _____    ______ ____
ROOT
ATOM      1  C   UNL     1      17.834   9.503  39.906  0.00  0.00    +0.000 A 
ATOM      2  C   UNL     1      19.102  10.077  39.964  0.00  0.00    +0.000 A 
ATOM      3  C   UNL     1      19.524  10.378  38.689  0.00  0.00    +0.000 A 
ATOM      4  N   UNL     1      18.520   9.988  37.906  0.00  0.00    +0.000 N 
ATOM      5  N   UNL     1      17.533   9.479  38.606  0.00  0.00    +0.000 NA
ENDROOT
BRANCH   1   7
ATOM      6  C   UNL     1      17.474   9.579  42.329  0.00  0.00    +0.000 C 
ATOM      7  C   UNL     1      16.998   9.023  41.010  0.00  0.00    +0.000 C 
ATOM      8  C   UNL     1      17.036   7.509  41.029  0.00  0.00    +0.000 C 
ATOM      9  C   UNL     1      15.568   9.446  40.763  0.00  0.00    +0.000 C 
ENDBRANCH   1   7
BRANCH   3  10
ATOM     10  C   UNL     1      20.766  10.968  38.220  0.00  0.00    +0.000 C 
ATOM     11  N   UNL     1      21.907  10.239  37.816  0.00  0.00    +0.000 NA
ATOM     12  O   UNL     1      20.856  12.238  38.150  0.00  0.00    +0.000 OA
ENDBRANCH   3  10
BRANCH   4  13
ATOM     13  C   UNL     1      18.514  10.037  36.436  0.00  0.00    +0.000 C 
BRANCH  13  14
ATOM     14  C   UNL     1      17.369  10.986  36.106  0.00  0.00    +0.000 A 
ATOM     15  C   UNL     1      16.557  10.701  35.016  0.00  0.00    +0.000 A 
ATOM     16  C   UNL     1      15.512  11.480  34.643  0.00  0.00    +0.000 A 
ATOM     17  C   UNL     1      15.235  12.636  35.399  0.00  0.00    +0.000 A 
ATOM     18  C   UNL     1      16.041  12.933  36.491  0.00  0.00    +0.000 A 
ATOM     19  C   UNL     1      17.099  12.100  36.832  0.00  0.00    +0.000 A 
ENDBRANCH  13  14
ENDBRANCH   4  13
TORSDOF 4
ENDMDL
MODEL 9
REMARK VINA RESULT:      -5.6     22.094     24.785
REMARK  Name = 
REMARK  4 active torsions:
REMARK  status: ('A' for Active; 'I' for Inactive)
REMARK    1  A    between atoms: C_2  and  C_5
REMARK    2  A    between atoms: C_7  and  C_8
REMARK    3  A    between atoms: N_11  and  C_12
REMARK    4  A    between atoms: C_12  and  C_13
REMARK                            x       y       z     vdW  Elec       q    Type
REMARK                         _______ _______ _______ _____ _____    ______ ____
ROOT
ATOM      1  C   UNL     1      33.188  -2.715  34.498  0.00  0.00    +0.000 A 
ATOM      2  C   UNL     1      32.091  -3.375  35.048  0.00  0.00    +0.000 A 
ATOM      3  C   UNL     1      32.200  -4.724  34.803  0.00  0.00    +0.000 A 
ATOM      4  N   UNL     1      33.340  -4.847  34.125  0.00  0.00    +0.000 N 
ATOM      5  N   UNL     1      33.921  -3.684  33.945  0.00  0.00    +0.000 NA
ENDROOT
BRANCH   1   7
ATOM      6  C   UNL     1      32.273  -0.475  34.880  0.00  0.00    +0.000 C 
ATOM      7  C   UNL     1      33.492  -1.282  34.509  0.00  0.00    +0.000 C 
ATOM      8  C   UNL     1      33.997  -0.879  33.139  0.00  0.00    +0.000 C 
ATOM      9  C   UNL     1      34.599  -1.022  35.505  0.00  0.00    +0.000 C 
ENDBRANCH   1   7
BRANCH   3  10
ATOM     10  C   UNL     1      31.315  -5.822  35.152  0.00  0.00    +0.000 C 
ATOM     11  N   UNL     1      31.260  -6.447  36.418  0.00  0.00    +0.000 NA
ATOM     12  O   UNL     1      30.511  -6.268  34.269  0.00  0.00    +0.000 OA
ENDBRANCH   3  10
BRANCH   4  13
ATOM     13  C   UNL     1      33.873  -6.100  33.569  0.00  0.00    +0.000 C 
BRANCH  13  14
ATOM     14  C   UNL     1      33.718  -5.928  32.064  0.00  0.00    +0.000 A 
ATOM     15  C   UNL     1      34.861  -5.873  31.276  0.00  0.00    +0.000 A 
ATOM     16  C   UNL     1      34.829  -5.727  29.929  0.00  0.00    +0.000 A 
ATOM     17  C   UNL     1      33.575  -5.626  29.295  0.00  0.00    +0.000 A 
ATOM     18  C   UNL     1      32.424  -5.678  30.073  0.00  0.00    +0.000 A 
ATOM     19  C   UNL     1      32.512  -5.832  31.450  0.00  0.00    +0.000 A 
ENDBRANCH  13  14
ENDBRANCH   4  13
TORSDOF 4
ENDMDL
MODEL 10
REMARK VINA RESULT:      -5.6     20.250     22.950
REMARK  Name = 
REMARK  4 active torsions:
REMARK  status: ('A' for Active; 'I' for Inactive)
REMARK    1  A    between atoms: C_2  and  C_5
REMARK    2  A    between atoms: C_7  and  C_8
REMARK    3  A    between atoms: N_11  and  C_12
REMARK    4  A    between atoms: C_12  and  C_13
REMARK                            x       y       z     vdW  Elec       q    Type
REMARK                         _______ _______ _______ _____ _____    ______ ____
ROOT
ATOM      1  C   UNL     1      29.989  27.008  24.224  0.00  0.00    +0.000 A 
ATOM      2  C   UNL     1      29.364  26.635  23.036  0.00  0.00    +0.000 A 
ATOM      3  C   UNL     1      29.527  25.282  22.841  0.00  0.00    +0.000 A 
ATOM      4  N   UNL     1      30.231  24.877  23.896  0.00  0.00    +0.000 N 
ATOM      5  N   UNL     1      30.503  25.874  24.706  0.00  0.00    +0.000 NA
ENDROOT
BRANCH   1   7
ATOM      6  C   UNL     1      31.470  28.604  25.348  0.00  0.00    +0.000 C 
ATOM      7  C   UNL     1      30.078  28.339  24.830  0.00  0.00    +0.000 C 
ATOM      8  C   UNL     1      29.068  28.433  25.955  0.00  0.00    +0.000 C 
ATOM      9  C   UNL     1      29.713  29.376  23.793  0.00  0.00    +0.000 C 
ENDBRANCH   1   7
BRANCH   3  10
ATOM     10  C   UNL     1      29.082  24.424  21.756  0.00  0.00    +0.000 C 
ATOM     11  N   UNL     1      27.990  23.530  21.827  0.00  0.00    +0.000 NA
ATOM     12  O   UNL     1      29.700  24.470  20.642  0.00  0.00    +0.000 OA
ENDBRANCH   3  10
BRANCH   4  13
ATOM     13  C   UNL     1      30.723  23.509  24.121  0.00  0.00    +0.000 C 
BRANCH  13  14
ATOM     14  C   UNL     1      29.904  23.016  25.306  0.00  0.00    +0.000 A 
ATOM     15  C   UNL     1      30.563  22.687  26.484  0.00  0.00    +0.000 A 
ATOM     16  C   UNL     1      29.924  22.243  27.594  0.00  0.00    +0.000 A 
ATOM     17  C   UNL     1      28.523  22.109  27.553  0.00  0.00    +0.000 A 
ATOM     18  C   UNL     1      27.852  22.434  26.380  0.00  0.00    +0.000 A 
ATOM     19  C   UNL     1      28.554  22.886  25.271  0.00  0.00    +0.000 A 
ENDBRANCH  13  14
ENDBRANCH   4  13
TORSDOF 4
ENDMDL
