MODEL 1
REMARK VINA RESULT:      -7.7      0.000      0.000
REMARK  Name = 
REMARK  3 active torsions:
REMARK  status: ('A' for Active; 'I' for Inactive)
REMARK    1  A    between atoms: C_2  and  C_3
REMARK    2  A    between atoms: C_4  and  N_5
REMARK    3  A    between atoms: C_6  and  C_8
REMARK                            x       y       z     vdW  Elec       q    Type
REMARK                         _______ _______ _______ _____ _____    ______ ____
ROOT
ATOM      1  C   UNL     1      15.503  11.059  37.681  0.00  0.00    +0.000 A 
ATOM      2  C   UNL     1      16.147  11.592  36.601  0.00  0.00    +0.000 A 
ATOM      3  S   UNL     1      17.782  11.243  36.887  0.00  0.00    +0.000 S 
ATOM      4  C   UNL     1      17.621  10.424  38.380  0.00  0.00    +0.000 A 
ATOM      5  C   UNL     1      16.277  10.448  38.612  0.00  0.00    +0.000 A 
ATOM      6  C   UNL     1      15.731   9.795  39.892  0.00  0.00    +0.000 C 
ATOM      7  C   UNL     1      16.853   9.569  40.826  0.00  0.00    +0.000 C 
ATOM      8  C   UNL     1      18.012   8.829  40.191  0.00  0.00    +0.000 C 
ATOM      9  C   UNL     1      18.660   9.815  39.262  0.00  0.00    +0.000 C 
ENDROOT
BRANCH   2  10
ATOM     10  N   UNL     1      15.603  12.294  35.462  0.00  0.00    +0.000 NA
ATOM     11  C   UNL     1      15.549  11.646  34.200  0.00  0.00    +0.000 C 
ATOM     12  O   UNL     1      15.980  10.475  34.125  0.00  0.00    +0.000 OA
BRANCH  11  13
ATOM     13  C   UNL     1      15.011  12.323  33.049  0.00  0.00    +0.000 A 
ATOM     14  C   UNL     1      14.171  13.404  33.206  0.00  0.00    +0.000 A 
ATOM     15  C   UNL     1      13.626  14.093  32.134  0.00  0.00    +0.000 A 
ATOM     16  C   UNL     1      13.935  13.681  30.851  0.00  0.00    +0.000 A 
ATOM     17  C   UNL     1      14.773  12.603  30.671  0.00  0.00    +0.000 A 
ATOM     18  C   UNL     1      15.301  11.936  31.764  0.00  0.00    +0.000 A 
ENDBRANCH  11  13
ENDBRANCH   2  10
BRANCH   1  20
ATOM     19  N   UNL     1      12.859  11.271  37.836  0.00  0.00    +0.000 NA
ATOM     20  C   UNL     1      14.033  11.185  37.757  0.00  0.00    +0.000 C 
ENDBRANCH   1  20
TORSDOF 3
ENDMDL
MODEL 2
REMARK VINA RESULT:      -7.6      1.624      7.154
REMARK  Name = 
REMARK  3 active torsions:
REMARK  status: ('A' for Active; 'I' for Inactive)
REMARK    1  A    between atoms: C_2  and  C_3
REMARK    2  A    between atoms: C_4  and  N_5
REMARK    3  A    between atoms: C_6  and  C_8
REMARK                            x       y       z     vdW  Elec       q    Type
REMARK                         _______ _______ _______ _____ _____    ______ ____
ROOT
ATOM      1  C   UNL     1      14.957  12.136  34.487  0.00  0.00    +0.000 A 
ATOM      2  C   UNL     1      15.929  11.220  34.775  0.00  0.00    +0.000 A 
ATOM      3  S   UNL     1      16.722  10.987  33.293  0.00  0.00    +0.000 S 
ATOM      4  C   UNL     1      15.803  12.060  32.329  0.00  0.00    +0.000 A 
ATOM      5  C   UNL     1      14.893  12.575  33.206  0.00  0.00    +0.000 A 
ATOM      6  C   UNL     1      13.866  13.599  32.698  0.00  0.00    +0.000 C 
ATOM      7  C   UNL     1      13.846  13.560  31.222  0.00  0.00    +0.000 C 
ATOM      8  C   UNL     1      15.224  13.696  30.607  0.00  0.00    +0.000 C 
ATOM      9  C   UNL     1      15.918  12.391  30.878  0.00  0.00    +0.000 C 
ENDROOT
BRANCH   2  10
ATOM     10  N   UNL     1      16.242  10.576  36.029  0.00  0.00    +0.000 NA
ATOM     11  C   UNL     1      17.083  11.235  36.963  0.00  0.00    +0.000 C 
ATOM     12  O   UNL     1      17.526  12.363  36.658  0.00  0.00    +0.000 OA
BRANCH  11  13
ATOM     13  C   UNL     1      17.411  10.615  38.222  0.00  0.00    +0.000 A 
ATOM     14  C   UNL     1      16.412  10.166  39.057  0.00  0.00    +0.000 A 
ATOM     15  C   UNL     1      16.671   9.562  40.278  0.00  0.00    +0.000 A 
ATOM     16  C   UNL     1      17.984   9.402  40.677  0.00  0.00    +0.000 A 
ATOM     17  C   UNL     1      18.998   9.843  39.857  0.00  0.00    +0.000 A 
ATOM     18  C   UNL     1      18.706  10.443  38.642  0.00  0.00    +0.000 A 
ENDBRANCH  11  13
ENDBRANCH   2  10
BRANCH   1  20
ATOM     19  N   UNL     1      13.326  12.927  36.430  0.00  0.00    +0.000 NA
ATOM     20  C   UNL     1      14.060  12.575  35.576  0.00  0.00    +0.000 C 
ENDBRANCH   1  20
TORSDOF 3
ENDMDL
MODEL 3
REMARK VINA RESULT:      -6.9      3.460      7.065
REMARK  Name = 
REMARK  3 active torsions:
REMARK  status: ('A' for Active; 'I' for Inactive)
REMARK    1  A    between atoms: C_2  and  C_3
REMARK    2  A    between atoms: C_4  and  N_5
REMARK    3  A    between atoms: C_6  and  C_8
REMARK                            x       y       z     vdW  Elec       q    Type
REMARK                         _______ _______ _______ _____ _____    ______ ____
ROOT
ATOM      1  C   UNL     1      16.874  10.341  37.844  0.00  0.00    +0.000 A 
ATOM      2  C   UNL     1      17.844  10.259  36.885  0.00  0.00    +0.000 A 
ATOM      3  S   UNL     1      17.140  10.997  35.529  0.00  0.00    +0.000 S 
ATOM      4  C   UNL     1      15.621  11.398  36.204  0.00  0.00    +0.000 A 
ATOM      5  C   UNL     1      15.711  10.938  37.485  0.00  0.00    +0.000 A 
ATOM      6  C   UNL     1      14.510  11.118  38.428  0.00  0.00    +0.000 C 
ATOM      7  C   UNL     1      13.320  11.456  37.621  0.00  0.00    +0.000 C 
ATOM      8  C   UNL     1      13.555  12.617  36.677  0.00  0.00    +0.000 C 
ATOM      9  C   UNL     1      14.443  12.081  35.591  0.00  0.00    +0.000 C 
ENDROOT
BRANCH   2  10
ATOM     10  N   UNL     1      19.168   9.687  36.964  0.00  0.00    +0.000 NA
ATOM     11  C   UNL     1      20.235  10.464  37.485  0.00  0.00    +0.000 C 
ATOM     12  O   UNL     1      19.983  11.629  37.861  0.00  0.00    +0.000 OA
BRANCH  11  13
ATOM     13  C   UNL     1      21.565   9.918  37.574  0.00  0.00    +0.000 A 
ATOM     14  C   UNL     1      22.313   9.716  36.435  0.00  0.00    +0.000 A 
ATOM     15  C   UNL     1      23.597   9.195  36.463  0.00  0.00    +0.000 A 
ATOM     16  C   UNL     1      24.154   8.861  37.684  0.00  0.00    +0.000 A 
ATOM     17  C   UNL     1      23.424   9.055  38.835  0.00  0.00    +0.000 A 
ATOM     18  C   UNL     1      22.143   9.579  38.773  0.00  0.00    +0.000 A 
ENDBRANCH  11  13
ENDBRANCH   2  10
BRANCH   1  20
ATOM     19  N   UNL     1      17.403   9.351  40.252  0.00  0.00    +0.000 NA
ATOM     20  C   UNL     1      17.159   9.782  39.181  0.00  0.00    +0.000 C 
ENDBRANCH   1  20
TORSDOF 3
ENDMDL
MODEL 4
REMARK VINA RESULT:      -6.2     19.430     21.795
REMARK  Name = 
REMARK  3 active torsions:
REMARK  status: ('A' for Active; 'I' for Inactive)
REMARK    1  A    between atoms: C_2  and  C_3
REMARK    2  A    between atoms: C_4  and  N_5
REMARK    3  A    between atoms: C_6  and  C_8
REMARK                            x       y       z     vdW  Elec       q    Type
REMARK                         _______ _______ _______ _____ _____    ______ ____
ROOT
ATOM      1  C   UNL     1      29.592  22.800  25.351  0.00  0.00    +0.000 A 
ATOM      2  C   UNL     1      29.562  22.321  26.630  0.00  0.00    +0.000 A 
ATOM      3  S   UNL     1      27.908  22.259  27.003  0.00  0.00    +0.000 S 
ATOM      4  C   UNL     1      27.280  22.845  25.524  0.00  0.00    +0.000 A 
ATOM      5  C   UNL     1      28.396  23.074  24.774  0.00  0.00    +0.000 A 
ATOM      6  C   UNL     1      28.234  23.622  23.346  0.00  0.00    +0.000 C 
ATOM      7  C   UNL     1      26.861  24.142  23.190  0.00  0.00    +0.000 C 
ATOM      8  C   UNL     1      25.799  23.143  23.602  0.00  0.00    +0.000 C 
ATOM      9  C   UNL     1      25.867  23.077  25.101  0.00  0.00    +0.000 C 
ENDROOT
BRANCH   2  10
ATOM     10  N   UNL     1      30.655  21.944  27.495  0.00  0.00    +0.000 NA
ATOM     11  C   UNL     1      31.136  22.869  28.458  0.00  0.00    +0.000 C 
ATOM     12  O   UNL     1      30.586  23.990  28.520  0.00  0.00    +0.000 OA
BRANCH  11  13
ATOM     13  C   UNL     1      32.225  22.518  29.334  0.00  0.00    +0.000 A 
ATOM     14  C   UNL     1      32.082  21.495  30.246  0.00  0.00    +0.000 A 
ATOM     15  C   UNL     1      33.097  21.115  31.111  0.00  0.00    +0.000 A 
ATOM     16  C   UNL     1      34.303  21.789  31.060  0.00  0.00    +0.000 A 
ATOM     17  C   UNL     1      34.466  22.815  30.156  0.00  0.00    +0.000 A 
ATOM     18  C   UNL     1      33.433  23.170  29.304  0.00  0.00    +0.000 A 
ENDBRANCH  11  13
ENDBRANCH   2  10
BRANCH   1  20
ATOM     19  N   UNL     1      31.963  23.136  24.200  0.00  0.00    +0.000 NA
ATOM     20  C   UNL     1      30.905  22.983  24.699  0.00  0.00    +0.000 C 
ENDBRANCH   1  20
TORSDOF 3
ENDMDL
MODEL 5
REMARK VINA RESULT:      -6.2     19.310     21.535
REMARK  Name = 
REMARK  3 active torsions:
REMARK  status: ('A' for Active; 'I' for Inactive)
REMARK    1  A    between atoms: C_2  and  C_3
REMARK    2  A    between atoms: C_4  and  N_5
REMARK    3  A    between atoms: C_6  and  C_8
REMARK                            x       y       z     vdW  Elec       q    Type
REMARK                         _______ _______ _______ _____ _____    ______ ____
ROOT
ATOM      1  C   UNL     1      28.664  22.511  26.581  0.00  0.00    +0.000 A 
ATOM      2  C   UNL     1      30.012  22.316  26.474  0.00  0.00    +0.000 A 
ATOM      3  S   UNL     1      30.339  22.611  24.835  0.00  0.00    +0.000 S 
ATOM      4  C   UNL     1      28.753  22.978  24.311  0.00  0.00    +0.000 A 
ATOM      5  C   UNL     1      28.006  22.858  25.447  0.00  0.00    +0.000 A 
ATOM      6  C   UNL     1      26.493  23.115  25.374  0.00  0.00    +0.000 C 
ATOM      7  C   UNL     1      26.076  23.099  23.957  0.00  0.00    +0.000 C 
ATOM      8  C   UNL     1      26.909  24.016  23.085  0.00  0.00    +0.000 C 
ATOM      9  C   UNL     1      28.246  23.343  22.955  0.00  0.00    +0.000 C 
ENDROOT
BRANCH   2  10
ATOM     10  N   UNL     1      30.970  21.946  27.489  0.00  0.00    +0.000 NA
ATOM     11  C   UNL     1      31.666  22.959  28.198  0.00  0.00    +0.000 C 
ATOM     12  O   UNL     1      31.418  24.150  27.910  0.00  0.00    +0.000 OA
BRANCH  11  13
ATOM     13  C   UNL     1      32.626  22.617  29.215  0.00  0.00    +0.000 A 
ATOM     14  C   UNL     1      32.472  21.468  29.960  0.00  0.00    +0.000 A 
ATOM     15  C   UNL     1      33.365  21.090  30.951  0.00  0.00    +0.000 A 
ATOM     16  C   UNL     1      34.458  21.898  31.205  0.00  0.00    +0.000 A 
ATOM     17  C   UNL     1      34.632  23.050  30.472  0.00  0.00    +0.000 A 
ATOM     18  C   UNL     1      33.721  23.400  29.489  0.00  0.00    +0.000 A 
ENDBRANCH  11  13
ENDBRANCH   2  10
BRANCH   1  20
ATOM     19  N   UNL     1      27.538  22.208  28.968  0.00  0.00    +0.000 NA
ATOM     20  C   UNL     1      28.030  22.333  27.903  0.00  0.00    +0.000 C 
ENDBRANCH   1  20
TORSDOF 3
ENDMDL
MODEL 6
REMARK VINA RESULT:      -5.9      4.965      7.068
REMARK  Name = 
REMARK  3 active torsions:
REMARK  status: ('A' for Active; 'I' for Inactive)
REMARK    1  A    between atoms: C_2  and  C_3
REMARK    2  A    between atoms: C_4  and  N_5
REMARK    3  A    between atoms: C_6  and  C_8
REMARK                            x       y       z     vdW  Elec       q    Type
REMARK                         _______ _______ _______ _____ _____    ______ ____
ROOT
ATOM      1  C   UNL     1      18.146   9.731  38.919  0.00  0.00    +0.000 A 
ATOM      2  C   UNL     1      19.355   9.100  38.846  0.00  0.00    +0.000 A 
ATOM      3  S   UNL     1      19.259   7.894  40.035  0.00  0.00    +0.000 S 
ATOM      4  C   UNL     1      17.680   8.212  40.608  0.00  0.00    +0.000 A 
ATOM      5  C   UNL     1      17.270   9.264  39.843  0.00  0.00    +0.000 A 
ATOM      6  C   UNL     1      15.866   9.849  40.071  0.00  0.00    +0.000 C 
ATOM      7  C   UNL     1      15.352   9.358  41.365  0.00  0.00    +0.000 C 
ATOM      8  C   UNL     1      15.432   7.851  41.502  0.00  0.00    +0.000 C 
ATOM      9  C   UNL     1      16.891   7.540  41.683  0.00  0.00    +0.000 C 
ENDROOT
BRANCH   2  10
ATOM     10  N   UNL     1      20.478   9.365  37.977  0.00  0.00    +0.000 NA
ATOM     11  C   UNL     1      21.571  10.131  38.459  0.00  0.00    +0.000 C 
ATOM     12  O   UNL     1      21.518  10.551  39.635  0.00  0.00    +0.000 OA
BRANCH  11  13
ATOM     13  C   UNL     1      22.703  10.410  37.613  0.00  0.00    +0.000 A 
ATOM     14  C   UNL     1      23.487  11.520  37.842  0.00  0.00    +0.000 A 
ATOM     15  C   UNL     1      24.587  11.835  37.060  0.00  0.00    +0.000 A 
ATOM     16  C   UNL     1      24.914  11.004  36.005  0.00  0.00    +0.000 A 
ATOM     17  C   UNL     1      24.145   9.889  35.758  0.00  0.00    +0.000 A 
ATOM     18  C   UNL     1      23.051   9.602  36.559  0.00  0.00    +0.000 A 
ENDBRANCH  11  13
ENDBRANCH   2  10
BRANCH   1  20
ATOM     19  N   UNL     1      17.691  11.750  37.254  0.00  0.00    +0.000 NA
ATOM     20  C   UNL     1      17.884  10.858  38.001  0.00  0.00    +0.000 C 
ENDBRANCH   1  20
TORSDOF 3
ENDMDL
MODEL 7
REMARK VINA RESULT:      -5.8      5.581      8.128
REMARK  Name = 
REMARK  3 active torsions:
REMARK  status: ('A' for Active; 'I' for Inactive)
REMARK    1  A    between atoms: C_2  and  C_3
REMARK    2  A    between atoms: C_4  and  N_5
REMARK    3  A    between atoms: C_6  and  C_8
REMARK                            x       y       z     vdW  Elec       q    Type
REMARK                         _______ _______ _______ _____ _____    ______ ____
ROOT
ATOM      1  C   UNL     1      21.035  10.111  37.532  0.00  0.00    +0.000 A 
ATOM      2  C   UNL     1      20.634  10.221  38.833  0.00  0.00    +0.000 A 
ATOM      3  S   UNL     1      22.052  10.646  39.662  0.00  0.00    +0.000 S 
ATOM      4  C   UNL     1      23.134  10.675  38.338  0.00  0.00    +0.000 A 
ATOM      5  C   UNL     1      22.344  10.349  37.275  0.00  0.00    +0.000 A 
ATOM      6  C   UNL     1      22.975  10.270  35.875  0.00  0.00    +0.000 C 
ATOM      7  C   UNL     1      24.444  10.219  36.018  0.00  0.00    +0.000 C 
ATOM      8  C   UNL     1      24.992  11.330  36.890  0.00  0.00    +0.000 C 
ATOM      9  C   UNL     1      24.597  10.974  38.294  0.00  0.00    +0.000 C 
ENDROOT
BRANCH   2  10
ATOM     10  N   UNL     1      19.324  10.030  39.411  0.00  0.00    +0.000 NA
ATOM     11  C   UNL     1      18.960   8.755  39.915  0.00  0.00    +0.000 C 
ATOM     12  O   UNL     1      19.802   7.833  39.839  0.00  0.00    +0.000 OA
BRANCH  11  13
ATOM     13  C   UNL     1      17.660   8.538  40.496  0.00  0.00    +0.000 A 
ATOM     14  C   UNL     1      17.359   7.336  41.098  0.00  0.00    +0.000 A 
ATOM     15  C   UNL     1      16.125   7.074  41.673  0.00  0.00    +0.000 A 
ATOM     16  C   UNL     1      15.153   8.056  41.641  0.00  0.00    +0.000 A 
ATOM     17  C   UNL     1      15.433   9.265  41.044  0.00  0.00    +0.000 A 
ATOM     18  C   UNL     1      16.677   9.496  40.479  0.00  0.00    +0.000 A 
ENDBRANCH  11  13
ENDBRANCH   2  10
BRANCH   1  20
ATOM     19  N   UNL     1      19.209   9.471  35.711  0.00  0.00    +0.000 NA
ATOM     20  C   UNL     1      20.027   9.745  36.515  0.00  0.00    +0.000 C 
ENDBRANCH   1  20
TORSDOF 3
ENDMDL
MODEL 8
REMARK VINA RESULT:      -5.7     18.041     19.145
REMARK  Name = 
REMARK  3 active torsions:
REMARK  status: ('A' for Active; 'I' for Inactive)
REMARK    1  A    between atoms: C_2  and  C_3
REMARK    2  A    between atoms: C_4  and  N_5
REMARK    3  A    between atoms: C_6  and  C_8
REMARK                            x       y       z     vdW  Elec       q    Type
REMARK                         _______ _______ _______ _____ _____    ______ ____
ROOT
ATOM      1  C   UNL     1      26.986  23.613  28.162  0.00  0.00    +0.000 A 
ATOM      2  C   UNL     1      26.268  23.913  27.039  0.00  0.00    +0.000 A 
ATOM      3  S   UNL     1      27.363  23.648  25.771  0.00  0.00    +0.000 S 
ATOM      4  C   UNL     1      28.720  23.161  26.690  0.00  0.00    +0.000 A 
ATOM      5  C   UNL     1      28.271  23.219  27.977  0.00  0.00    +0.000 A 
ATOM      6  C   UNL     1      29.230  22.846  29.119  0.00  0.00    +0.000 C 
ATOM      7  C   UNL     1      30.610  22.833  28.595  0.00  0.00    +0.000 C 
ATOM      8  C   UNL     1      30.762  21.987  27.347  0.00  0.00    +0.000 C 
ATOM      9  C   UNL     1      30.090  22.761  26.250  0.00  0.00    +0.000 C 
ENDROOT
BRANCH   2  10
ATOM     10  N   UNL     1      24.898  24.353  26.916  0.00  0.00    +0.000 NA
ATOM     11  C   UNL     1      24.621  25.730  26.712  0.00  0.00    +0.000 C 
ATOM     12  O   UNL     1      25.590  26.518  26.645  0.00  0.00    +0.000 OA
BRANCH  11  13
ATOM     13  C   UNL     1      23.264  26.196  26.586  0.00  0.00    +0.000 A 
ATOM     14  C   UNL     1      22.431  26.218  27.683  0.00  0.00    +0.000 A 
ATOM     15  C   UNL     1      21.118  26.657  27.619  0.00  0.00    +0.000 A 
ATOM     16  C   UNL     1      20.619  27.090  26.405  0.00  0.00    +0.000 A 
ATOM     17  C   UNL     1      21.435  27.077  25.296  0.00  0.00    +0.000 A 
ATOM     18  C   UNL     1      22.743  26.633  25.393  0.00  0.00    +0.000 A 
ENDBRANCH  11  13
ENDBRANCH   2  10
BRANCH   1  20
ATOM     19  N   UNL     1      25.811  23.825  30.535  0.00  0.00    +0.000 NA
ATOM     20  C   UNL     1      26.323  23.738  29.476  0.00  0.00    +0.000 C 
ENDBRANCH   1  20
TORSDOF 3
ENDMDL
MODEL 9
REMARK VINA RESULT:      -5.6      6.943      9.889
REMARK  Name = 
REMARK  3 active torsions:
REMARK  status: ('A' for Active; 'I' for Inactive)
REMARK    1  A    between atoms: C_2  and  C_3
REMARK    2  A    between atoms: C_4  and  N_5
REMARK    3  A    between atoms: C_6  and  C_8
REMARK                            x       y       z     vdW  Elec       q    Type
REMARK                         _______ _______ _______ _____ _____    ______ ____
ROOT
ATOM      1  C   UNL     1      21.514   4.778  40.649  0.00  0.00    +0.000 A 
ATOM      2  C   UNL     1      20.163   4.686  40.465  0.00  0.00    +0.000 A 
ATOM      3  S   UNL     1      19.851   3.021  40.563  0.00  0.00    +0.000 S 
ATOM      4  C   UNL     1      21.446   2.468  40.836  0.00  0.00    +0.000 A 
ATOM      5  C   UNL     1      22.184   3.616  40.843  0.00  0.00    +0.000 A 
ATOM      6  C   UNL     1      23.702   3.524  41.063  0.00  0.00    +0.000 C 
ATOM      7  C   UNL     1      24.127   2.123  40.868  0.00  0.00    +0.000 C 
ATOM      8  C   UNL     1      23.315   1.139  41.684  0.00  0.00    +0.000 C 
ATOM      9  C   UNL     1      21.967   1.081  41.023  0.00  0.00    +0.000 C 
ENDROOT
BRANCH   2  10
ATOM     10  N   UNL     1      19.193   5.732  40.238  0.00  0.00    +0.000 NA
ATOM     11  C   UNL     1      18.509   6.303  41.342  0.00  0.00    +0.000 C 
ATOM     12  O   UNL     1      18.777   5.871  42.484  0.00  0.00    +0.000 OA
BRANCH  11  13
ATOM     13  C   UNL     1      17.537   7.347  41.143  0.00  0.00    +0.000 A 
ATOM     14  C   UNL     1      17.842   8.443  40.366  0.00  0.00    +0.000 A 
ATOM     15  C   UNL     1      16.945   9.476  40.141  0.00  0.00    +0.000 A 
ATOM     16  C   UNL     1      15.691   9.407  40.719  0.00  0.00    +0.000 A 
ATOM     17  C   UNL     1      15.365   8.320  41.499  0.00  0.00    +0.000 A 
ATOM     18  C   UNL     1      16.284   7.304  41.705  0.00  0.00    +0.000 A 
ENDBRANCH  11  13
ENDBRANCH   2  10
BRANCH   1  20
ATOM     19  N   UNL     1      22.656   7.177  40.602  0.00  0.00    +0.000 NA
ATOM     20  C   UNL     1      22.137   6.118  40.624  0.00  0.00    +0.000 C 
ENDBRANCH   1  20
TORSDOF 3
ENDMDL
MODEL 10
REMARK VINA RESULT:      -5.6      6.247      8.604
REMARK  Name = 
REMARK  3 active torsions:
REMARK  status: ('A' for Active; 'I' for Inactive)
REMARK    1  A    between atoms: C_2  and  C_3
REMARK    2  A    between atoms: C_4  and  N_5
REMARK    3  A    between atoms: C_6  and  C_8
REMARK                            x       y       z     vdW  Elec       q    Type
REMARK                         _______ _______ _______ _____ _____    ______ ____
ROOT
ATOM      1  C   UNL     1      22.480   8.991  39.168  0.00  0.00    +0.000 A 
ATOM      2  C   UNL     1      21.274   9.632  39.186  0.00  0.00    +0.000 A 
ATOM      3  S   UNL     1      21.444  10.856  38.024  0.00  0.00    +0.000 S 
ATOM      4  C   UNL     1      23.050  10.533  37.533  0.00  0.00    +0.000 A 
ATOM      5  C   UNL     1      23.409   9.464  38.301  0.00  0.00    +0.000 A 
ATOM      6  C   UNL     1      24.820   8.874  38.144  0.00  0.00    +0.000 C 
ATOM      7  C   UNL     1      25.660   9.841  37.410  0.00  0.00    +0.000 C 
ATOM      8  C   UNL     1      25.030  10.310  36.115  0.00  0.00    +0.000 C 
ATOM      9  C   UNL     1      23.905  11.220  36.519  0.00  0.00    +0.000 C 
ENDROOT
BRANCH   2  10
ATOM     10  N   UNL     1      20.103   9.364  39.989  0.00  0.00    +0.000 NA
ATOM     11  C   UNL     1      18.907   8.931  39.360  0.00  0.00    +0.000 C 
ATOM     12  O   UNL     1      18.915   8.796  38.117  0.00  0.00    +0.000 OA
BRANCH  11  13
ATOM     13  C   UNL     1      17.726   8.657  40.138  0.00  0.00    +0.000 A 
ATOM     14  C   UNL     1      17.573   7.440  40.765  0.00  0.00    +0.000 A 
ATOM     15  C   UNL     1      16.457   7.123  41.525  0.00  0.00    +0.000 A 
ATOM     16  C   UNL     1      15.455   8.066  41.662  0.00  0.00    +0.000 A 
ATOM     17  C   UNL     1      15.589   9.289  41.044  0.00  0.00    +0.000 A 
ATOM     18  C   UNL     1      16.716   9.574  40.290  0.00  0.00    +0.000 A 
ENDBRANCH  11  13
ENDBRANCH   2  10
BRANCH   1  20
ATOM     19  N   UNL     1      22.825   6.939  40.821  0.00  0.00    +0.000 NA
ATOM     20  C   UNL     1      22.683   7.846  40.080  0.00  0.00    +0.000 C 
ENDBRANCH   1  20
TORSDOF 3
ENDMDL
