MODEL 1
REMARK VINA RESULT:      -6.0      0.000      0.000
REMARK  Name = 
REMARK  3 active torsions:
REMARK  status: ('A' for Active; 'I' for Inactive)
REMARK    1  A    between atoms: C_3  and  S_4
REMARK    2  A    between atoms: N_10  and  C_11
REMARK    3  A    between atoms: C_11  and  C_12
REMARK                            x       y       z     vdW  Elec       q    Type
REMARK                         _______ _______ _______ _____ _____    ______ ____
ROOT
ATOM      1  C   UNL     1      24.745  25.783  28.367  0.00  0.00    +0.000 C 
ATOM      2  C   UNL     1      25.650  24.730  27.820  0.00  0.00    +0.000 A 
ATOM      3  C   UNL     1      26.392  23.842  28.556  0.00  0.00    +0.000 A 
ATOM      4  C   UNL     1      27.067  23.067  27.653  0.00  0.00    +0.000 A 
ATOM      5  N   UNL     1      27.963  22.006  28.013  0.00  0.00    +0.000 NA
ATOM      6  N   UNL     1      26.742  23.478  26.421  0.00  0.00    +0.000 N 
ATOM      7  C   UNL     1      25.863  24.509  26.476  0.00  0.00    +0.000 A 
ATOM      8  C   UNL     1      25.258  25.248  25.316  0.00  0.00    +0.000 C 
ENDROOT
BRANCH   3   9
ATOM      9  S   UNL     1      26.418  23.771  30.318  0.00  0.00    +0.000 S 
ATOM     10  C   UNL     1      28.046  24.132  30.889  0.00  0.00    +0.000 C 
ATOM     11  O   UNL     1      25.404  24.767  30.800  0.00  0.00    +0.000 OA
ATOM     12  O   UNL     1      25.974  22.404  30.754  0.00  0.00    +0.000 OA
ENDBRANCH   3   9
BRANCH   6  13
ATOM     13  C   UNL     1      27.227  22.937  25.158  0.00  0.00    +0.000 C 
BRANCH  13  14
ATOM     14  C   UNL     1      28.625  23.408  24.888  0.00  0.00    +0.000 A 
ATOM     15  C   UNL     1      29.621  22.490  24.933  0.00  0.00    +0.000 A 
ATOM     16  C   UNL     1      30.925  22.861  24.695  0.00  0.00    +0.000 A 
ATOM     17  C   UNL     1      31.236  24.158  24.407  0.00  0.00    +0.000 A 
ATOM     18  C   UNL     1      30.216  25.076  24.365  0.00  0.00    +0.000 A 
ATOM     19  C   UNL     1      28.911  24.723  24.601  0.00  0.00    +0.000 A 
ENDBRANCH  13  14
ENDBRANCH   6  13
TORSDOF 3
ENDMDL
MODEL 2
REMARK VINA RESULT:      -5.9      3.685      6.071
REMARK  Name = 
REMARK  3 active torsions:
REMARK  status: ('A' for Active; 'I' for Inactive)
REMARK    1  A    between atoms: C_3  and  S_4
REMARK    2  A    between atoms: N_10  and  C_11
REMARK    3  A    between atoms: C_11  and  C_12
REMARK                            x       y       z     vdW  Elec       q    Type
REMARK                         _______ _______ _______ _____ _____    ______ ____
ROOT
ATOM      1  C   UNL     1      30.877  23.689  24.124  0.00  0.00    +0.000 C 
ATOM      2  C   UNL     1      29.613  23.270  24.800  0.00  0.00    +0.000 A 
ATOM      3  C   UNL     1      28.347  23.389  24.286  0.00  0.00    +0.000 A 
ATOM      4  C   UNL     1      27.501  22.883  25.235  0.00  0.00    +0.000 A 
ATOM      5  N   UNL     1      26.074  22.820  25.091  0.00  0.00    +0.000 NA
ATOM      6  N   UNL     1      28.234  22.477  26.278  0.00  0.00    +0.000 N 
ATOM      7  C   UNL     1      29.553  22.697  26.052  0.00  0.00    +0.000 A 
ATOM      8  C   UNL     1      30.697  22.382  26.974  0.00  0.00    +0.000 C 
ENDROOT
BRANCH   3   9
ATOM      9  S   UNL     1      27.962  24.070  22.705  0.00  0.00    +0.000 S 
ATOM     10  C   UNL     1      27.598  25.784  22.886  0.00  0.00    +0.000 C 
ATOM     11  O   UNL     1      29.157  23.823  21.832  0.00  0.00    +0.000 OA
ATOM     12  O   UNL     1      26.796  23.319  22.126  0.00  0.00    +0.000 OA
ENDBRANCH   3   9
BRANCH   6  13
ATOM     13  C   UNL     1      27.749  21.874  27.513  0.00  0.00    +0.000 C 
BRANCH  13  14
ATOM     14  C   UNL     1      27.346  22.938  28.492  0.00  0.00    +0.000 A 
ATOM     15  C   UNL     1      28.213  23.238  29.491  0.00  0.00    +0.000 A 
ATOM     16  C   UNL     1      27.900  24.204  30.421  0.00  0.00    +0.000 A 
ATOM     17  C   UNL     1      26.714  24.876  30.351  0.00  0.00    +0.000 A 
ATOM     18  C   UNL     1      25.848  24.561  29.334  0.00  0.00    +0.000 A 
ATOM     19  C   UNL     1      26.144  23.600  28.399  0.00  0.00    +0.000 A 
ENDBRANCH  13  14
ENDBRANCH   6  13
TORSDOF 3
ENDMDL
MODEL 3
REMARK VINA RESULT:      -5.9      5.329      6.584
REMARK  Name = 
REMARK  3 active torsions:
REMARK  status: ('A' for Active; 'I' for Inactive)
REMARK    1  A    between atoms: C_3  and  S_4
REMARK    2  A    between atoms: N_10  and  C_11
REMARK    3  A    between atoms: C_11  and  C_12
REMARK                            x       y       z     vdW  Elec       q    Type
REMARK                         _______ _______ _______ _____ _____    ______ ____
ROOT
ATOM      1  C   UNL     1      26.784  28.010  23.155  0.00  0.00    +0.000 C 
ATOM      2  C   UNL     1      27.442  26.721  22.793  0.00  0.00    +0.000 A 
ATOM      3  C   UNL     1      28.336  26.531  21.771  0.00  0.00    +0.000 A 
ATOM      4  C   UNL     1      28.679  25.207  21.804  0.00  0.00    +0.000 A 
ATOM      5  N   UNL     1      29.601  24.590  20.893  0.00  0.00    +0.000 NA
ATOM      6  N   UNL     1      28.013  24.626  22.809  0.00  0.00    +0.000 N 
ATOM      7  C   UNL     1      27.233  25.528  23.453  0.00  0.00    +0.000 A 
ATOM      8  C   UNL     1      26.334  25.275  24.630  0.00  0.00    +0.000 C 
ENDROOT
BRANCH   3   9
ATOM      9  S   UNL     1      28.890  27.794  20.671  0.00  0.00    +0.000 S 
ATOM     10  C   UNL     1      27.532  28.345  19.692  0.00  0.00    +0.000 C 
ATOM     11  O   UNL     1      29.463  28.884  21.528  0.00  0.00    +0.000 OA
ATOM     12  O   UNL     1      29.994  27.241  19.815  0.00  0.00    +0.000 OA
ENDBRANCH   3   9
BRANCH   6  13
ATOM     13  C   UNL     1      28.073  23.226  23.210  0.00  0.00    +0.000 C 
BRANCH  13  14
ATOM     14  C   UNL     1      29.078  23.037  24.309  0.00  0.00    +0.000 A 
ATOM     15  C   UNL     1      28.620  22.649  25.524  0.00  0.00    +0.000 A 
ATOM     16  C   UNL     1      29.492  22.460  26.572  0.00  0.00    +0.000 A 
ATOM     17  C   UNL     1      30.833  22.659  26.404  0.00  0.00    +0.000 A 
ATOM     18  C   UNL     1      31.280  23.052  25.167  0.00  0.00    +0.000 A 
ATOM     19  C   UNL     1      30.424  23.245  24.112  0.00  0.00    +0.000 A 
ENDBRANCH  13  14
ENDBRANCH   6  13
TORSDOF 3
ENDMDL
MODEL 4
REMARK VINA RESULT:      -5.6      1.163      1.705
REMARK  Name = 
REMARK  3 active torsions:
REMARK  status: ('A' for Active; 'I' for Inactive)
REMARK    1  A    between atoms: C_3  and  S_4
REMARK    2  A    between atoms: N_10  and  C_11
REMARK    3  A    between atoms: C_11  and  C_12
REMARK                            x       y       z     vdW  Elec       q    Type
REMARK                         _______ _______ _______ _____ _____    ______ ____
ROOT
ATOM      1  C   UNL     1      25.019  25.684  28.859  0.00  0.00    +0.000 C 
ATOM      2  C   UNL     1      25.702  24.687  27.983  0.00  0.00    +0.000 A 
ATOM      3  C   UNL     1      26.625  23.757  28.388  0.00  0.00    +0.000 A 
ATOM      4  C   UNL     1      26.983  23.060  27.266  0.00  0.00    +0.000 A 
ATOM      5  N   UNL     1      27.935  21.987  27.253  0.00  0.00    +0.000 NA
ATOM      6  N   UNL     1      26.299  23.557  26.228  0.00  0.00    +0.000 N 
ATOM      7  C   UNL     1      25.490  24.569  26.626  0.00  0.00    +0.000 A 
ATOM      8  C   UNL     1      24.564  25.383  25.767  0.00  0.00    +0.000 C 
ENDROOT
BRANCH   3   9
ATOM      9  S   UNL     1      27.190  23.556  30.047  0.00  0.00    +0.000 S 
ATOM     10  C   UNL     1      28.066  25.003  30.539  0.00  0.00    +0.000 C 
ATOM     11  O   UNL     1      25.972  23.306  30.885  0.00  0.00    +0.000 OA
ATOM     12  O   UNL     1      28.064  22.336  30.116  0.00  0.00    +0.000 OA
ENDBRANCH   3   9
BRANCH   6  13
ATOM     13  C   UNL     1      26.366  23.118  24.840  0.00  0.00    +0.000 C 
BRANCH  13  14
ATOM     14  C   UNL     1      27.539  23.747  24.147  0.00  0.00    +0.000 A 
ATOM     15  C   UNL     1      27.347  24.944  23.540  0.00  0.00    +0.000 A 
ATOM     16  C   UNL     1      28.384  25.571  22.887  0.00  0.00    +0.000 A 
ATOM     17  C   UNL     1      29.623  25.000  22.843  0.00  0.00    +0.000 A 
ATOM     18  C   UNL     1      29.801  23.788  23.462  0.00  0.00    +0.000 A 
ATOM     19  C   UNL     1      28.778  23.148  24.117  0.00  0.00    +0.000 A 
ENDBRANCH  13  14
ENDBRANCH   6  13
TORSDOF 3
ENDMDL
MODEL 5
REMARK VINA RESULT:      -5.3      4.005      5.994
REMARK  Name = 
REMARK  3 active torsions:
REMARK  status: ('A' for Active; 'I' for Inactive)
REMARK    1  A    between atoms: C_3  and  S_4
REMARK    2  A    between atoms: N_10  and  C_11
REMARK    3  A    between atoms: C_11  and  C_12
REMARK                            x       y       z     vdW  Elec       q    Type
REMARK                         _______ _______ _______ _____ _____    ______ ____
ROOT
ATOM      1  C   UNL     1      29.684  26.616  24.499  0.00  0.00    +0.000 C 
ATOM      2  C   UNL     1      28.474  25.799  24.810  0.00  0.00    +0.000 A 
ATOM      3  C   UNL     1      27.936  24.820  24.014  0.00  0.00    +0.000 A 
ATOM      4  C   UNL     1      26.845  24.340  24.685  0.00  0.00    +0.000 A 
ATOM      5  N   UNL     1      25.992  23.295  24.194  0.00  0.00    +0.000 NA
ATOM      6  N   UNL     1      26.734  25.008  25.840  0.00  0.00    +0.000 N 
ATOM      7  C   UNL     1      27.725  25.925  25.961  0.00  0.00    +0.000 A 
ATOM      8  C   UNL     1      27.952  26.871  27.105  0.00  0.00    +0.000 C 
ENDROOT
BRANCH   3   9
ATOM      9  S   UNL     1      28.580  24.329  22.447  0.00  0.00    +0.000 S 
ATOM     10  C   UNL     1      28.395  25.657  21.304  0.00  0.00    +0.000 C 
ATOM     11  O   UNL     1      30.017  23.959  22.674  0.00  0.00    +0.000 OA
ATOM     12  O   UNL     1      27.848  23.101  21.986  0.00  0.00    +0.000 OA
ENDBRANCH   3   9
BRANCH   6  13
ATOM     13  C   UNL     1      25.715  24.826  26.867  0.00  0.00    +0.000 C 
BRANCH  13  14
ATOM     14  C   UNL     1      26.253  24.002  27.999  0.00  0.00    +0.000 A 
ATOM     15  C   UNL     1      25.818  24.286  29.251  0.00  0.00    +0.000 A 
ATOM     16  C   UNL     1      26.275  23.565  30.330  0.00  0.00    +0.000 A 
ATOM     17  C   UNL     1      27.173  22.551  30.158  0.00  0.00    +0.000 A 
ATOM     18  C   UNL     1      27.604  22.276  28.884  0.00  0.00    +0.000 A 
ATOM     19  C   UNL     1      27.159  22.986  27.797  0.00  0.00    +0.000 A 
ENDBRANCH  13  14
ENDBRANCH   6  13
TORSDOF 3
ENDMDL
MODEL 6
REMARK VINA RESULT:      -5.3      2.453      3.445
REMARK  Name = 
REMARK  3 active torsions:
REMARK  status: ('A' for Active; 'I' for Inactive)
REMARK    1  A    between atoms: C_3  and  S_4
REMARK    2  A    between atoms: N_10  and  C_11
REMARK    3  A    between atoms: C_11  and  C_12
REMARK                            x       y       z     vdW  Elec       q    Type
REMARK                         _______ _______ _______ _____ _____    ______ ____
ROOT
ATOM      1  C   UNL     1      25.351  25.322  29.446  0.00  0.00    +0.000 C 
ATOM      2  C   UNL     1      25.702  24.688  28.142  0.00  0.00    +0.000 A 
ATOM      3  C   UNL     1      25.314  25.127  26.901  0.00  0.00    +0.000 A 
ATOM      4  C   UNL     1      25.858  24.253  26.000  0.00  0.00    +0.000 A 
ATOM      5  N   UNL     1      25.692  24.355  24.578  0.00  0.00    +0.000 NA
ATOM      6  N   UNL     1      26.547  23.325  26.676  0.00  0.00    +0.000 N 
ATOM      7  C   UNL     1      26.478  23.555  28.011  0.00  0.00    +0.000 A 
ATOM      8  C   UNL     1      27.113  22.745  29.105  0.00  0.00    +0.000 C 
ENDROOT
BRANCH   3   9
ATOM      9  S   UNL     1      24.311  26.547  26.605  0.00  0.00    +0.000 S 
ATOM     10  C   UNL     1      22.684  26.243  27.209  0.00  0.00    +0.000 C 
ATOM     11  O   UNL     1      24.980  27.694  27.303  0.00  0.00    +0.000 OA
ATOM     12  O   UNL     1      24.304  26.835  25.131  0.00  0.00    +0.000 OA
ENDBRANCH   3   9
BRANCH   6  13
ATOM     13  C   UNL     1      27.287  22.200  26.120  0.00  0.00    +0.000 C 
BRANCH  13  14
ATOM     14  C   UNL     1      28.659  22.634  25.695  0.00  0.00    +0.000 A 
ATOM     15  C   UNL     1      29.654  22.572  26.614  0.00  0.00    +0.000 A 
ATOM     16  C   UNL     1      30.934  22.957  26.286  0.00  0.00    +0.000 A 
ATOM     17  C   UNL     1      31.223  23.406  25.029  0.00  0.00    +0.000 A 
ATOM     18  C   UNL     1      30.205  23.462  24.111  0.00  0.00    +0.000 A 
ATOM     19  C   UNL     1      28.923  23.083  24.422  0.00  0.00    +0.000 A 
ENDBRANCH  13  14
ENDBRANCH   6  13
TORSDOF 3
ENDMDL
MODEL 7
REMARK VINA RESULT:      -5.2      3.017      3.994
REMARK  Name = 
REMARK  3 active torsions:
REMARK  status: ('A' for Active; 'I' for Inactive)
REMARK    1  A    between atoms: C_3  and  S_4
REMARK    2  A    between atoms: N_10  and  C_11
REMARK    3  A    between atoms: C_11  and  C_12
REMARK                            x       y       z     vdW  Elec       q    Type
REMARK                         _______ _______ _______ _____ _____    ______ ____
ROOT
ATOM      1  C   UNL     1      26.054  28.047  23.914  0.00  0.00    +0.000 C 
ATOM      2  C   UNL     1      26.269  26.581  24.095  0.00  0.00    +0.000 A 
ATOM      3  C   UNL     1      25.614  25.775  24.991  0.00  0.00    +0.000 A 
ATOM      4  C   UNL     1      26.121  24.517  24.813  0.00  0.00    +0.000 A 
ATOM      5  N   UNL     1      25.701  23.366  25.561  0.00  0.00    +0.000 NA
ATOM      6  N   UNL     1      27.045  24.568  23.846  0.00  0.00    +0.000 N 
ATOM      7  C   UNL     1      27.170  25.831  23.369  0.00  0.00    +0.000 A 
ATOM      8  C   UNL     1      28.096  26.305  22.284  0.00  0.00    +0.000 C 
ENDROOT
BRANCH   3   9
ATOM      9  S   UNL     1      24.375  26.324  26.119  0.00  0.00    +0.000 S 
ATOM     10  C   UNL     1      22.889  26.655  25.232  0.00  0.00    +0.000 C 
ATOM     11  O   UNL     1      24.209  25.232  27.135  0.00  0.00    +0.000 OA
ATOM     12  O   UNL     1      24.875  27.550  26.829  0.00  0.00    +0.000 OA
ENDBRANCH   3   9
BRANCH   6  13
ATOM     13  C   UNL     1      27.840  23.461  23.329  0.00  0.00    +0.000 C 
BRANCH  13  14
ATOM     14  C   UNL     1      29.087  23.286  24.145  0.00  0.00    +0.000 A 
ATOM     15  C   UNL     1      30.235  23.828  23.670  0.00  0.00    +0.000 A 
ATOM     16  C   UNL     1      31.411  23.700  24.372  0.00  0.00    +0.000 A 
ATOM     17  C   UNL     1      31.441  23.027  25.560  0.00  0.00    +0.000 A 
ATOM     18  C   UNL     1      30.270  22.484  26.027  0.00  0.00    +0.000 A 
ATOM     19  C   UNL     1      29.088  22.601  25.339  0.00  0.00    +0.000 A 
ENDBRANCH  13  14
ENDBRANCH   6  13
TORSDOF 3
ENDMDL
MODEL 8
REMARK VINA RESULT:      -5.2      4.982      6.719
REMARK  Name = 
REMARK  3 active torsions:
REMARK  status: ('A' for Active; 'I' for Inactive)
REMARK    1  A    between atoms: C_3  and  S_4
REMARK    2  A    between atoms: N_10  and  C_11
REMARK    3  A    between atoms: C_11  and  C_12
REMARK                            x       y       z     vdW  Elec       q    Type
REMARK                         _______ _______ _______ _____ _____    ______ ____
ROOT
ATOM      1  C   UNL     1      29.729  28.397  24.017  0.00  0.00    +0.000 C 
ATOM      2  C   UNL     1      29.816  26.964  23.608  0.00  0.00    +0.000 A 
ATOM      3  C   UNL     1      29.378  26.436  22.421  0.00  0.00    +0.000 A 
ATOM      4  C   UNL     1      29.656  25.098  22.472  0.00  0.00    +0.000 A 
ATOM      5  N   UNL     1      29.354  24.171  21.419  0.00  0.00    +0.000 NA
ATOM      6  N   UNL     1      30.240  24.835  23.648  0.00  0.00    +0.000 N 
ATOM      7  C   UNL     1      30.361  25.965  24.387  0.00  0.00    +0.000 A 
ATOM      8  C   UNL     1      30.960  26.092  25.759  0.00  0.00    +0.000 C 
ENDROOT
BRANCH   3   9
ATOM      9  S   UNL     1      28.615  27.363  21.129  0.00  0.00    +0.000 S 
ATOM     10  C   UNL     1      29.615  27.270  19.681  0.00  0.00    +0.000 C 
ATOM     11  O   UNL     1      27.251  26.770  20.927  0.00  0.00    +0.000 OA
ATOM     12  O   UNL     1      28.444  28.783  21.588  0.00  0.00    +0.000 OA
ENDBRANCH   3   9
BRANCH   6  13
ATOM     13  C   UNL     1      30.704  23.539  24.128  0.00  0.00    +0.000 C 
BRANCH  13  14
ATOM     14  C   UNL     1      29.796  23.023  25.205  0.00  0.00    +0.000 A 
ATOM     15  C   UNL     1      30.366  22.556  26.343  0.00  0.00    +0.000 A 
ATOM     16  C   UNL     1      29.586  22.069  27.367  0.00  0.00    +0.000 A 
ATOM     17  C   UNL     1      28.226  22.050  27.255  0.00  0.00    +0.000 A 
ATOM     18  C   UNL     1      27.664  22.526  26.096  0.00  0.00    +0.000 A 
ATOM     19  C   UNL     1      28.427  23.015  25.065  0.00  0.00    +0.000 A 
ENDBRANCH  13  14
ENDBRANCH   6  13
TORSDOF 3
ENDMDL
MODEL 9
REMARK VINA RESULT:      -5.1      2.159      3.474
REMARK  Name = 
REMARK  3 active torsions:
REMARK  status: ('A' for Active; 'I' for Inactive)
REMARK    1  A    between atoms: C_3  and  S_4
REMARK    2  A    between atoms: N_10  and  C_11
REMARK    3  A    between atoms: C_11  and  C_12
REMARK                            x       y       z     vdW  Elec       q    Type
REMARK                         _______ _______ _______ _____ _____    ______ ____
ROOT
ATOM      1  C   UNL     1      29.873  23.314  28.681  0.00  0.00    +0.000 C 
ATOM      2  C   UNL     1      29.078  23.215  27.422  0.00  0.00    +0.000 A 
ATOM      3  C   UNL     1      27.721  23.384  27.310  0.00  0.00    +0.000 A 
ATOM      4  C   UNL     1      27.423  23.207  25.987  0.00  0.00    +0.000 A 
ATOM      5  N   UNL     1      26.099  23.299  25.440  0.00  0.00    +0.000 NA
ATOM      6  N   UNL     1      28.560  22.942  25.331  0.00  0.00    +0.000 N 
ATOM      7  C   UNL     1      29.615  22.938  26.183  0.00  0.00    +0.000 A 
ATOM      8  C   UNL     1      31.055  22.683  25.842  0.00  0.00    +0.000 C 
ENDROOT
BRANCH   3   9
ATOM      9  S   UNL     1      26.639  23.755  28.652  0.00  0.00    +0.000 S 
ATOM     10  C   UNL     1      26.486  22.334  29.683  0.00  0.00    +0.000 C 
ATOM     11  O   UNL     1      27.239  24.927  29.372  0.00  0.00    +0.000 OA
ATOM     12  O   UNL     1      25.308  24.176  28.098  0.00  0.00    +0.000 OA
ENDBRANCH   3   9
BRANCH   6  13
ATOM     13  C   UNL     1      28.713  22.685  23.904  0.00  0.00    +0.000 C 
BRANCH  13  14
ATOM     14  C   UNL     1      28.634  23.967  23.129  0.00  0.00    +0.000 A 
ATOM     15  C   UNL     1      27.606  24.117  22.258  0.00  0.00    +0.000 A 
ATOM     16  C   UNL     1      27.480  25.270  21.517  0.00  0.00    +0.000 A 
ATOM     17  C   UNL     1      28.386  26.283  21.649  0.00  0.00    +0.000 A 
ATOM     18  C   UNL     1      29.421  26.115  22.535  0.00  0.00    +0.000 A 
ATOM     19  C   UNL     1      29.562  24.972  23.281  0.00  0.00    +0.000 A 
ENDBRANCH  13  14
ENDBRANCH   6  13
TORSDOF 3
ENDMDL
MODEL 10
REMARK VINA RESULT:      -5.1     18.283     19.494
REMARK  Name = 
REMARK  3 active torsions:
REMARK  status: ('A' for Active; 'I' for Inactive)
REMARK    1  A    between atoms: C_3  and  S_4
REMARK    2  A    between atoms: N_10  and  C_11
REMARK    3  A    between atoms: C_11  and  C_12
REMARK                            x       y       z     vdW  Elec       q    Type
REMARK                         _______ _______ _______ _____ _____    ______ ____
ROOT
ATOM      1  C   UNL     1      21.585   8.726  39.951  0.00  0.00    +0.000 C 
ATOM      2  C   UNL     1      20.526   9.606  39.375  0.00  0.00    +0.000 A 
ATOM      3  C   UNL     1      20.687  10.912  38.986  0.00  0.00    +0.000 A 
ATOM      4  C   UNL     1      19.468  11.324  38.521  0.00  0.00    +0.000 A 
ATOM      5  N   UNL     1      19.201  12.640  38.014  0.00  0.00    +0.000 NA
ATOM      6  N   UNL     1      18.610  10.302  38.628  0.00  0.00    +0.000 N 
ATOM      7  C   UNL     1      19.224   9.213  39.153  0.00  0.00    +0.000 A 
ATOM      8  C   UNL     1      18.609   7.871  39.432  0.00  0.00    +0.000 C 
ENDROOT
BRANCH   3   9
ATOM      9  S   UNL     1      22.197  11.816  39.093  0.00  0.00    +0.000 S 
ATOM     10  C   UNL     1      22.664  11.964  40.786  0.00  0.00    +0.000 C 
ATOM     11  O   UNL     1      23.206  11.059  38.281  0.00  0.00    +0.000 OA
ATOM     12  O   UNL     1      22.001  13.163  38.459  0.00  0.00    +0.000 OA
ENDBRANCH   3   9
BRANCH   6  13
ATOM     13  C   UNL     1      17.201  10.293  38.252  0.00  0.00    +0.000 C 
BRANCH  13  14
ATOM     14  C   UNL     1      17.055  10.389  36.762  0.00  0.00    +0.000 A 
ATOM     15  C   UNL     1      17.681   9.455  36.004  0.00  0.00    +0.000 A 
ATOM     16  C   UNL     1      17.586   9.491  34.632  0.00  0.00    +0.000 A 
ATOM     17  C   UNL     1      16.858  10.465  34.011  0.00  0.00    +0.000 A 
ATOM     18  C   UNL     1      16.231  11.403  34.793  0.00  0.00    +0.000 A 
ATOM     19  C   UNL     1      16.316  11.383  36.163  0.00  0.00    +0.000 A 
ENDBRANCH  13  14
ENDBRANCH   6  13
TORSDOF 3
ENDMDL
