MODEL 1
REMARK VINA RESULT:      -7.9      0.000      0.000
REMARK  Name = 
REMARK  7 active torsions:
REMARK  status: ('A' for Active; 'I' for Inactive)
REMARK    1  A    between atoms: C_5  and  S_6
REMARK    2  A    between atoms: S_6  and  C_7
REMARK    3  A    between atoms: C_7  and  C_8
REMARK    4  A    between atoms: C_11  and  C_12
REMARK    5  A    between atoms: N_14  and  C_15
REMARK    6  A    between atoms: C_20  and  C_21
REMARK    7  A    between atoms: N_23  and  C_24
REMARK                            x       y       z     vdW  Elec       q    Type
REMARK                         _______ _______ _______ _____ _____    ______ ____
ROOT
ATOM      1  C   UNL     1      38.283   4.133  15.820  0.00  0.00    +0.000 A 
ATOM      2  C   UNL     1      38.979   3.289  14.974  0.00  0.00    +0.000 A 
ATOM      3  C   UNL     1      38.555   1.987  14.775  0.00  0.00    +0.000 A 
ATOM      4  C   UNL     1      37.427   1.464  15.404  0.00  0.00    +0.000 A 
ATOM      5  C   UNL     1      36.752   2.324  16.239  0.00  0.00    +0.000 A 
ATOM      6  C   UNL     1      37.161   3.621  16.447  0.00  0.00    +0.000 A 
ENDROOT
BRANCH   4   7
ATOM      7  C   UNL     1      37.002   0.087  15.196  0.00  0.00    +0.000 C 
ATOM      8  O   UNL     1      36.668  -0.251  14.011  0.00  0.00    +0.000 OA
ATOM      9  N   UNL     1      36.922  -0.909  16.170  0.00  0.00    +0.000 NA
BRANCH   9  10
ATOM     10  C   UNL     1      36.497  -2.254  15.897  0.00  0.00    +0.000 A 
ATOM     11  C   UNL     1      35.143  -2.466  15.915  0.00  0.00    +0.000 A 
ATOM     12  C   UNL     1      34.592  -3.686  15.666  0.00  0.00    +0.000 A 
ATOM     13  C   UNL     1      35.446  -4.736  15.388  0.00  0.00    +0.000 A 
ATOM     14  C   UNL     1      36.816  -4.510  15.375  0.00  0.00    +0.000 A 
ATOM     15  C   UNL     1      37.358  -3.269  15.629  0.00  0.00    +0.000 A 
BRANCH  15  16
ATOM     16  C   UNL     1      38.772  -3.038  15.609  0.00  0.00    +0.000 C 
ATOM     17  O   UNL     1      39.451  -3.290  16.645  0.00  0.00    +0.000 OA
ATOM     18  N   UNL     1      39.451  -2.534  14.464  0.00  0.00    +0.000 NA
BRANCH  18  19
ATOM     19  C   UNL     1      40.882  -2.327  14.516  0.00  0.00    +0.000 C 
ATOM     20  C   UNL     1      41.577  -3.043  13.381  0.00  0.00    +0.000 C 
ATOM     21  C   UNL     1      41.127  -0.842  14.339  0.00  0.00    +0.000 C 
ENDBRANCH  18  19
ENDBRANCH  15  16
ENDBRANCH   9  10
ENDBRANCH   4   7
BRANCH   1  22
ATOM     22  C   UNL     1      38.768   5.526  15.997  0.00  0.00    +0.000 C 
BRANCH  22  23
ATOM     23  S   UNL     1      38.560   6.123  17.672  0.00  0.00    +0.000 S 
BRANCH  23  28
ATOM     24  C   UNL     1      43.983   6.716  20.278  0.00  0.00    +0.000 C 
ATOM     25  C   UNL     1      42.674   6.582  19.598  0.00  0.00    +0.000 A 
ATOM     26  C   UNL     1      42.528   6.600  18.232  0.00  0.00    +0.000 A 
ATOM     27  C   UNL     1      41.305   6.469  17.631  0.00  0.00    +0.000 A 
ATOM     28  C   UNL     1      40.188   6.315  18.413  0.00  0.00    +0.000 A 
ATOM     29  C   UNL     1      40.325   6.297  19.771  0.00  0.00    +0.000 A 
ATOM     30  C   UNL     1      41.548   6.427  20.382  0.00  0.00    +0.000 A 
ENDBRANCH  23  28
ENDBRANCH  22  23
ENDBRANCH   1  22
TORSDOF 7
ENDMDL
MODEL 2
REMARK VINA RESULT:      -7.8      3.929      6.514
REMARK  Name = 
REMARK  7 active torsions:
REMARK  status: ('A' for Active; 'I' for Inactive)
REMARK    1  A    between atoms: C_5  and  S_6
REMARK    2  A    between atoms: S_6  and  C_7
REMARK    3  A    between atoms: C_7  and  C_8
REMARK    4  A    between atoms: C_11  and  C_12
REMARK    5  A    between atoms: N_14  and  C_15
REMARK    6  A    between atoms: C_20  and  C_21
REMARK    7  A    between atoms: N_23  and  C_24
REMARK                            x       y       z     vdW  Elec       q    Type
REMARK                         _______ _______ _______ _____ _____    ______ ____
ROOT
ATOM      1  C   UNL     1      42.728  -0.708  13.924  0.00  0.00    +0.000 A 
ATOM      2  C   UNL     1      42.177  -1.901  14.354  0.00  0.00    +0.000 A 
ATOM      3  C   UNL     1      40.841  -1.971  14.705  0.00  0.00    +0.000 A 
ATOM      4  C   UNL     1      39.993  -0.866  14.647  0.00  0.00    +0.000 A 
ATOM      5  C   UNL     1      40.567   0.308  14.216  0.00  0.00    +0.000 A 
ATOM      6  C   UNL     1      41.894   0.394  13.863  0.00  0.00    +0.000 A 
ENDROOT
BRANCH   4   7
ATOM      7  C   UNL     1      38.593  -0.951  15.034  0.00  0.00    +0.000 C 
ATOM      8  O   UNL     1      37.732  -1.073  14.099  0.00  0.00    +0.000 OA
ATOM      9  N   UNL     1      38.091  -0.913  16.336  0.00  0.00    +0.000 NA
BRANCH   9  10
ATOM     10  C   UNL     1      36.693  -1.006  16.651  0.00  0.00    +0.000 A 
ATOM     11  C   UNL     1      36.190  -2.277  16.762  0.00  0.00    +0.000 A 
ATOM     12  C   UNL     1      34.886  -2.522  17.065  0.00  0.00    +0.000 A 
ATOM     13  C   UNL     1      34.053  -1.437  17.262  0.00  0.00    +0.000 A 
ATOM     14  C   UNL     1      34.572  -0.155  17.144  0.00  0.00    +0.000 A 
ATOM     15  C   UNL     1      35.896   0.076  16.838  0.00  0.00    +0.000 A 
BRANCH  15  16
ATOM     16  C   UNL     1      36.430   1.402  16.723  0.00  0.00    +0.000 C 
ATOM     17  O   UNL     1      36.772   2.020  17.771  0.00  0.00    +0.000 OA
ATOM     18  N   UNL     1      36.594   2.057  15.470  0.00  0.00    +0.000 NA
BRANCH  18  19
ATOM     19  C   UNL     1      37.141   3.395  15.431  0.00  0.00    +0.000 C 
ATOM     20  C   UNL     1      38.607   3.373  15.061  0.00  0.00    +0.000 C 
ATOM     21  C   UNL     1      36.406   4.149  14.341  0.00  0.00    +0.000 C 
ENDBRANCH  18  19
ENDBRANCH  15  16
ENDBRANCH   9  10
ENDBRANCH   4   7
BRANCH   1  22
ATOM     22  C   UNL     1      44.166  -0.681  13.548  0.00  0.00    +0.000 C 
BRANCH  22  23
ATOM     23  S   UNL     1      45.081  -2.070  14.209  0.00  0.00    +0.000 S 
BRANCH  23  28
ATOM     24  C   UNL     1      46.626  -0.654  19.879  0.00  0.00    +0.000 C 
ATOM     25  C   UNL     1      46.267  -1.043  18.496  0.00  0.00    +0.000 A 
ATOM     26  C   UNL     1      46.395  -2.324  18.016  0.00  0.00    +0.000 A 
ATOM     27  C   UNL     1      46.051  -2.656  16.733  0.00  0.00    +0.000 A 
ATOM     28  C   UNL     1      45.562  -1.682  15.898  0.00  0.00    +0.000 A 
ATOM     29  C   UNL     1      45.433  -0.408  16.368  0.00  0.00    +0.000 A 
ATOM     30  C   UNL     1      45.776  -0.066  17.653  0.00  0.00    +0.000 A 
ENDBRANCH  23  28
ENDBRANCH  22  23
ENDBRANCH   1  22
TORSDOF 7
ENDMDL
MODEL 3
REMARK VINA RESULT:      -7.7      1.699      2.397
REMARK  Name = 
REMARK  7 active torsions:
REMARK  status: ('A' for Active; 'I' for Inactive)
REMARK    1  A    between atoms: C_5  and  S_6
REMARK    2  A    between atoms: S_6  and  C_7
REMARK    3  A    between atoms: C_7  and  C_8
REMARK    4  A    between atoms: C_11  and  C_12
REMARK    5  A    between atoms: N_14  and  C_15
REMARK    6  A    between atoms: C_20  and  C_21
REMARK    7  A    between atoms: N_23  and  C_24
REMARK                            x       y       z     vdW  Elec       q    Type
REMARK                         _______ _______ _______ _____ _____    ______ ____
ROOT
ATOM      1  C   UNL     1      38.006   5.963  15.569  0.00  0.00    +0.000 A 
ATOM      2  C   UNL     1      37.087   5.591  14.606  0.00  0.00    +0.000 A 
ATOM      3  C   UNL     1      36.501   4.338  14.641  0.00  0.00    +0.000 A 
ATOM      4  C   UNL     1      36.796   3.401  15.629  0.00  0.00    +0.000 A 
ATOM      5  C   UNL     1      37.713   3.797  16.576  0.00  0.00    +0.000 A 
ATOM      6  C   UNL     1      38.305   5.039  16.554  0.00  0.00    +0.000 A 
ENDROOT
BRANCH   4   7
ATOM      7  C   UNL     1      36.182   2.082  15.644  0.00  0.00    +0.000 C 
ATOM      8  O   UNL     1      35.222   1.872  14.829  0.00  0.00    +0.000 OA
ATOM      9  N   UNL     1      36.539   1.013  16.468  0.00  0.00    +0.000 NA
BRANCH   9  10
ATOM     10  C   UNL     1      35.892  -0.268  16.430  0.00  0.00    +0.000 A 
ATOM     11  C   UNL     1      34.814  -0.417  17.264  0.00  0.00    +0.000 A 
ATOM     12  C   UNL     1      34.097  -1.572  17.330  0.00  0.00    +0.000 A 
ATOM     13  C   UNL     1      34.486  -2.622  16.520  0.00  0.00    +0.000 A 
ATOM     14  C   UNL     1      35.580  -2.461  15.681  0.00  0.00    +0.000 A 
ATOM     15  C   UNL     1      36.296  -1.284  15.625  0.00  0.00    +0.000 A 
BRANCH  15  16
ATOM     16  C   UNL     1      37.422  -1.119  14.753  0.00  0.00    +0.000 C 
ATOM     17  O   UNL     1      37.222  -0.828  13.540  0.00  0.00    +0.000 OA
ATOM     18  N   UNL     1      38.765  -1.269  15.199  0.00  0.00    +0.000 NA
BRANCH  18  19
ATOM     19  C   UNL     1      39.852  -1.086  14.263  0.00  0.00    +0.000 C 
ATOM     20  C   UNL     1      40.439   0.303  14.376  0.00  0.00    +0.000 C 
ATOM     21  C   UNL     1      40.939  -2.074  14.638  0.00  0.00    +0.000 C 
ENDBRANCH  18  19
ENDBRANCH  15  16
ENDBRANCH   9  10
ENDBRANCH   4   7
BRANCH   1  22
ATOM     22  C   UNL     1      38.605   7.321  15.498  0.00  0.00    +0.000 C 
BRANCH  22  23
ATOM     23  S   UNL     1      38.465   8.221  17.039  0.00  0.00    +0.000 S 
BRANCH  23  28
ATOM     24  C   UNL     1      42.669   6.088  20.824  0.00  0.00    +0.000 C 
ATOM     25  C   UNL     1      41.606   6.600  19.929  0.00  0.00    +0.000 A 
ATOM     26  C   UNL     1      40.307   6.794  20.333  0.00  0.00    +0.000 A 
ATOM     27  C   UNL     1      39.346   7.274  19.485  0.00  0.00    +0.000 A 
ATOM     28  C   UNL     1      39.686   7.573  18.189  0.00  0.00    +0.000 A 
ATOM     29  C   UNL     1      40.974   7.383  17.780  0.00  0.00    +0.000 A 
ATOM     30  C   UNL     1      41.944   6.902  18.625  0.00  0.00    +0.000 A 
ENDBRANCH  23  28
ENDBRANCH  22  23
ENDBRANCH   1  22
TORSDOF 7
ENDMDL
MODEL 4
REMARK VINA RESULT:      -7.7      4.765      6.851
REMARK  Name = 
REMARK  7 active torsions:
REMARK  status: ('A' for Active; 'I' for Inactive)
REMARK    1  A    between atoms: C_5  and  S_6
REMARK    2  A    between atoms: S_6  and  C_7
REMARK    3  A    between atoms: C_7  and  C_8
REMARK    4  A    between atoms: C_11  and  C_12
REMARK    5  A    between atoms: N_14  and  C_15
REMARK    6  A    between atoms: C_20  and  C_21
REMARK    7  A    between atoms: N_23  and  C_24
REMARK                            x       y       z     vdW  Elec       q    Type
REMARK                         _______ _______ _______ _____ _____    ______ ____
ROOT
ATOM      1  C   UNL     1      42.405  -1.572  13.733  0.00  0.00    +0.000 A 
ATOM      2  C   UNL     1      42.390  -0.220  13.449  0.00  0.00    +0.000 A 
ATOM      3  C   UNL     1      41.292   0.556  13.779  0.00  0.00    +0.000 A 
ATOM      4  C   UNL     1      40.164   0.027  14.403  0.00  0.00    +0.000 A 
ATOM      5  C   UNL     1      40.205  -1.321  14.675  0.00  0.00    +0.000 A 
ATOM      6  C   UNL     1      41.289  -2.105  14.353  0.00  0.00    +0.000 A 
ENDROOT
BRANCH   4   7
ATOM      7  C   UNL     1      39.011   0.852  14.731  0.00  0.00    +0.000 C 
ATOM      8  O   UNL     1      39.235   1.980  15.285  0.00  0.00    +0.000 OA
ATOM      9  N   UNL     1      37.673   0.533  14.499  0.00  0.00    +0.000 NA
BRANCH   9  10
ATOM     10  C   UNL     1      36.579   1.396  14.844  0.00  0.00    +0.000 A 
ATOM     11  C   UNL     1      36.466   2.543  14.101  0.00  0.00    +0.000 A 
ATOM     12  C   UNL     1      35.475   3.452  14.307  0.00  0.00    +0.000 A 
ATOM     13  C   UNL     1      34.558   3.194  15.308  0.00  0.00    +0.000 A 
ATOM     14  C   UNL     1      34.683   2.031  16.057  0.00  0.00    +0.000 A 
ATOM     15  C   UNL     1      35.692   1.119  15.834  0.00  0.00    +0.000 A 
BRANCH  15  16
ATOM     16  C   UNL     1      35.815  -0.083  16.605  0.00  0.00    +0.000 C 
ATOM     17  O   UNL     1      34.842  -0.890  16.645  0.00  0.00    +0.000 OA
ATOM     18  N   UNL     1      36.994  -0.412  17.332  0.00  0.00    +0.000 NA
BRANCH  18  19
ATOM     19  C   UNL     1      37.046  -1.645  18.087  0.00  0.00    +0.000 C 
ATOM     20  C   UNL     1      38.398  -2.308  17.951  0.00  0.00    +0.000 C 
ATOM     21  C   UNL     1      36.857  -1.285  19.547  0.00  0.00    +0.000 C 
ENDBRANCH  18  19
ENDBRANCH  15  16
ENDBRANCH   9  10
ENDBRANCH   4   7
BRANCH   1  22
ATOM     22  C   UNL     1      43.608  -2.365  13.369  0.00  0.00    +0.000 C 
BRANCH  22  23
ATOM     23  S   UNL     1      45.132  -1.456  13.600  0.00  0.00    +0.000 S 
BRANCH  23  28
ATOM     24  C   UNL     1      46.358  -1.246  19.517  0.00  0.00    +0.000 C 
ATOM     25  C   UNL     1      46.038  -1.255  18.071  0.00  0.00    +0.000 A 
ATOM     26  C   UNL     1      45.588  -0.149  17.390  0.00  0.00    +0.000 A 
ATOM     27  C   UNL     1      45.305  -0.185  16.052  0.00  0.00    +0.000 A 
ATOM     28  C   UNL     1      45.475  -1.360  15.363  0.00  0.00    +0.000 A 
ATOM     29  C   UNL     1      45.921  -2.463  16.031  0.00  0.00    +0.000 A 
ATOM     30  C   UNL     1      46.207  -2.435  17.374  0.00  0.00    +0.000 A 
ENDBRANCH  23  28
ENDBRANCH  22  23
ENDBRANCH   1  22
TORSDOF 7
ENDMDL
MODEL 5
REMARK VINA RESULT:      -7.5      3.127      5.125
REMARK  Name = 
REMARK  7 active torsions:
REMARK  status: ('A' for Active; 'I' for Inactive)
REMARK    1  A    between atoms: C_5  and  S_6
REMARK    2  A    between atoms: S_6  and  C_7
REMARK    3  A    between atoms: C_7  and  C_8
REMARK    4  A    between atoms: C_11  and  C_12
REMARK    5  A    between atoms: N_14  and  C_15
REMARK    6  A    between atoms: C_20  and  C_21
REMARK    7  A    between atoms: N_23  and  C_24
REMARK                            x       y       z     vdW  Elec       q    Type
REMARK                         _______ _______ _______ _____ _____    ______ ____
ROOT
ATOM      1  C   UNL     1      39.999   6.293  18.641  0.00  0.00    +0.000 A 
ATOM      2  C   UNL     1      38.972   5.379  18.784  0.00  0.00    +0.000 A 
ATOM      3  C   UNL     1      38.555   4.616  17.707  0.00  0.00    +0.000 A 
ATOM      4  C   UNL     1      39.137   4.723  16.446  0.00  0.00    +0.000 A 
ATOM      5  C   UNL     1      40.157   5.639  16.331  0.00  0.00    +0.000 A 
ATOM      6  C   UNL     1      40.582   6.406  17.392  0.00  0.00    +0.000 A 
ENDROOT
BRANCH   4   7
ATOM      7  C   UNL     1      38.679   3.924  15.319  0.00  0.00    +0.000 C 
ATOM      8  O   UNL     1      38.120   4.541  14.351  0.00  0.00    +0.000 OA
ATOM      9  N   UNL     1      38.790   2.539  15.188  0.00  0.00    +0.000 NA
BRANCH   9  10
ATOM     10  C   UNL     1      38.319   1.809  14.044  0.00  0.00    +0.000 A 
ATOM     11  C   UNL     1      39.173   1.764  12.973  0.00  0.00    +0.000 A 
ATOM     12  C   UNL     1      38.867   1.103  11.823  0.00  0.00    +0.000 A 
ATOM     13  C   UNL     1      37.646   0.460  11.752  0.00  0.00    +0.000 A 
ATOM     14  C   UNL     1      36.788   0.514  12.842  0.00  0.00    +0.000 A 
ATOM     15  C   UNL     1      37.113   1.187  14.000  0.00  0.00    +0.000 A 
BRANCH  15  16
ATOM     16  C   UNL     1      36.227   1.236  15.126  0.00  0.00    +0.000 C 
ATOM     17  O   UNL     1      35.337   2.132  15.170  0.00  0.00    +0.000 OA
ATOM     18  N   UNL     1      36.306   0.311  16.204  0.00  0.00    +0.000 NA
BRANCH  18  19
ATOM     19  C   UNL     1      35.377   0.420  17.308  0.00  0.00    +0.000 C 
ATOM     20  C   UNL     1      34.404  -0.737  17.316  0.00  0.00    +0.000 C 
ATOM     21  C   UNL     1      36.188   0.345  18.586  0.00  0.00    +0.000 C 
ENDBRANCH  18  19
ENDBRANCH  15  16
ENDBRANCH   9  10
ENDBRANCH   4   7
BRANCH   1  22
ATOM     22  C   UNL     1      40.419   7.086  19.826  0.00  0.00    +0.000 C 
BRANCH  22  23
ATOM     23  S   UNL     1      41.958   7.963  19.561  0.00  0.00    +0.000 S 
BRANCH  23  28
ATOM     24  C   UNL     1      46.569   4.640  21.621  0.00  0.00    +0.000 C 
ATOM     25  C   UNL     1      45.411   5.432  21.148  0.00  0.00    +0.000 A 
ATOM     26  C   UNL     1      44.194   5.447  21.787  0.00  0.00    +0.000 A 
ATOM     27  C   UNL     1      43.142   6.194  21.328  0.00  0.00    +0.000 A 
ATOM     28  C   UNL     1      43.303   6.952  20.196  0.00  0.00    +0.000 A 
ATOM     29  C   UNL     1      44.508   6.942  19.555  0.00  0.00    +0.000 A 
ATOM     30  C   UNL     1      45.569   6.196  20.008  0.00  0.00    +0.000 A 
ENDBRANCH  23  28
ENDBRANCH  22  23
ENDBRANCH   1  22
TORSDOF 7
ENDMDL
MODEL 6
REMARK VINA RESULT:      -7.5      3.282      5.718
REMARK  Name = 
REMARK  7 active torsions:
REMARK  status: ('A' for Active; 'I' for Inactive)
REMARK    1  A    between atoms: C_5  and  S_6
REMARK    2  A    between atoms: S_6  and  C_7
REMARK    3  A    between atoms: C_7  and  C_8
REMARK    4  A    between atoms: C_11  and  C_12
REMARK    5  A    between atoms: N_14  and  C_15
REMARK    6  A    between atoms: C_20  and  C_21
REMARK    7  A    between atoms: N_23  and  C_24
REMARK                            x       y       z     vdW  Elec       q    Type
REMARK                         _______ _______ _______ _____ _____    ______ ____
ROOT
ATOM      1  C   UNL     1      40.189   6.169  18.743  0.00  0.00    +0.000 A 
ATOM      2  C   UNL     1      39.110   5.317  18.884  0.00  0.00    +0.000 A 
ATOM      3  C   UNL     1      38.615   4.624  17.794  0.00  0.00    +0.000 A 
ATOM      4  C   UNL     1      39.165   4.743  16.519  0.00  0.00    +0.000 A 
ATOM      5  C   UNL     1      40.238   5.597  16.406  0.00  0.00    +0.000 A 
ATOM      6  C   UNL     1      40.742   6.293  17.480  0.00  0.00    +0.000 A 
ENDROOT
BRANCH   4   7
ATOM      7  C   UNL     1      38.624   4.018  15.379  0.00  0.00    +0.000 C 
ATOM      8  O   UNL     1      37.971   4.691  14.512  0.00  0.00    +0.000 OA
ATOM      9  N   UNL     1      38.747   2.650  15.134  0.00  0.00    +0.000 NA
BRANCH   9  10
ATOM     10  C   UNL     1      38.191   1.996  13.983  0.00  0.00    +0.000 A 
ATOM     11  C   UNL     1      38.979   1.989  12.862  0.00  0.00    +0.000 A 
ATOM     12  C   UNL     1      38.589   1.400  11.698  0.00  0.00    +0.000 A 
ATOM     13  C   UNL     1      37.349   0.791  11.666  0.00  0.00    +0.000 A 
ATOM     14  C   UNL     1      36.557   0.806  12.807  0.00  0.00    +0.000 A 
ATOM     15  C   UNL     1      36.968   1.407  13.977  0.00  0.00    +0.000 A 
BRANCH  15  16
ATOM     16  C   UNL     1      36.150   1.415  15.155  0.00  0.00    +0.000 C 
ATOM     17  O   UNL     1      35.285   2.325  15.297  0.00  0.00    +0.000 OA
ATOM     18  N   UNL     1      36.271   0.434  16.179  0.00  0.00    +0.000 NA
BRANCH  18  19
ATOM     19  C   UNL     1      35.411   0.505  17.340  0.00  0.00    +0.000 C 
ATOM     20  C   UNL     1      34.411  -0.629  17.345  0.00  0.00    +0.000 C 
ATOM     21  C   UNL     1      36.292   0.343  18.562  0.00  0.00    +0.000 C 
ENDBRANCH  18  19
ENDBRANCH  15  16
ENDBRANCH   9  10
ENDBRANCH   4   7
BRANCH   1  22
ATOM     22  C   UNL     1      40.694   6.888  19.942  0.00  0.00    +0.000 C 
BRANCH  22  23
ATOM     23  S   UNL     1      40.463   8.660  19.835  0.00  0.00    +0.000 S 
BRANCH  23  28
ATOM     24  C   UNL     1      35.005   9.747  17.473  0.00  0.00    +0.000 C 
ATOM     25  C   UNL     1      36.321   9.471  18.093  0.00  0.00    +0.000 A 
ATOM     26  C   UNL     1      36.466   8.909  19.339  0.00  0.00    +0.000 A 
ATOM     27  C   UNL     1      37.697   8.661  19.885  0.00  0.00    +0.000 A 
ATOM     28  C   UNL     1      38.823   8.981  19.169  0.00  0.00    +0.000 A 
ATOM     29  C   UNL     1      38.688   9.539  17.931  0.00  0.00    +0.000 A 
ATOM     30  C   UNL     1      37.457   9.791  17.376  0.00  0.00    +0.000 A 
ENDBRANCH  23  28
ENDBRANCH  22  23
ENDBRANCH   1  22
TORSDOF 7
ENDMDL
MODEL 7
REMARK VINA RESULT:      -7.3      4.568     10.592
REMARK  Name = 
REMARK  7 active torsions:
REMARK  status: ('A' for Active; 'I' for Inactive)
REMARK    1  A    between atoms: C_5  and  S_6
REMARK    2  A    between atoms: S_6  and  C_7
REMARK    3  A    between atoms: C_7  and  C_8
REMARK    4  A    between atoms: C_11  and  C_12
REMARK    5  A    between atoms: N_14  and  C_15
REMARK    6  A    between atoms: C_20  and  C_21
REMARK    7  A    between atoms: N_23  and  C_24
REMARK                            x       y       z     vdW  Elec       q    Type
REMARK                         _______ _______ _______ _____ _____    ______ ____
ROOT
ATOM      1  C   UNL     1      38.231   4.442  15.805  0.00  0.00    +0.000 A 
ATOM      2  C   UNL     1      39.361   5.201  15.561  0.00  0.00    +0.000 A 
ATOM      3  C   UNL     1      40.082   5.745  16.609  0.00  0.00    +0.000 A 
ATOM      4  C   UNL     1      39.718   5.562  17.941  0.00  0.00    +0.000 A 
ATOM      5  C   UNL     1      38.590   4.803  18.157  0.00  0.00    +0.000 A 
ATOM      6  C   UNL     1      37.862   4.256  17.125  0.00  0.00    +0.000 A 
ENDROOT
BRANCH   4   7
ATOM      7  C   UNL     1      40.478   6.153  19.033  0.00  0.00    +0.000 C 
ATOM      8  O   UNL     1      39.829   6.510  20.073  0.00  0.00    +0.000 OA
ATOM      9  N   UNL     1      41.856   6.370  19.059  0.00  0.00    +0.000 NA
BRANCH   9  10
ATOM     10  C   UNL     1      42.547   6.955  20.173  0.00  0.00    +0.000 A 
ATOM     11  C   UNL     1      43.029   6.074  21.106  0.00  0.00    +0.000 A 
ATOM     12  C   UNL     1      43.712   6.481  22.211  0.00  0.00    +0.000 A 
ATOM     13  C   UNL     1      43.916   7.837  22.382  0.00  0.00    +0.000 A 
ATOM     14  C   UNL     1      43.421   8.721  21.432  0.00  0.00    +0.000 A 
ATOM     15  C   UNL     1      42.732   8.292  20.318  0.00  0.00    +0.000 A 
BRANCH  15  16
ATOM     16  C   UNL     1      42.227   9.207  19.337  0.00  0.00    +0.000 C 
ATOM     17  O   UNL     1      42.974   9.553  18.377  0.00  0.00    +0.000 OA
ATOM     18  N   UNL     1      40.911   9.746  19.396  0.00  0.00    +0.000 NA
BRANCH  18  19
ATOM     19  C   UNL     1      40.470  10.664  18.368  0.00  0.00    +0.000 C 
ATOM     20  C   UNL     1      39.118  10.261  17.824  0.00  0.00    +0.000 C 
ATOM     21  C   UNL     1      40.314  12.024  19.018  0.00  0.00    +0.000 C 
ENDBRANCH  18  19
ENDBRANCH  15  16
ENDBRANCH   9  10
ENDBRANCH   4   7
BRANCH   1  22
ATOM     22  C   UNL     1      37.492   3.870  14.649  0.00  0.00    +0.000 C 
BRANCH  22  23
ATOM     23  S   UNL     1      35.767   3.563  15.015  0.00  0.00    +0.000 S 
BRANCH  23  28
ATOM     24  C   UNL     1      35.316  -2.171  16.875  0.00  0.00    +0.000 C 
ATOM     25  C   UNL     1      35.393  -0.754  16.452  0.00  0.00    +0.000 A 
ATOM     26  C   UNL     1      34.797   0.274  17.142  0.00  0.00    +0.000 A 
ATOM     27  C   UNL     1      34.890   1.575  16.728  0.00  0.00    +0.000 A 
ATOM     28  C   UNL     1      35.601   1.867  15.591  0.00  0.00    +0.000 A 
ATOM     29  C   UNL     1      36.196   0.852  14.900  0.00  0.00    +0.000 A 
ATOM     30  C   UNL     1      36.107  -0.457  15.308  0.00  0.00    +0.000 A 
ENDBRANCH  23  28
ENDBRANCH  22  23
ENDBRANCH   1  22
TORSDOF 7
ENDMDL
MODEL 8
REMARK VINA RESULT:      -7.3      2.110      3.958
REMARK  Name = 
REMARK  7 active torsions:
REMARK  status: ('A' for Active; 'I' for Inactive)
REMARK    1  A    between atoms: C_5  and  S_6
REMARK    2  A    between atoms: S_6  and  C_7
REMARK    3  A    between atoms: C_7  and  C_8
REMARK    4  A    between atoms: C_11  and  C_12
REMARK    5  A    between atoms: N_14  and  C_15
REMARK    6  A    between atoms: C_20  and  C_21
REMARK    7  A    between atoms: N_23  and  C_24
REMARK                            x       y       z     vdW  Elec       q    Type
REMARK                         _______ _______ _______ _____ _____    ______ ____
ROOT
ATOM      1  C   UNL     1      38.228   6.325  14.579  0.00  0.00    +0.000 A 
ATOM      2  C   UNL     1      39.509   5.858  14.350  0.00  0.00    +0.000 A 
ATOM      3  C   UNL     1      39.744   4.505  14.177  0.00  0.00    +0.000 A 
ATOM      4  C   UNL     1      38.723   3.558  14.222  0.00  0.00    +0.000 A 
ATOM      5  C   UNL     1      37.458   4.049  14.450  0.00  0.00    +0.000 A 
ATOM      6  C   UNL     1      37.209   5.391  14.625  0.00  0.00    +0.000 A 
ENDROOT
BRANCH   4   7
ATOM      7  C   UNL     1      38.987   2.137  14.052  0.00  0.00    +0.000 C 
ATOM      8  O   UNL     1      38.722   1.623  12.913  0.00  0.00    +0.000 OA
ATOM      9  N   UNL     1      39.503   1.270  15.016  0.00  0.00    +0.000 NA
BRANCH   9  10
ATOM     10  C   UNL     1      39.744  -0.126  14.781  0.00  0.00    +0.000 A 
ATOM     11  C   UNL     1      40.983  -0.442  14.286  0.00  0.00    +0.000 A 
ATOM     12  C   UNL     1      41.358  -1.724  14.022  0.00  0.00    +0.000 A 
ATOM     13  C   UNL     1      40.443  -2.729  14.268  0.00  0.00    +0.000 A 
ATOM     14  C   UNL     1      39.190  -2.397  14.768  0.00  0.00    +0.000 A 
ATOM     15  C   UNL     1      38.826  -1.094  15.030  0.00  0.00    +0.000 A 
BRANCH  15  16
ATOM     16  C   UNL     1      37.534  -0.756  15.551  0.00  0.00    +0.000 C 
ATOM     17  O   UNL     1      36.594  -0.501  14.746  0.00  0.00    +0.000 OA
ATOM     18  N   UNL     1      37.262  -0.695  16.947  0.00  0.00    +0.000 NA
BRANCH  18  19
ATOM     19  C   UNL     1      35.933  -0.348  17.400  0.00  0.00    +0.000 C 
ATOM     20  C   UNL     1      35.055  -1.575  17.502  0.00  0.00    +0.000 C 
ATOM     21  C   UNL     1      36.072   0.233  18.793  0.00  0.00    +0.000 C 
ENDBRANCH  18  19
ENDBRANCH  15  16
ENDBRANCH   9  10
ENDBRANCH   4   7
BRANCH   1  22
ATOM     22  C   UNL     1      38.021   7.786  14.752  0.00  0.00    +0.000 C 
BRANCH  22  23
ATOM     23  S   UNL     1      37.456   8.216  16.396  0.00  0.00    +0.000 S 
BRANCH  23  28
ATOM     24  C   UNL     1      41.560   6.239  20.371  0.00  0.00    +0.000 C 
ATOM     25  C   UNL     1      40.575   6.766  19.398  0.00  0.00    +0.000 A 
ATOM     26  C   UNL     1      40.706   7.985  18.777  0.00  0.00    +0.000 A 
ATOM     27  C   UNL     1      39.782   8.444  17.878  0.00  0.00    +0.000 A 
ATOM     28  C   UNL     1      38.690   7.665  17.583  0.00  0.00    +0.000 A 
ATOM     29  C   UNL     1      38.554   6.453  18.195  0.00  0.00    +0.000 A 
ATOM     30  C   UNL     1      39.476   5.985  19.099  0.00  0.00    +0.000 A 
ENDBRANCH  23  28
ENDBRANCH  22  23
ENDBRANCH   1  22
TORSDOF 7
ENDMDL
MODEL 9
REMARK VINA RESULT:      -7.2      4.517      6.852
REMARK  Name = 
REMARK  7 active torsions:
REMARK  status: ('A' for Active; 'I' for Inactive)
REMARK    1  A    between atoms: C_5  and  S_6
REMARK    2  A    between atoms: S_6  and  C_7
REMARK    3  A    between atoms: C_7  and  C_8
REMARK    4  A    between atoms: C_11  and  C_12
REMARK    5  A    between atoms: N_14  and  C_15
REMARK    6  A    between atoms: C_20  and  C_21
REMARK    7  A    between atoms: N_23  and  C_24
REMARK                            x       y       z     vdW  Elec       q    Type
REMARK                         _______ _______ _______ _____ _____    ______ ____
ROOT
ATOM      1  C   UNL     1      35.233   4.457  14.296  0.00  0.00    +0.000 A 
ATOM      2  C   UNL     1      36.399   4.409  13.555  0.00  0.00    +0.000 A 
ATOM      3  C   UNL     1      37.169   3.260  13.530  0.00  0.00    +0.000 A 
ATOM      4  C   UNL     1      36.819   2.110  14.235  0.00  0.00    +0.000 A 
ATOM      5  C   UNL     1      35.654   2.184  14.964  0.00  0.00    +0.000 A 
ATOM      6  C   UNL     1      34.878   3.319  14.999  0.00  0.00    +0.000 A 
ENDROOT
BRANCH   4   7
ATOM      7  C   UNL     1      37.647   0.913  14.211  0.00  0.00    +0.000 C 
ATOM      8  O   UNL     1      37.399   0.047  13.306  0.00  0.00    +0.000 OA
ATOM      9  N   UNL     1      38.693   0.613  15.085  0.00  0.00    +0.000 NA
BRANCH   9  10
ATOM     10  C   UNL     1      39.476  -0.588  15.003  0.00  0.00    +0.000 A 
ATOM     11  C   UNL     1      40.574  -0.530  14.184  0.00  0.00    +0.000 A 
ATOM     12  C   UNL     1      41.414  -1.587  14.014  0.00  0.00    +0.000 A 
ATOM     13  C   UNL     1      41.133  -2.754  14.700  0.00  0.00    +0.000 A 
ATOM     14  C   UNL     1      40.017  -2.802  15.525  0.00  0.00    +0.000 A 
ATOM     15  C   UNL     1      39.176  -1.722  15.687  0.00  0.00    +0.000 A 
BRANCH  15  16
ATOM     16  C   UNL     1      38.028  -1.774  16.544  0.00  0.00    +0.000 C 
ATOM     17  O   UNL     1      36.926  -2.173  16.072  0.00  0.00    +0.000 OA
ATOM     18  N   UNL     1      38.077  -1.393  17.914  0.00  0.00    +0.000 NA
BRANCH  18  19
ATOM     19  C   UNL     1      36.878  -1.473  18.720  0.00  0.00    +0.000 C 
ATOM     20  C   UNL     1      37.178  -2.044  20.087  0.00  0.00    +0.000 C 
ATOM     21  C   UNL     1      36.374  -0.057  18.916  0.00  0.00    +0.000 C 
ENDBRANCH  18  19
ENDBRANCH  15  16
ENDBRANCH   9  10
ENDBRANCH   4   7
BRANCH   1  22
ATOM     22  C   UNL     1      34.432   5.709  14.288  0.00  0.00    +0.000 C 
BRANCH  22  23
ATOM     23  S   UNL     1      35.314   7.089  13.565  0.00  0.00    +0.000 S 
BRANCH  23  28
ATOM     24  C   UNL     1      34.344   7.044   7.598  0.00  0.00    +0.000 C 
ATOM     25  C   UNL     1      34.625   7.038   9.052  0.00  0.00    +0.000 A 
ATOM     26  C   UNL     1      35.878   6.831   9.578  0.00  0.00    +0.000 A 
ATOM     27  C   UNL     1      36.109   6.836  10.927  0.00  0.00    +0.000 A 
ATOM     28  C   UNL     1      35.060   7.056  11.785  0.00  0.00    +0.000 A 
ATOM     29  C   UNL     1      33.813   7.263  11.270  0.00  0.00    +0.000 A 
ATOM     30  C   UNL     1      33.573   7.259   9.918  0.00  0.00    +0.000 A 
ENDBRANCH  23  28
ENDBRANCH  22  23
ENDBRANCH   1  22
TORSDOF 7
ENDMDL
MODEL 10
REMARK VINA RESULT:      -7.1      3.690      6.976
REMARK  Name = 
REMARK  7 active torsions:
REMARK  status: ('A' for Active; 'I' for Inactive)
REMARK    1  A    between atoms: C_5  and  S_6
REMARK    2  A    between atoms: S_6  and  C_7
REMARK    3  A    between atoms: C_7  and  C_8
REMARK    4  A    between atoms: C_11  and  C_12
REMARK    5  A    between atoms: N_14  and  C_15
REMARK    6  A    between atoms: C_20  and  C_21
REMARK    7  A    between atoms: N_23  and  C_24
REMARK                            x       y       z     vdW  Elec       q    Type
REMARK                         _______ _______ _______ _____ _____    ______ ____
ROOT
ATOM      1  C   UNL     1      41.091  -2.317  11.219  0.00  0.00    +0.000 A 
ATOM      2  C   UNL     1      40.174  -1.287  11.134  0.00  0.00    +0.000 A 
ATOM      3  C   UNL     1      39.280  -1.054  12.164  0.00  0.00    +0.000 A 
ATOM      4  C   UNL     1      39.255  -1.830  13.321  0.00  0.00    +0.000 A 
ATOM      5  C   UNL     1      40.178  -2.848  13.381  0.00  0.00    +0.000 A 
ATOM      6  C   UNL     1      41.073  -3.092  12.365  0.00  0.00    +0.000 A 
ENDROOT
BRANCH   4   7
ATOM      7  C   UNL     1      38.299  -1.582  14.390  0.00  0.00    +0.000 C 
ATOM      8  O   UNL     1      38.750  -1.549  15.584  0.00  0.00    +0.000 OA
ATOM      9  N   UNL     1      36.927  -1.376  14.242  0.00  0.00    +0.000 NA
BRANCH   9  10
ATOM     10  C   UNL     1      36.037  -1.132  15.342  0.00  0.00    +0.000 A 
ATOM     11  C   UNL     1      35.459  -2.244  15.899  0.00  0.00    +0.000 A 
ATOM     12  C   UNL     1      34.601  -2.170  16.954  0.00  0.00    +0.000 A 
ATOM     13  C   UNL     1      34.313  -0.919  17.467  0.00  0.00    +0.000 A 
ATOM     14  C   UNL     1      34.903   0.200  16.893  0.00  0.00    +0.000 A 
ATOM     15  C   UNL     1      35.770   0.108  15.826  0.00  0.00    +0.000 A 
BRANCH  15  16
ATOM     16  C   UNL     1      36.381   1.265  15.240  0.00  0.00    +0.000 C 
ATOM     17  O   UNL     1      35.798   1.850  14.283  0.00  0.00    +0.000 OA
ATOM     18  N   UNL     1      37.624   1.788  15.695  0.00  0.00    +0.000 NA
BRANCH  18  19
ATOM     19  C   UNL     1      38.180   2.961  15.056  0.00  0.00    +0.000 C 
ATOM     20  C   UNL     1      38.524   4.024  16.075  0.00  0.00    +0.000 C 
ATOM     21  C   UNL     1      39.471   2.537  14.384  0.00  0.00    +0.000 C 
ENDBRANCH  18  19
ENDBRANCH  15  16
ENDBRANCH   9  10
ENDBRANCH   4   7
BRANCH   1  22
ATOM     22  C   UNL     1      42.038  -2.526  10.093  0.00  0.00    +0.000 C 
BRANCH  22  23
ATOM     23  S   UNL     1      43.398  -1.362  10.108  0.00  0.00    +0.000 S 
BRANCH  23  28
ATOM     24  C   UNL     1      44.954  -0.292  15.851  0.00  0.00    +0.000 C 
ATOM     25  C   UNL     1      44.543  -0.517  14.447  0.00  0.00    +0.000 A 
ATOM     26  C   UNL     1      43.767   0.366  13.736  0.00  0.00    +0.000 A 
ATOM     27  C   UNL     1      43.406   0.133  12.436  0.00  0.00    +0.000 A 
ATOM     28  C   UNL     1      43.831  -1.017  11.820  0.00  0.00    +0.000 A 
ATOM     29  C   UNL     1      44.602  -1.900  12.519  0.00  0.00    +0.000 A 
ATOM     30  C   UNL     1      44.968  -1.674  13.823  0.00  0.00    +0.000 A 
ENDBRANCH  23  28
ENDBRANCH  22  23
ENDBRANCH   1  22
TORSDOF 7
ENDMDL
