MODEL 1
REMARK VINA RESULT:      -6.2      0.000      0.000
REMARK  Name = 
REMARK  6 active torsions:
REMARK  status: ('A' for Active; 'I' for Inactive)
REMARK    1  A    between atoms: O_2  and  C_3
REMARK    2  A    between atoms: C_6  and  C_7
REMARK    3  A    between atoms: C_7  and  N_9
REMARK    4  A    between atoms: C_10  and  C_12
REMARK    5  A    between atoms: C_12  and  N_13
REMARK    6  A    between atoms: C_17  and  C_18
REMARK                            x       y       z     vdW  Elec       q    Type
REMARK                         _______ _______ _______ _____ _____    ______ ____
ROOT
ATOM      1  N   UNL     1      28.059  22.648  27.620  0.00  0.00    +0.000 NA
ATOM      2  C   UNL     1      27.532  23.410  26.560  0.00  0.00    +0.000 C 
ATOM      3  O   UNL     1      27.238  24.605  26.819  0.00  0.00    +0.000 OA
ENDROOT
BRANCH   1   4
ATOM      4  C   UNL     1      28.193  23.449  28.982  0.00  0.00    +0.000 C 
ATOM      5  C   UNL     1      27.312  22.305  29.829  0.00  0.00    +0.000 C 
BRANCH   4   9
ATOM      6  C   UNL     1      32.088  21.823  29.908  0.00  0.00    +0.000 A 
ATOM      7  C   UNL     1      31.737  22.088  28.611  0.00  0.00    +0.000 A 
ATOM      8  C   UNL     1      30.448  22.620  28.367  0.00  0.00    +0.000 A 
ATOM      9  C   UNL     1      29.593  22.858  29.392  0.00  0.00    +0.000 A 
ATOM     10  C   UNL     1      29.928  22.601  30.663  0.00  0.00    +0.000 A 
ATOM     11  C   UNL     1      31.209  22.072  30.909  0.00  0.00    +0.000 A 
BRANCH   6  13
ATOM     12  C   UNL     1      33.857  20.986  31.407  0.00  0.00    +0.000 C 
ATOM     13  O   UNL     1      33.367  21.298  30.119  0.00  0.00    +0.000 OA
ENDBRANCH   6  13
ENDBRANCH   4   9
ENDBRANCH   1   4
BRANCH   2  14
ATOM     14  C   UNL     1      27.302  22.912  25.188  0.00  0.00    +0.000 C 
BRANCH  14  15
ATOM     15  N   UNL     1      27.547  23.911  24.166  0.00  0.00    +0.000 NA
ATOM     16  C   UNL     1      26.426  23.794  23.234  0.00  0.00    +0.000 C 
ATOM     17  C   UNL     1      26.990  24.039  21.867  0.00  0.00    +0.000 C 
ATOM     18  C   UNL     1      28.483  24.169  22.029  0.00  0.00    +0.000 C 
ATOM     19  C   UNL     1      28.624  23.072  23.299  0.00  0.00    +0.000 C 
BRANCH  19  20
ATOM     20  C   UNL     1      29.901  23.803  23.961  0.00  0.00    +0.000 A 
ATOM     21  C   UNL     1      30.858  22.971  24.462  0.00  0.00    +0.000 A 
ATOM     22  C   UNL     1      31.975  23.571  25.042  0.00  0.00    +0.000 A 
ATOM     23  C   UNL     1      32.041  24.936  25.074  0.00  0.00    +0.000 A 
ATOM     24  N   UNL     1      31.075  25.684  24.568  0.00  0.00    +0.000 NA
ATOM     25  C   UNL     1      30.006  25.117  24.013  0.00  0.00    +0.000 A 
ENDBRANCH  19  20
ENDBRANCH  14  15
ENDBRANCH   2  14
TORSDOF 6
ENDMDL
MODEL 2
REMARK VINA RESULT:      -5.9     26.130     29.003
REMARK  Name = 
REMARK  6 active torsions:
REMARK  status: ('A' for Active; 'I' for Inactive)
REMARK    1  A    between atoms: O_2  and  C_3
REMARK    2  A    between atoms: C_6  and  C_7
REMARK    3  A    between atoms: C_7  and  N_9
REMARK    4  A    between atoms: C_10  and  C_12
REMARK    5  A    between atoms: C_12  and  N_13
REMARK    6  A    between atoms: C_17  and  C_18
REMARK                            x       y       z     vdW  Elec       q    Type
REMARK                         _______ _______ _______ _____ _____    ______ ____
ROOT
ATOM      1  N   UNL     1      32.882  -4.638  33.301  0.00  0.00    +0.000 NA
ATOM      2  C   UNL     1      32.004  -5.655  32.882  0.00  0.00    +0.000 C 
ATOM      3  O   UNL     1      31.212  -6.107  33.749  0.00  0.00    +0.000 OA
ENDROOT
BRANCH   1   4
ATOM      4  C   UNL     1      32.716  -4.234  34.826  0.00  0.00    +0.000 C 
ATOM      5  C   UNL     1      34.346  -4.446  35.138  0.00  0.00    +0.000 C 
BRANCH   4   9
ATOM      6  C   UNL     1      33.180  -0.004  34.079  0.00  0.00    +0.000 A 
ATOM      7  C   UNL     1      33.937  -0.916  33.393  0.00  0.00    +0.000 A 
ATOM      8  C   UNL     1      33.742  -2.289  33.678  0.00  0.00    +0.000 A 
ATOM      9  C   UNL     1      32.832  -2.680  34.604  0.00  0.00    +0.000 A 
ATOM     10  C   UNL     1      32.088  -1.793  35.280  0.00  0.00    +0.000 A 
ATOM     11  C   UNL     1      32.280  -0.428  34.998  0.00  0.00    +0.000 A 
BRANCH   6  13
ATOM     12  C   UNL     1      33.928   1.770  32.537  0.00  0.00    +0.000 C 
ATOM     13  O   UNL     1      33.394   1.345  33.775  0.00  0.00    +0.000 OA
ENDBRANCH   6  13
ENDBRANCH   4   9
ENDBRANCH   1   4
BRANCH   2  14
ATOM     14  C   UNL     1      31.947  -6.219  31.517  0.00  0.00    +0.000 C 
BRANCH  14  15
ATOM     15  N   UNL     1      33.095  -5.869  30.704  0.00  0.00    +0.000 NA
ATOM     16  C   UNL     1      32.564  -5.656  29.357  0.00  0.00    +0.000 C 
ATOM     17  C   UNL     1      33.603  -6.178  28.410  0.00  0.00    +0.000 C 
ATOM     18  C   UNL     1      34.681  -6.811  29.252  0.00  0.00    +0.000 C 
ATOM     19  C   UNL     1      33.658  -7.367  30.469  0.00  0.00    +0.000 C 
BRANCH  19  20
ATOM     20  C   UNL     1      34.770  -7.257  31.633  0.00  0.00    +0.000 A 
ATOM     21  C   UNL     1      34.771  -8.276  32.540  0.00  0.00    +0.000 A 
ATOM     22  C   UNL     1      35.719  -8.210  33.560  0.00  0.00    +0.000 A 
ATOM     23  C   UNL     1      36.576  -7.145  33.590  0.00  0.00    +0.000 A 
ATOM     24  N   UNL     1      36.519  -6.191  32.677  0.00  0.00    +0.000 NA
ATOM     25  C   UNL     1      35.616  -6.247  31.699  0.00  0.00    +0.000 A 
ENDBRANCH  19  20
ENDBRANCH  14  15
ENDBRANCH   2  14
TORSDOF 6
ENDMDL
MODEL 3
REMARK VINA RESULT:      -5.9      2.107      3.287
REMARK  Name = 
REMARK  6 active torsions:
REMARK  status: ('A' for Active; 'I' for Inactive)
REMARK    1  A    between atoms: O_2  and  C_3
REMARK    2  A    between atoms: C_6  and  C_7
REMARK    3  A    between atoms: C_7  and  N_9
REMARK    4  A    between atoms: C_10  and  C_12
REMARK    5  A    between atoms: C_12  and  N_13
REMARK    6  A    between atoms: C_17  and  C_18
REMARK                            x       y       z     vdW  Elec       q    Type
REMARK                         _______ _______ _______ _____ _____    ______ ____
ROOT
ATOM      1  N   UNL     1      30.104  23.032  27.231  0.00  0.00    +0.000 NA
ATOM      2  C   UNL     1      29.591  22.644  25.979  0.00  0.00    +0.000 C 
ATOM      3  O   UNL     1      30.432  22.305  25.107  0.00  0.00    +0.000 OA
ENDROOT
BRANCH   1   4
ATOM      4  C   UNL     1      31.687  22.972  27.322  0.00  0.00    +0.000 C 
ATOM      5  C   UNL     1      31.797  24.581  27.769  0.00  0.00    +0.000 C 
BRANCH   4   9
ATOM      6  C   UNL     1      31.690  21.576  31.412  0.00  0.00    +0.000 A 
ATOM      7  C   UNL     1      30.665  22.355  30.945  0.00  0.00    +0.000 A 
ATOM      8  C   UNL     1      30.716  22.783  29.597  0.00  0.00    +0.000 A 
ATOM      9  C   UNL     1      31.752  22.428  28.798  0.00  0.00    +0.000 A 
ATOM     10  C   UNL     1      32.760  21.667  29.247  0.00  0.00    +0.000 A 
ATOM     11  C   UNL     1      32.711  21.240  30.587  0.00  0.00    +0.000 A 
BRANCH   6  13
ATOM     12  C   UNL     1      30.456  21.365  33.536  0.00  0.00    +0.000 C 
ATOM     13  O   UNL     1      31.612  21.168  32.748  0.00  0.00    +0.000 OA
ENDBRANCH   6  13
ENDBRANCH   4   9
ENDBRANCH   1   4
BRANCH   2  14
ATOM     14  C   UNL     1      28.157  22.608  25.623  0.00  0.00    +0.000 C 
BRANCH  14  15
ATOM     15  N   UNL     1      27.566  23.926  25.490  0.00  0.00    +0.000 NA
ATOM     16  C   UNL     1      26.480  23.963  26.468  0.00  0.00    +0.000 C 
ATOM     17  C   UNL     1      25.374  24.754  25.837  0.00  0.00    +0.000 C 
ATOM     18  C   UNL     1      25.806  25.056  24.425  0.00  0.00    +0.000 C 
ATOM     19  C   UNL     1      26.658  23.624  24.186  0.00  0.00    +0.000 C 
BRANCH  19  20
ATOM     20  C   UNL     1      27.716  24.273  23.155  0.00  0.00    +0.000 A 
ATOM     21  C   UNL     1      27.936  25.611  23.307  0.00  0.00    +0.000 A 
ATOM     22  C   UNL     1      28.844  26.203  22.430  0.00  0.00    +0.000 A 
ATOM     23  C   UNL     1      29.449  25.421  21.487  0.00  0.00    +0.000 A 
ATOM     24  N   UNL     1      29.189  24.128  21.396  0.00  0.00    +0.000 NA
ATOM     25  C   UNL     1      28.323  23.555  22.230  0.00  0.00    +0.000 A 
ENDBRANCH  19  20
ENDBRANCH  14  15
ENDBRANCH   2  14
TORSDOF 6
ENDMDL
MODEL 4
REMARK VINA RESULT:      -5.7      2.286      6.408
REMARK  Name = 
REMARK  6 active torsions:
REMARK  status: ('A' for Active; 'I' for Inactive)
REMARK    1  A    between atoms: O_2  and  C_3
REMARK    2  A    between atoms: C_6  and  C_7
REMARK    3  A    between atoms: C_7  and  N_9
REMARK    4  A    between atoms: C_10  and  C_12
REMARK    5  A    between atoms: C_12  and  N_13
REMARK    6  A    between atoms: C_17  and  C_18
REMARK                            x       y       z     vdW  Elec       q    Type
REMARK                         _______ _______ _______ _____ _____    ______ ____
ROOT
ATOM      1  N   UNL     1      27.801  24.680  28.974  0.00  0.00    +0.000 NA
ATOM      2  C   UNL     1      28.309  23.920  30.045  0.00  0.00    +0.000 C 
ATOM      3  O   UNL     1      27.472  23.260  30.713  0.00  0.00    +0.000 OA
ENDROOT
BRANCH   1   4
ATOM      4  C   UNL     1      26.229  24.567  28.796  0.00  0.00    +0.000 C 
ATOM      5  C   UNL     1      26.082  26.185  28.394  0.00  0.00    +0.000 C 
BRANCH   4   9
ATOM      6  C   UNL     1      26.184  23.351  24.650  0.00  0.00    +0.000 A 
ATOM      7  C   UNL     1      25.433  24.418  25.069  0.00  0.00    +0.000 A 
ATOM      8  C   UNL     1      25.487  24.771  26.438  0.00  0.00    +0.000 A 
ATOM      9  C   UNL     1      26.261  24.070  27.303  0.00  0.00    +0.000 A 
ATOM     10  C   UNL     1      26.998  23.025  26.901  0.00  0.00    +0.000 A 
ATOM     11  C   UNL     1      26.946  22.672  25.540  0.00  0.00    +0.000 A 
BRANCH   6  13
ATOM     12  C   UNL     1      26.704  23.823  22.286  0.00  0.00    +0.000 C 
ATOM     13  O   UNL     1      26.111  23.026  23.291  0.00  0.00    +0.000 OA
ENDBRANCH   6  13
ENDBRANCH   4   9
ENDBRANCH   1   4
BRANCH   2  14
ATOM     14  C   UNL     1      29.733  23.846  30.433  0.00  0.00    +0.000 C 
BRANCH  14  15
ATOM     15  N   UNL     1      30.358  22.586  30.082  0.00  0.00    +0.000 NA
ATOM     16  C   UNL     1      30.757  21.984  31.354  0.00  0.00    +0.000 C 
ATOM     17  C   UNL     1      32.061  21.290  31.099  0.00  0.00    +0.000 C 
ATOM     18  C   UNL     1      32.461  21.620  29.684  0.00  0.00    +0.000 C 
ATOM     19  C   UNL     1      31.808  23.172  29.669  0.00  0.00    +0.000 C 
BRANCH  19  20
ATOM     20  C   UNL     1      31.490  23.164  28.087  0.00  0.00    +0.000 A 
ATOM     21  C   UNL     1      30.732  22.117  27.648  0.00  0.00    +0.000 A 
ATOM     22  C   UNL     1      30.440  22.080  26.285  0.00  0.00    +0.000 A 
ATOM     23  C   UNL     1      30.923  23.076  25.484  0.00  0.00    +0.000 A 
ATOM     24  N   UNL     1      31.652  24.062  25.978  0.00  0.00    +0.000 NA
ATOM     25  C   UNL     1      31.936  24.105  27.278  0.00  0.00    +0.000 A 
ENDBRANCH  19  20
ENDBRANCH  14  15
ENDBRANCH   2  14
TORSDOF 6
ENDMDL
MODEL 5
REMARK VINA RESULT:      -5.7      2.662      5.724
REMARK  Name = 
REMARK  6 active torsions:
REMARK  status: ('A' for Active; 'I' for Inactive)
REMARK    1  A    between atoms: O_2  and  C_3
REMARK    2  A    between atoms: C_6  and  C_7
REMARK    3  A    between atoms: C_7  and  N_9
REMARK    4  A    between atoms: C_10  and  C_12
REMARK    5  A    between atoms: C_12  and  N_13
REMARK    6  A    between atoms: C_17  and  C_18
REMARK                            x       y       z     vdW  Elec       q    Type
REMARK                         _______ _______ _______ _____ _____    ______ ____
ROOT
ATOM      1  N   UNL     1      26.895  24.888  23.965  0.00  0.00    +0.000 NA
ATOM      2  C   UNL     1      25.856  24.616  24.874  0.00  0.00    +0.000 C 
ATOM      3  O   UNL     1      25.557  23.405  25.042  0.00  0.00    +0.000 OA
ENDROOT
BRANCH   1   4
ATOM      4  C   UNL     1      27.520  23.592  23.298  0.00  0.00    +0.000 C 
ATOM      5  C   UNL     1      27.757  24.368  21.834  0.00  0.00    +0.000 C 
BRANCH   4   9
ATOM      6  C   UNL     1      31.572  24.046  24.728  0.00  0.00    +0.000 A 
ATOM      7  C   UNL     1      30.980  22.811  24.700  0.00  0.00    +0.000 A 
ATOM      8  C   UNL     1      29.651  22.722  24.221  0.00  0.00    +0.000 A 
ATOM      9  C   UNL     1      28.991  23.831  23.805  0.00  0.00    +0.000 A 
ATOM     10  C   UNL     1      29.562  25.043  23.830  0.00  0.00    +0.000 A 
ATOM     11  C   UNL     1      30.884  25.134  24.305  0.00  0.00    +0.000 A 
BRANCH   6  13
ATOM     12  C   UNL     1      33.708  25.240  25.031  0.00  0.00    +0.000 C 
ATOM     13  O   UNL     1      32.886  24.104  25.206  0.00  0.00    +0.000 OA
ENDBRANCH   6  13
ENDBRANCH   4   9
ENDBRANCH   1   4
BRANCH   2  14
ATOM     14  C   UNL     1      25.102  25.636  25.633  0.00  0.00    +0.000 C 
BRANCH  14  15
ATOM     15  N   UNL     1      24.736  25.205  26.968  0.00  0.00    +0.000 NA
ATOM     16  C   UNL     1      23.559  25.996  27.322  0.00  0.00    +0.000 C 
ATOM     17  C   UNL     1      23.680  26.297  28.785  0.00  0.00    +0.000 C 
ATOM     18  C   UNL     1      25.021  25.770  29.228  0.00  0.00    +0.000 C 
ATOM     19  C   UNL     1      25.825  26.081  27.783  0.00  0.00    +0.000 C 
BRANCH  19  20
ATOM     20  C   UNL     1      26.862  24.856  27.945  0.00  0.00    +0.000 A 
ATOM     21  C   UNL     1      28.145  25.120  27.563  0.00  0.00    +0.000 A 
ATOM     22  C   UNL     1      29.066  24.081  27.690  0.00  0.00    +0.000 A 
ATOM     23  C   UNL     1      28.636  22.880  28.181  0.00  0.00    +0.000 A 
ATOM     24  N   UNL     1      27.375  22.694  28.533  0.00  0.00    +0.000 NA
ATOM     25  C   UNL     1      26.489  23.681  28.415  0.00  0.00    +0.000 A 
ENDBRANCH  19  20
ENDBRANCH  14  15
ENDBRANCH   2  14
TORSDOF 6
ENDMDL
MODEL 6
REMARK VINA RESULT:      -5.7     25.826     28.580
REMARK  Name = 
REMARK  6 active torsions:
REMARK  status: ('A' for Active; 'I' for Inactive)
REMARK    1  A    between atoms: O_2  and  C_3
REMARK    2  A    between atoms: C_6  and  C_7
REMARK    3  A    between atoms: C_7  and  N_9
REMARK    4  A    between atoms: C_10  and  C_12
REMARK    5  A    between atoms: C_12  and  N_13
REMARK    6  A    between atoms: C_17  and  C_18
REMARK                            x       y       z     vdW  Elec       q    Type
REMARK                         _______ _______ _______ _____ _____    ______ ____
ROOT
ATOM      1  N   UNL     1      32.875  -3.969  33.868  0.00  0.00    +0.000 NA
ATOM      2  C   UNL     1      32.623  -5.343  34.040  0.00  0.00    +0.000 C 
ATOM      3  O   UNL     1      32.302  -5.715  35.198  0.00  0.00    +0.000 OA
ENDROOT
BRANCH   1   4
ATOM      4  C   UNL     1      32.707  -3.114  35.193  0.00  0.00    +0.000 C 
ATOM      5  C   UNL     1      34.311  -3.325  35.622  0.00  0.00    +0.000 C 
BRANCH   4   9
ATOM      6  C   UNL     1      33.511   0.662  33.253  0.00  0.00    +0.000 A 
ATOM      7  C   UNL     1      34.301  -0.429  33.003  0.00  0.00    +0.000 A 
ATOM      8  C   UNL     1      33.990  -1.640  33.667  0.00  0.00    +0.000 A 
ATOM      9  C   UNL     1      32.941  -1.710  34.522  0.00  0.00    +0.000 A 
ATOM     10  C   UNL     1      32.164  -0.647  34.773  0.00  0.00    +0.000 A 
ATOM     11  C   UNL     1      32.470   0.558  34.113  0.00  0.00    +0.000 A 
BRANCH   6  13
ATOM     12  C   UNL     1      33.714   3.118  33.182  0.00  0.00    +0.000 C 
ATOM     13  O   UNL     1      33.841   1.845  32.583  0.00  0.00    +0.000 OA
ENDBRANCH   6  13
ENDBRANCH   4   9
ENDBRANCH   1   4
BRANCH   2  14
ATOM     14  C   UNL     1      32.708  -6.362  32.974  0.00  0.00    +0.000 C 
BRANCH  14  15
ATOM     15  N   UNL     1      31.570  -6.348  32.074  0.00  0.00    +0.000 NA
ATOM     16  C   UNL     1      30.411  -6.651  32.912  0.00  0.00    +0.000 C 
ATOM     17  C   UNL     1      29.498  -7.495  32.074  0.00  0.00    +0.000 C 
ATOM     18  C   UNL     1      30.225  -7.774  30.784  0.00  0.00    +0.000 C 
ATOM     19  C   UNL     1      31.769  -7.828  31.453  0.00  0.00    +0.000 C 
BRANCH  19  20
ATOM     20  C   UNL     1      32.506  -7.297  30.120  0.00  0.00    +0.000 A 
ATOM     21  C   UNL     1      32.796  -5.964  30.103  0.00  0.00    +0.000 A 
ATOM     22  C   UNL     1      33.433  -5.472  28.964  0.00  0.00    +0.000 A 
ATOM     23  C   UNL     1      33.723  -6.341  27.950  0.00  0.00    +0.000 A 
ATOM     24  N   UNL     1      33.414  -7.624  28.034  0.00  0.00    +0.000 NA
ATOM     25  C   UNL     1      32.805  -8.101  29.118  0.00  0.00    +0.000 A 
ENDBRANCH  19  20
ENDBRANCH  14  15
ENDBRANCH   2  14
TORSDOF 6
ENDMDL
MODEL 7
REMARK VINA RESULT:      -5.6     21.482     23.594
REMARK  Name = 
REMARK  6 active torsions:
REMARK  status: ('A' for Active; 'I' for Inactive)
REMARK    1  A    between atoms: O_2  and  C_3
REMARK    2  A    between atoms: C_6  and  C_7
REMARK    3  A    between atoms: C_7  and  N_9
REMARK    4  A    between atoms: C_10  and  C_12
REMARK    5  A    between atoms: C_12  and  N_13
REMARK    6  A    between atoms: C_17  and  C_18
REMARK                            x       y       z     vdW  Elec       q    Type
REMARK                         _______ _______ _______ _____ _____    ______ ____
ROOT
ATOM      1  N   UNL     1      24.757   4.225  13.978  0.00  0.00    +0.000 NA
ATOM      2  C   UNL     1      25.721   5.233  14.167  0.00  0.00    +0.000 C 
ATOM      3  O   UNL     1      25.625   6.249  13.432  0.00  0.00    +0.000 OA
ENDROOT
BRANCH   1   4
ATOM      4  C   UNL     1      23.696   4.557  12.847  0.00  0.00    +0.000 C 
ATOM      5  C   UNL     1      24.045   3.154  12.004  0.00  0.00    +0.000 C 
BRANCH   4   9
ATOM      6  C   UNL     1      20.412   2.785  15.026  0.00  0.00    +0.000 A 
ATOM      7  C   UNL     1      21.706   2.529  15.393  0.00  0.00    +0.000 A 
ATOM      8  C   UNL     1      22.742   3.137  14.643  0.00  0.00    +0.000 A 
ATOM      9  C   UNL     1      22.452   3.947  13.595  0.00  0.00    +0.000 A 
ATOM     10  C   UNL     1      21.189   4.201  13.230  0.00  0.00    +0.000 A 
ATOM     11  C   UNL     1      20.157   3.599  13.974  0.00  0.00    +0.000 A 
BRANCH   6  13
ATOM     12  C   UNL     1      19.660   1.603  17.055  0.00  0.00    +0.000 C 
ATOM     13  O   UNL     1      19.410   2.171  15.786  0.00  0.00    +0.000 OA
ENDBRANCH   6  13
ENDBRANCH   4   9
ENDBRANCH   1   4
BRANCH   2  14
ATOM     14  C   UNL     1      26.823   5.181  15.151  0.00  0.00    +0.000 C 
BRANCH  14  15
ATOM     15  N   UNL     1      26.486   5.796  16.421  0.00  0.00    +0.000 NA
ATOM     16  C   UNL     1      27.453   6.880  16.594  0.00  0.00    +0.000 C 
ATOM     17  C   UNL     1      27.773   6.927  18.058  0.00  0.00    +0.000 C 
ATOM     18  C   UNL     1      27.065   5.759  18.696  0.00  0.00    +0.000 C 
ATOM     19  C   UNL     1      27.214   4.717  17.382  0.00  0.00    +0.000 C 
BRANCH  19  20
ATOM     20  C   UNL     1      25.854   3.911  17.701  0.00  0.00    +0.000 A 
ATOM     21  C   UNL     1      24.797   4.678  18.097  0.00  0.00    +0.000 A 
ATOM     22  C   UNL     1      23.606   4.011  18.382  0.00  0.00    +0.000 A 
ATOM     23  C   UNL     1      23.569   2.651  18.251  0.00  0.00    +0.000 A 
ATOM     24  N   UNL     1      24.633   1.969  17.862  0.00  0.00    +0.000 NA
ATOM     25  C   UNL     1      25.774   2.598  17.588  0.00  0.00    +0.000 A 
ENDBRANCH  19  20
ENDBRANCH  14  15
ENDBRANCH   2  14
TORSDOF 6
ENDMDL
MODEL 8
REMARK VINA RESULT:      -5.6      1.806      2.402
REMARK  Name = 
REMARK  6 active torsions:
REMARK  status: ('A' for Active; 'I' for Inactive)
REMARK    1  A    between atoms: O_2  and  C_3
REMARK    2  A    between atoms: C_6  and  C_7
REMARK    3  A    between atoms: C_7  and  N_9
REMARK    4  A    between atoms: C_10  and  C_12
REMARK    5  A    between atoms: C_12  and  N_13
REMARK    6  A    between atoms: C_17  and  C_18
REMARK                            x       y       z     vdW  Elec       q    Type
REMARK                         _______ _______ _______ _____ _____    ______ ____
ROOT
ATOM      1  N   UNL     1      27.333  22.852  28.236  0.00  0.00    +0.000 NA
ATOM      2  C   UNL     1      26.674  23.322  27.084  0.00  0.00    +0.000 C 
ATOM      3  O   UNL     1      25.737  24.142  27.267  0.00  0.00    +0.000 OA
ENDROOT
BRANCH   1   4
ATOM      4  C   UNL     1      26.766  23.453  29.590  0.00  0.00    +0.000 C 
ATOM      5  C   UNL     1      26.424  21.936  30.208  0.00  0.00    +0.000 C 
BRANCH   4   9
ATOM      6  C   UNL     1      30.578  23.987  31.553  0.00  0.00    +0.000 A 
ATOM      7  C   UNL     1      29.919  25.060  31.014  0.00  0.00    +0.000 A 
ATOM      8  C   UNL     1      28.674  24.826  30.383  0.00  0.00    +0.000 A 
ATOM      9  C   UNL     1      28.156  23.574  30.319  0.00  0.00    +0.000 A 
ATOM     10  C   UNL     1      28.795  22.520  30.843  0.00  0.00    +0.000 A 
ATOM     11  C   UNL     1      30.033  22.750  31.471  0.00  0.00    +0.000 A 
BRANCH   6  13
ATOM     12  C   UNL     1      32.882  24.865  31.490  0.00  0.00    +0.000 C 
ATOM     13  O   UNL     1      31.807  24.249  32.170  0.00  0.00    +0.000 OA
ENDBRANCH   6  13
ENDBRANCH   4   9
ENDBRANCH   1   4
BRANCH   2  14
ATOM     14  C   UNL     1      26.999  22.925  25.698  0.00  0.00    +0.000 C 
BRANCH  14  15
ATOM     15  N   UNL     1      27.935  23.822  25.049  0.00  0.00    +0.000 NA
ATOM     16  C   UNL     1      27.404  24.027  23.702  0.00  0.00    +0.000 C 
ATOM     17  C   UNL     1      28.592  24.112  22.791  0.00  0.00    +0.000 C 
ATOM     18  C   UNL     1      29.807  23.821  23.633  0.00  0.00    +0.000 C 
ATOM     19  C   UNL     1      29.056  22.721  24.663  0.00  0.00    +0.000 C 
BRANCH  19  20
ATOM     20  C   UNL     1      29.996  23.064  25.928  0.00  0.00    +0.000 A 
ATOM     21  C   UNL     1      30.346  21.999  26.704  0.00  0.00    +0.000 A 
ATOM     22  C   UNL     1      31.158  22.262  27.807  0.00  0.00    +0.000 A 
ATOM     23  C   UNL     1      31.547  23.551  28.040  0.00  0.00    +0.000 A 
ATOM     24  N   UNL     1      31.171  24.537  27.245  0.00  0.00    +0.000 NA
ATOM     25  C   UNL     1      30.396  24.294  26.190  0.00  0.00    +0.000 A 
ENDBRANCH  19  20
ENDBRANCH  14  15
ENDBRANCH   2  14
TORSDOF 6
ENDMDL
MODEL 9
REMARK VINA RESULT:      -5.6     16.200     19.213
REMARK  Name = 
REMARK  6 active torsions:
REMARK  status: ('A' for Active; 'I' for Inactive)
REMARK    1  A    between atoms: O_2  and  C_3
REMARK    2  A    between atoms: C_6  and  C_7
REMARK    3  A    between atoms: C_7  and  N_9
REMARK    4  A    between atoms: C_10  and  C_12
REMARK    5  A    between atoms: C_12  and  N_13
REMARK    6  A    between atoms: C_17  and  C_18
REMARK                            x       y       z     vdW  Elec       q    Type
REMARK                         _______ _______ _______ _____ _____    ______ ____
ROOT
ATOM      1  N   UNL     1      19.583  10.484  37.952  0.00  0.00    +0.000 NA
ATOM      2  C   UNL     1      20.789  10.066  38.545  0.00  0.00    +0.000 C 
ATOM      3  O   UNL     1      20.838   8.873  38.942  0.00  0.00    +0.000 OA
ENDROOT
BRANCH   1   4
ATOM      4  C   UNL     1      18.474   9.352  37.888  0.00  0.00    +0.000 C 
ATOM      5  C   UNL     1      17.506  10.132  39.008  0.00  0.00    +0.000 C 
BRANCH   4   9
ATOM      6  C   UNL     1      16.510  10.838  34.337  0.00  0.00    +0.000 A 
ATOM      7  C   UNL     1      17.580   9.989  34.235  0.00  0.00    +0.000 A 
ATOM      8  C   UNL     1      18.184   9.533  35.431  0.00  0.00    +0.000 A 
ATOM      9  C   UNL     1      17.711   9.931  36.639  0.00  0.00    +0.000 A 
ATOM     10  C   UNL     1      16.666  10.762  36.747  0.00  0.00    +0.000 A 
ATOM     11  C   UNL     1      16.063  11.215  35.559  0.00  0.00    +0.000 A 
BRANCH   6  13
ATOM     12  C   UNL     1      16.190  10.638  31.901  0.00  0.00    +0.000 C 
ATOM     13  O   UNL     1      15.933  11.271  33.138  0.00  0.00    +0.000 OA
ENDBRANCH   6  13
ENDBRANCH   4   9
ENDBRANCH   1   4
BRANCH   2  14
ATOM     14  C   UNL     1      21.983  10.917  38.732  0.00  0.00    +0.000 C 
BRANCH  14  15
ATOM     15  N   UNL     1      22.631  11.279  37.487  0.00  0.00    +0.000 NA
ATOM     16  C   UNL     1      22.510  10.099  36.631  0.00  0.00    +0.000 C 
ATOM     17  C   UNL     1      23.782  10.022  35.841  0.00  0.00    +0.000 C 
ATOM     18  C   UNL     1      24.684  11.111  36.362  0.00  0.00    +0.000 C 
ATOM     19  C   UNL     1      24.159  11.034  37.959  0.00  0.00    +0.000 C 
BRANCH  19  20
ATOM     20  C   UNL     1      24.438  12.593  38.263  0.00  0.00    +0.000 A 
ATOM     21  C   UNL     1      25.736  12.915  38.534  0.00  0.00    +0.000 A 
ATOM     22  C   UNL     1      26.010  14.255  38.802  0.00  0.00    +0.000 A 
ATOM     23  C   UNL     1      24.979  15.152  38.778  0.00  0.00    +0.000 A 
ATOM     24  N   UNL     1      23.743  14.771  38.507  0.00  0.00    +0.000 NA
ATOM     25  C   UNL     1      23.472  13.493  38.250  0.00  0.00    +0.000 A 
ENDBRANCH  19  20
ENDBRANCH  14  15
ENDBRANCH   2  14
TORSDOF 6
ENDMDL
MODEL 10
REMARK VINA RESULT:      -5.5      2.113      2.610
REMARK  Name = 
REMARK  6 active torsions:
REMARK  status: ('A' for Active; 'I' for Inactive)
REMARK    1  A    between atoms: O_2  and  C_3
REMARK    2  A    between atoms: C_6  and  C_7
REMARK    3  A    between atoms: C_7  and  N_9
REMARK    4  A    between atoms: C_10  and  C_12
REMARK    5  A    between atoms: C_12  and  N_13
REMARK    6  A    between atoms: C_17  and  C_18
REMARK                            x       y       z     vdW  Elec       q    Type
REMARK                         _______ _______ _______ _____ _____    ______ ____
ROOT
ATOM      1  N   UNL     1      26.622  23.230  28.673  0.00  0.00    +0.000 NA
ATOM      2  C   UNL     1      25.731  24.261  28.319  0.00  0.00    +0.000 C 
ATOM      3  O   UNL     1      25.340  25.011  29.249  0.00  0.00    +0.000 OA
ENDROOT
BRANCH   1   4
ATOM      4  C   UNL     1      26.982  23.196  30.217  0.00  0.00    +0.000 C 
ATOM      5  C   UNL     1      26.533  21.591  30.364  0.00  0.00    +0.000 C 
BRANCH   4   9
ATOM      6  C   UNL     1      31.159  22.354  29.499  0.00  0.00    +0.000 A 
ATOM      7  C   UNL     1      30.319  22.639  28.455  0.00  0.00    +0.000 A 
ATOM      8  C   UNL     1      28.961  22.907  28.750  0.00  0.00    +0.000 A 
ATOM      9  C   UNL     1      28.513  22.881  30.029  0.00  0.00    +0.000 A 
ATOM     10  C   UNL     1      29.328  22.603  31.056  0.00  0.00    +0.000 A 
ATOM     11  C   UNL     1      30.679  22.336  30.766  0.00  0.00    +0.000 A 
BRANCH   6  13
ATOM     12  C   UNL     1      33.416  21.579  30.118  0.00  0.00    +0.000 C 
ATOM     13  O   UNL     1      32.496  22.093  29.177  0.00  0.00    +0.000 OA
ENDBRANCH   6  13
ENDBRANCH   4   9
ENDBRANCH   1   4
BRANCH   2  14
ATOM     14  C   UNL     1      25.231  24.518  26.952  0.00  0.00    +0.000 C 
BRANCH  14  15
ATOM     15  N   UNL     1      25.859  25.661  26.317  0.00  0.00    +0.000 NA
ATOM     16  C   UNL     1      24.781  26.626  26.105  0.00  0.00    +0.000 C 
ATOM     17  C   UNL     1      25.070  27.297  24.796  0.00  0.00    +0.000 C 
ATOM     18  C   UNL     1      26.268  26.600  24.205  0.00  0.00    +0.000 C 
ATOM     19  C   UNL     1      25.906  25.071  24.811  0.00  0.00    +0.000 C 
BRANCH  19  20
ATOM     20  C   UNL     1      27.447  24.606  24.917  0.00  0.00    +0.000 A 
ATOM     21  C   UNL     1      27.723  23.373  24.402  0.00  0.00    +0.000 A 
ATOM     22  C   UNL     1      29.046  22.940  24.480  0.00  0.00    +0.000 A 
ATOM     23  C   UNL     1      29.972  23.763  25.058  0.00  0.00    +0.000 A 
ATOM     24  N   UNL     1      29.634  24.948  25.537  0.00  0.00    +0.000 NA
ATOM     25  C   UNL     1      28.372  25.368  25.467  0.00  0.00    +0.000 A 
ENDBRANCH  19  20
ENDBRANCH  14  15
ENDBRANCH   2  14
TORSDOF 6
ENDMDL
