MODEL 1
REMARK VINA RESULT:      -7.1      0.000      0.000
REMARK  Name = 
REMARK  1 active torsions:
REMARK  status: ('A' for Active; 'I' for Inactive)
REMARK    1  A    between atoms: C_8  and  C_10
REMARK                            x       y       z     vdW  Elec       q    Type
REMARK                         _______ _______ _______ _____ _____    ______ ____
ROOT
ATOM      1  C   UNL     1      17.312  10.278  33.308  0.00  0.00    +0.000 C 
ATOM      2  N   UNL     1      16.279  11.272  33.569  0.00  0.00    +0.000 N 
ATOM      3  C   UNL     1      15.759  11.954  32.367  0.00  0.00    +0.000 C 
ATOM      4  C   UNL     1      15.793  11.593  34.852  0.00  0.00    +0.000 C 
ATOM      5  O   UNL     1      14.905  12.502  35.000  0.00  0.00    +0.000 OA
ATOM      6  N   UNL     1      16.227  10.976  36.038  0.00  0.00    +0.000 N 
ATOM      7  C   UNL     1      15.935  11.053  37.465  0.00  0.00    +0.000 C 
ATOM      8  C   UNL     1      17.350  10.616  37.725  0.00  0.00    +0.000 C 
ATOM      9  O   UNL     1      18.276  11.657  37.720  0.00  0.00    +0.000 OA
ATOM     10  C   UNL     1      17.214   9.934  36.366  0.00  0.00    +0.000 C 
ENDROOT
BRANCH   8  11
ATOM     11  C   UNL     1      17.542   9.649  38.820  0.00  0.00    +0.000 A 
ATOM     12  C   UNL     1      18.580   8.751  38.735  0.00  0.00    +0.000 A 
ATOM     13  C   UNL     1      18.713   7.852  39.795  0.00  0.00    +0.000 A 
ATOM     14  C   UNL     1      17.837   7.894  40.851  0.00  0.00    +0.000 A 
ATOM     15  C   UNL     1      17.959   7.005  41.920  0.00  0.00    +0.000 A 
ATOM     16  C   UNL     1      17.114   7.009  42.994  0.00  0.00    +0.000 A 
ATOM     17  C   UNL     1      16.078   7.941  43.032  0.00  0.00    +0.000 A 
ATOM     18  C   UNL     1      15.915   8.838  42.009  0.00  0.00    +0.000 A 
ATOM     19  C   UNL     1      16.788   8.806  40.939  0.00  0.00    +0.000 A 
ATOM     20  C   UNL     1      16.665   9.680  39.895  0.00  0.00    +0.000 A 
ENDBRANCH   8  11
TORSDOF 1
ENDMDL
MODEL 2
REMARK VINA RESULT:      -7.0     19.529     22.439
REMARK  Name = 
REMARK  1 active torsions:
REMARK  status: ('A' for Active; 'I' for Inactive)
REMARK    1  A    between atoms: C_8  and  C_10
REMARK                            x       y       z     vdW  Elec       q    Type
REMARK                         _______ _______ _______ _____ _____    ______ ____
ROOT
ATOM      1  C   UNL     1      28.607  27.593  22.084  0.00  0.00    +0.000 C 
ATOM      2  N   UNL     1      29.174  26.572  21.211  0.00  0.00    +0.000 N 
ATOM      3  C   UNL     1      29.646  27.069  19.903  0.00  0.00    +0.000 C 
ATOM      4  C   UNL     1      29.275  25.208  21.547  0.00  0.00    +0.000 C 
ATOM      5  O   UNL     1      29.759  24.369  20.712  0.00  0.00    +0.000 OA
ATOM      6  N   UNL     1      28.864  24.665  22.776  0.00  0.00    +0.000 N 
ATOM      7  C   UNL     1      28.842  23.360  23.428  0.00  0.00    +0.000 C 
ATOM      8  C   UNL     1      27.636  23.823  24.199  0.00  0.00    +0.000 C 
ATOM      9  O   UNL     1      26.430  23.656  23.521  0.00  0.00    +0.000 OA
ATOM     10  C   UNL     1      28.245  25.208  23.998  0.00  0.00    +0.000 C 
ENDROOT
BRANCH   8  11
ATOM     11  C   UNL     1      27.583  23.435  25.619  0.00  0.00    +0.000 A 
ATOM     12  C   UNL     1      28.330  22.360  26.039  0.00  0.00    +0.000 A 
ATOM     13  C   UNL     1      28.239  22.029  27.392  0.00  0.00    +0.000 A 
ATOM     14  C   UNL     1      27.438  22.764  28.231  0.00  0.00    +0.000 A 
ATOM     15  C   UNL     1      27.339  22.449  29.587  0.00  0.00    +0.000 A 
ATOM     16  C   UNL     1      26.559  23.152  30.461  0.00  0.00    +0.000 A 
ATOM     17  C   UNL     1      25.822  24.235  29.985  0.00  0.00    +0.000 A 
ATOM     18  C   UNL     1      25.885  24.588  28.662  0.00  0.00    +0.000 A 
ATOM     19  C   UNL     1      26.685  23.856  27.807  0.00  0.00    +0.000 A 
ATOM     20  C   UNL     1      26.779  24.169  26.479  0.00  0.00    +0.000 A 
ENDBRANCH   8  11
TORSDOF 1
ENDMDL
MODEL 3
REMARK VINA RESULT:      -6.5     23.175     27.681
REMARK  Name = 
REMARK  1 active torsions:
REMARK  status: ('A' for Active; 'I' for Inactive)
REMARK    1  A    between atoms: C_8  and  C_10
REMARK                            x       y       z     vdW  Elec       q    Type
REMARK                         _______ _______ _______ _____ _____    ______ ____
ROOT
ATOM      1  C   UNL     1      28.852  24.197  25.516  0.00  0.00    +0.000 C 
ATOM      2  N   UNL     1      27.664  23.579  24.941  0.00  0.00    +0.000 N 
ATOM      3  C   UNL     1      26.974  22.621  25.828  0.00  0.00    +0.000 C 
ATOM      4  C   UNL     1      27.183  23.840  23.643  0.00  0.00    +0.000 C 
ATOM      5  O   UNL     1      26.147  23.233  23.201  0.00  0.00    +0.000 OA
ATOM      6  N   UNL     1      27.775  24.750  22.750  0.00  0.00    +0.000 N 
ATOM      7  C   UNL     1      27.535  25.250  21.400  0.00  0.00    +0.000 C 
ATOM      8  C   UNL     1      29.018  25.474  21.277  0.00  0.00    +0.000 C 
ATOM      9  O   UNL     1      29.731  24.346  20.878  0.00  0.00    +0.000 OA
ATOM     10  C   UNL     1      28.953  25.633  22.793  0.00  0.00    +0.000 C 
ENDROOT
BRANCH   8  11
ATOM     11  C   UNL     1      29.434  26.715  20.602  0.00  0.00    +0.000 A 
ATOM     12  C   UNL     1      29.138  27.921  21.193  0.00  0.00    +0.000 A 
ATOM     13  C   UNL     1      29.547  29.067  20.508  0.00  0.00    +0.000 A 
ATOM     14  C   UNL     1      30.211  28.958  19.312  0.00  0.00    +0.000 A 
ATOM     15  C   UNL     1      30.630  30.093  18.617  0.00  0.00    +0.000 A 
ATOM     16  C   UNL     1      31.297  30.035  17.426  0.00  0.00    +0.000 A 
ATOM     17  C   UNL     1      31.573  28.787  16.868  0.00  0.00    +0.000 A 
ATOM     18  C   UNL     1      31.185  27.640  17.511  0.00  0.00    +0.000 A 
ATOM     19  C   UNL     1      30.515  27.736  18.714  0.00  0.00    +0.000 A 
ATOM     20  C   UNL     1      30.106  26.621  19.392  0.00  0.00    +0.000 A 
ENDBRANCH   8  11
TORSDOF 1
ENDMDL
MODEL 4
REMARK VINA RESULT:      -6.5     21.903     23.693
REMARK  Name = 
REMARK  1 active torsions:
REMARK  status: ('A' for Active; 'I' for Inactive)
REMARK    1  A    between atoms: C_8  and  C_10
REMARK                            x       y       z     vdW  Elec       q    Type
REMARK                         _______ _______ _______ _____ _____    ______ ____
ROOT
ATOM      1  C   UNL     1      26.321 -11.047  23.757  0.00  0.00    +0.000 C 
ATOM      2  N   UNL     1      26.199 -10.537  22.397  0.00  0.00    +0.000 N 
ATOM      3  C   UNL     1      27.233 -11.019  21.460  0.00  0.00    +0.000 C 
ATOM      4  C   UNL     1      25.192  -9.648  21.970  0.00  0.00    +0.000 C 
ATOM      5  O   UNL     1      25.171  -9.224  20.764  0.00  0.00    +0.000 OA
ATOM      6  N   UNL     1      24.166  -9.161  22.798  0.00  0.00    +0.000 N 
ATOM      7  C   UNL     1      23.008  -8.282  22.679  0.00  0.00    +0.000 C 
ATOM      8  C   UNL     1      23.180  -7.945  24.135  0.00  0.00    +0.000 C 
ATOM      9  O   UNL     1      24.099  -6.925  24.376  0.00  0.00    +0.000 OA
ATOM     10  C   UNL     1      23.801  -9.337  24.214  0.00  0.00    +0.000 C 
ENDROOT
BRANCH   8  11
ATOM     11  C   UNL     1      21.944  -7.837  24.929  0.00  0.00    +0.000 A 
ATOM     12  C   UNL     1      21.402  -8.980  25.467  0.00  0.00    +0.000 A 
ATOM     13  C   UNL     1      20.227  -8.824  26.204  0.00  0.00    +0.000 A 
ATOM     14  C   UNL     1      19.671  -7.579  26.366  0.00  0.00    +0.000 A 
ATOM     15  C   UNL     1      18.499  -7.405  27.102  0.00  0.00    +0.000 A 
ATOM     16  C   UNL     1      17.911  -6.187  27.294  0.00  0.00    +0.000 A 
ATOM     17  C   UNL     1      18.502  -5.058  26.727  0.00  0.00    +0.000 A 
ATOM     18  C   UNL     1      19.655  -5.173  25.996  0.00  0.00    +0.000 A 
ATOM     19  C   UNL     1      20.223  -6.420  25.824  0.00  0.00    +0.000 A 
ATOM     20  C   UNL     1      21.372  -6.584  25.102  0.00  0.00    +0.000 A 
ENDBRANCH   8  11
TORSDOF 1
ENDMDL
MODEL 5
REMARK VINA RESULT:      -6.4     18.701     20.728
REMARK  Name = 
REMARK  1 active torsions:
REMARK  status: ('A' for Active; 'I' for Inactive)
REMARK    1  A    between atoms: C_8  and  C_10
REMARK                            x       y       z     vdW  Elec       q    Type
REMARK                         _______ _______ _______ _____ _____    ______ ____
ROOT
ATOM      1  C   UNL     1      32.139  -4.504  34.595  0.00  0.00    +0.000 C 
ATOM      2  N   UNL     1      33.494  -4.873  34.984  0.00  0.00    +0.000 N 
ATOM      3  C   UNL     1      33.738  -6.327  35.071  0.00  0.00    +0.000 C 
ATOM      4  C   UNL     1      34.517  -3.948  35.271  0.00  0.00    +0.000 C 
ATOM      5  O   UNL     1      35.674  -4.353  35.635  0.00  0.00    +0.000 OA
ATOM      6  N   UNL     1      34.364  -2.553  35.193  0.00  0.00    +0.000 N 
ATOM      7  C   UNL     1      35.183  -1.363  35.396  0.00  0.00    +0.000 C 
ATOM      8  C   UNL     1      33.927  -0.625  35.771  0.00  0.00    +0.000 C 
ATOM      9  O   UNL     1      33.563  -0.768  37.108  0.00  0.00    +0.000 OA
ATOM     10  C   UNL     1      33.253  -1.645  34.858  0.00  0.00    +0.000 C 
ENDROOT
BRANCH   8  11
ATOM     11  C   UNL     1      33.804   0.751  35.260  0.00  0.00    +0.000 A 
ATOM     12  C   UNL     1      33.544   0.939  33.923  0.00  0.00    +0.000 A 
ATOM     13  C   UNL     1      33.444   2.262  33.489  0.00  0.00    +0.000 A 
ATOM     14  C   UNL     1      33.600   3.296  34.379  0.00  0.00    +0.000 A 
ATOM     15  C   UNL     1      33.499   4.624  33.962  0.00  0.00    +0.000 A 
ATOM     16  C   UNL     1      33.643   5.685  34.810  0.00  0.00    +0.000 A 
ATOM     17  C   UNL     1      33.905   5.440  36.158  0.00  0.00    +0.000 A 
ATOM     18  C   UNL     1      34.011   4.154  36.620  0.00  0.00    +0.000 A 
ATOM     19  C   UNL     1      33.859   3.105  35.734  0.00  0.00    +0.000 A 
ATOM     20  C   UNL     1      33.958   1.806  36.149  0.00  0.00    +0.000 A 
ENDBRANCH   8  11
TORSDOF 1
ENDMDL
MODEL 6
REMARK VINA RESULT:      -6.2     20.922     22.753
REMARK  Name = 
REMARK  1 active torsions:
REMARK  status: ('A' for Active; 'I' for Inactive)
REMARK    1  A    between atoms: C_8  and  C_10
REMARK                            x       y       z     vdW  Elec       q    Type
REMARK                         _______ _______ _______ _____ _____    ______ ____
ROOT
ATOM      1  C   UNL     1      15.835 -12.085  27.421  0.00  0.00    +0.000 C 
ATOM      2  N   UNL     1      15.909 -11.774  28.843  0.00  0.00    +0.000 N 
ATOM      3  C   UNL     1      15.073 -12.631  29.708  0.00  0.00    +0.000 C 
ATOM      4  C   UNL     1      16.697 -10.742  29.390  0.00  0.00    +0.000 C 
ATOM      5  O   UNL     1      16.685 -10.514  30.648  0.00  0.00    +0.000 OA
ATOM      6  N   UNL     1      17.530  -9.899  28.633  0.00  0.00    +0.000 N 
ATOM      7  C   UNL     1      18.450  -8.793  28.871  0.00  0.00    +0.000 C 
ATOM      8  C   UNL     1      18.120  -8.290  27.492  0.00  0.00    +0.000 C 
ATOM      9  O   UNL     1      16.972  -7.501  27.436  0.00  0.00    +0.000 OA
ATOM     10  C   UNL     1      17.845  -9.762  27.201  0.00  0.00    +0.000 C 
ENDROOT
BRANCH   8  11
ATOM     11  C   UNL     1      19.248  -7.764  26.704  0.00  0.00    +0.000 A 
ATOM     12  C   UNL     1      19.232  -6.441  26.328  0.00  0.00    +0.000 A 
ATOM     13  C   UNL     1      20.320  -5.996  25.577  0.00  0.00    +0.000 A 
ATOM     14  C   UNL     1      21.337  -6.859  25.251  0.00  0.00    +0.000 A 
ATOM     15  C   UNL     1      22.434  -6.428  24.504  0.00  0.00    +0.000 A 
ATOM     16  C   UNL     1      23.470  -7.248  24.159  0.00  0.00    +0.000 A 
ATOM     17  C   UNL     1      23.438  -8.582  24.565  0.00  0.00    +0.000 A 
ATOM     18  C   UNL     1      22.385  -9.056  25.303  0.00  0.00    +0.000 A 
ATOM     19  C   UNL     1      21.355  -8.198  25.636  0.00  0.00    +0.000 A 
ATOM     20  C   UNL     1      20.283  -8.625  26.369  0.00  0.00    +0.000 A 
ENDBRANCH   8  11
TORSDOF 1
ENDMDL
MODEL 7
REMARK VINA RESULT:      -6.2      3.872      7.103
REMARK  Name = 
REMARK  1 active torsions:
REMARK  status: ('A' for Active; 'I' for Inactive)
REMARK    1  A    between atoms: C_8  and  C_10
REMARK                            x       y       z     vdW  Elec       q    Type
REMARK                         _______ _______ _______ _____ _____    ______ ____
ROOT
ATOM      1  C   UNL     1      23.239   9.191  39.037  0.00  0.00    +0.000 C 
ATOM      2  N   UNL     1      22.709   9.835  40.232  0.00  0.00    +0.000 N 
ATOM      3  C   UNL     1      23.645   9.894  41.371  0.00  0.00    +0.000 C 
ATOM      4  C   UNL     1      21.407  10.366  40.334  0.00  0.00    +0.000 C 
ATOM      5  O   UNL     1      21.006  10.891  41.430  0.00  0.00    +0.000 OA
ATOM      6  N   UNL     1      20.468  10.363  39.289  0.00  0.00    +0.000 N 
ATOM      7  C   UNL     1      19.102  10.823  39.062  0.00  0.00    +0.000 C 
ATOM      8  C   UNL     1      18.949   9.708  38.064  0.00  0.00    +0.000 C 
ATOM      9  O   UNL     1      18.588   8.486  38.629  0.00  0.00    +0.000 OA
ATOM     10  C   UNL     1      20.458   9.867  37.902  0.00  0.00    +0.000 C 
ENDROOT
BRANCH   8  11
ATOM     11  C   UNL     1      18.216  10.037  36.829  0.00  0.00    +0.000 A 
ATOM     12  C   UNL     1      18.571   9.405  35.661  0.00  0.00    +0.000 A 
ATOM     13  C   UNL     1      17.851   9.758  34.519  0.00  0.00    +0.000 A 
ATOM     14  C   UNL     1      16.844  10.688  34.595  0.00  0.00    +0.000 A 
ATOM     15  C   UNL     1      16.112  11.049  33.464  0.00  0.00    +0.000 A 
ATOM     16  C   UNL     1      15.100  11.967  33.491  0.00  0.00    +0.000 A 
ATOM     17  C   UNL     1      14.778  12.579  34.702  0.00  0.00    +0.000 A 
ATOM     18  C   UNL     1      15.465  12.259  35.844  0.00  0.00    +0.000 A 
ATOM     19  C   UNL     1      16.481  11.325  35.780  0.00  0.00    +0.000 A 
ATOM     20  C   UNL     1      17.195  10.975  36.892  0.00  0.00    +0.000 A 
ENDBRANCH   8  11
TORSDOF 1
ENDMDL
MODEL 8
REMARK VINA RESULT:      -6.1     19.065     21.163
REMARK  Name = 
REMARK  1 active torsions:
REMARK  status: ('A' for Active; 'I' for Inactive)
REMARK    1  A    between atoms: C_8  and  C_10
REMARK                            x       y       z     vdW  Elec       q    Type
REMARK                         _______ _______ _______ _____ _____    ______ ____
ROOT
ATOM      1  C   UNL     1      37.013  -4.120  35.879  0.00  0.00    +0.000 C 
ATOM      2  N   UNL     1      35.742  -4.826  35.982  0.00  0.00    +0.000 N 
ATOM      3  C   UNL     1      35.857  -6.290  36.135  0.00  0.00    +0.000 C 
ATOM      4  C   UNL     1      34.481  -4.199  35.935  0.00  0.00    +0.000 C 
ATOM      5  O   UNL     1      33.409  -4.893  36.003  0.00  0.00    +0.000 OA
ATOM      6  N   UNL     1      34.293  -2.812  35.808  0.00  0.00    +0.000 N 
ATOM      7  C   UNL     1      33.177  -1.874  35.747  0.00  0.00    +0.000 C 
ATOM      8  C   UNL     1      34.048  -0.972  34.916  0.00  0.00    +0.000 C 
ATOM      9  O   UNL     1      34.044  -1.276  33.555  0.00  0.00    +0.000 OA
ATOM     10  C   UNL     1      35.187  -1.649  35.674  0.00  0.00    +0.000 C 
ENDROOT
BRANCH   8  11
ATOM     11  C   UNL     1      33.960   0.468  35.208  0.00  0.00    +0.000 A 
ATOM     12  C   UNL     1      34.208   0.900  36.490  0.00  0.00    +0.000 A 
ATOM     13  C   UNL     1      34.104   2.273  36.716  0.00  0.00    +0.000 A 
ATOM     14  C   UNL     1      33.771   3.120  35.688  0.00  0.00    +0.000 A 
ATOM     15  C   UNL     1      33.666   4.496  35.896  0.00  0.00    +0.000 A 
ATOM     16  C   UNL     1      33.342   5.378  34.904  0.00  0.00    +0.000 A 
ATOM     17  C   UNL     1      33.100   4.890  33.621  0.00  0.00    +0.000 A 
ATOM     18  C   UNL     1      33.192   3.547  33.362  0.00  0.00    +0.000 A 
ATOM     19  C   UNL     1      33.523   2.684  34.388  0.00  0.00    +0.000 A 
ATOM     20  C   UNL     1      33.626   1.337  34.178  0.00  0.00    +0.000 A 
ENDBRANCH   8  11
TORSDOF 1
ENDMDL
MODEL 9
REMARK VINA RESULT:      -6.1     19.094     20.868
REMARK  Name = 
REMARK  1 active torsions:
REMARK  status: ('A' for Active; 'I' for Inactive)
REMARK    1  A    between atoms: C_8  and  C_10
REMARK                            x       y       z     vdW  Elec       q    Type
REMARK                         _______ _______ _______ _____ _____    ______ ____
ROOT
ATOM      1  C   UNL     1      28.171  25.450  33.549  0.00  0.00    +0.000 C 
ATOM      2  N   UNL     1      26.779  25.872  33.636  0.00  0.00    +0.000 N 
ATOM      3  C   UNL     1      26.396  26.483  34.925  0.00  0.00    +0.000 C 
ATOM      4  C   UNL     1      25.838  25.720  32.599  0.00  0.00    +0.000 C 
ATOM      5  O   UNL     1      24.624  26.090  32.765  0.00  0.00    +0.000 OA
ATOM      6  N   UNL     1      26.131  25.165  31.341  0.00  0.00    +0.000 N 
ATOM      7  C   UNL     1      25.430  24.888  30.092  0.00  0.00    +0.000 C 
ATOM      8  C   UNL     1      26.384  23.745  29.871  0.00  0.00    +0.000 C 
ATOM      9  O   UNL     1      26.008  22.561  30.503  0.00  0.00    +0.000 OA
ATOM     10  C   UNL     1      27.334  24.593  30.712  0.00  0.00    +0.000 C 
ENDROOT
BRANCH   8  11
ATOM     11  C   UNL     1      26.870  23.561  28.493  0.00  0.00    +0.000 A 
ATOM     12  C   UNL     1      26.008  23.808  27.450  0.00  0.00    +0.000 A 
ATOM     13  C   UNL     1      26.516  23.611  26.165  0.00  0.00    +0.000 A 
ATOM     14  C   UNL     1      27.812  23.195  25.988  0.00  0.00    +0.000 A 
ATOM     15  C   UNL     1      28.336  22.997  24.710  0.00  0.00    +0.000 A 
ATOM     16  C   UNL     1      29.619  22.587  24.484  0.00  0.00    +0.000 A 
ATOM     17  C   UNL     1      30.453  22.351  25.577  0.00  0.00    +0.000 A 
ATOM     18  C   UNL     1      29.989  22.532  26.854  0.00  0.00    +0.000 A 
ATOM     19  C   UNL     1      28.686  22.948  27.044  0.00  0.00    +0.000 A 
ATOM     20  C   UNL     1      28.178  23.142  28.300  0.00  0.00    +0.000 A 
ENDBRANCH   8  11
TORSDOF 1
ENDMDL
MODEL 10
REMARK VINA RESULT:      -6.1     19.135     20.747
REMARK  Name = 
REMARK  1 active torsions:
REMARK  status: ('A' for Active; 'I' for Inactive)
REMARK    1  A    between atoms: C_8  and  C_10
REMARK                            x       y       z     vdW  Elec       q    Type
REMARK                         _______ _______ _______ _____ _____    ______ ____
ROOT
ATOM      1  C   UNL     1      26.344  26.395  33.483  0.00  0.00    +0.000 C 
ATOM      2  N   UNL     1      25.051  26.608  32.844  0.00  0.00    +0.000 N 
ATOM      3  C   UNL     1      24.093  27.404  33.637  0.00  0.00    +0.000 C 
ATOM      4  C   UNL     1      24.701  26.104  31.576  0.00  0.00    +0.000 C 
ATOM      5  O   UNL     1      23.533  26.310  31.097  0.00  0.00    +0.000 OA
ATOM      6  N   UNL     1      25.564  25.354  30.758  0.00  0.00    +0.000 N 
ATOM      7  C   UNL     1      25.529  24.723  29.443  0.00  0.00    +0.000 C 
ATOM      8  C   UNL     1      26.525  23.720  29.957  0.00  0.00    +0.000 C 
ATOM      9  O   UNL     1      25.951  22.647  30.637  0.00  0.00    +0.000 OA
ATOM     10  C   UNL     1      26.944  24.857  30.884  0.00  0.00    +0.000 C 
ENDROOT
BRANCH   8  11
ATOM     11  C   UNL     1      27.598  23.333  29.025  0.00  0.00    +0.000 A 
ATOM     12  C   UNL     1      28.786  22.868  29.539  0.00  0.00    +0.000 A 
ATOM     13  C   UNL     1      29.772  22.523  28.614  0.00  0.00    +0.000 A 
ATOM     14  C   UNL     1      29.533  22.649  27.268  0.00  0.00    +0.000 A 
ATOM     15  C   UNL     1      30.506  22.305  26.330  0.00  0.00    +0.000 A 
ATOM     16  C   UNL     1      30.314  22.410  24.981  0.00  0.00    +0.000 A 
ATOM     17  C   UNL     1      29.091  22.886  24.510  0.00  0.00    +0.000 A 
ATOM     18  C   UNL     1      28.099  23.236  25.389  0.00  0.00    +0.000 A 
ATOM     19  C   UNL     1      28.328  23.116  26.746  0.00  0.00    +0.000 A 
ATOM     20  C   UNL     1      27.370  23.454  27.661  0.00  0.00    +0.000 A 
ENDBRANCH   8  11
TORSDOF 1
ENDMDL
