MODEL 1
REMARK VINA RESULT:      -8.0      0.000      0.000
REMARK  Name = 
REMARK  6 active torsions:
REMARK  status: ('A' for Active; 'I' for Inactive)
REMARK    1  A    between atoms: O_2  and  C_3
REMARK    2  A    between atoms: C_5  and  C_6
REMARK    3  A    between atoms: C_16  and  O_17
REMARK    4  A    between atoms: O_17  and  C_18
REMARK    5  A    between atoms: C_18  and  C_19
REMARK    6  A    between atoms: C_27  and  O_28
REMARK                            x       y       z     vdW  Elec       q    Type
REMARK                         _______ _______ _______ _____ _____    ______ ____
ROOT
ATOM      1  C   UNL     1      38.196   3.166  14.112  0.00  0.00    +0.000 C 
ATOM      2  N   UNL     1      39.644   2.546  13.909  0.00  0.00    +0.000 NA
ATOM      3  C   UNL     1      40.464   3.596  13.409  0.00  0.00    +0.000 C 
ATOM      4  C   UNL     1      40.125   4.968  13.923  0.00  0.00    +0.000 C 
ATOM      5  C   UNL     1      39.578   4.811  15.283  0.00  0.00    +0.000 A 
ATOM      6  C   UNL     1      38.580   3.898  15.456  0.00  0.00    +0.000 A 
ATOM      7  N   UNL     1      38.243   3.910  16.697  0.00  0.00    +0.000 NA
ATOM      8  C   UNL     1      38.998   4.825  17.396  0.00  0.00    +0.000 A 
ATOM      9  C   UNL     1      39.013   5.199  18.720  0.00  0.00    +0.000 A 
ATOM     10  C   UNL     1      39.885   6.162  19.169  0.00  0.00    +0.000 A 
ATOM     11  C   UNL     1      40.743   6.739  18.250  0.00  0.00    +0.000 A 
ATOM     12  C   UNL     1      40.745   6.379  16.921  0.00  0.00    +0.000 A 
ATOM     13  C   UNL     1      39.864   5.419  16.515  0.00  0.00    +0.000 A 
ENDROOT
BRANCH   1  16
ATOM     14  C   UNL     1      37.576  -0.353  15.532  0.00  0.00    +0.000 A 
ATOM     15  C   UNL     1      38.170   0.802  15.002  0.00  0.00    +0.000 A 
ATOM     16  C   UNL     1      37.482   1.911  14.711  0.00  0.00    +0.000 A 
ATOM     17  C   UNL     1      36.136   1.932  14.938  0.00  0.00    +0.000 A 
ATOM     18  C   UNL     1      35.506   0.793  15.468  0.00  0.00    +0.000 A 
ATOM     19  C   UNL     1      36.238  -0.330  15.755  0.00  0.00    +0.000 A 
ATOM     20  C   UNL     1      35.563  -1.530  16.315  0.00  0.00    +0.000 C 
BRANCH  14  22
ATOM     21  C   UNL     1      39.711  -1.514  15.310  0.00  0.00    +0.000 C 
ATOM     22  O   UNL     1      38.400  -1.417  15.780  0.00  0.00    +0.000 OA
ENDBRANCH  14  22
BRANCH  17  23
ATOM     23  O   UNL     1      35.331   3.016  14.678  0.00  0.00    +0.000 OA
ATOM     24  C   UNL     1      34.172   3.278  15.430  0.00  0.00    +0.000 C 
ENDBRANCH  17  23
ENDBRANCH   1  16
BRANCH  11  25
ATOM     25  O   UNL     1      41.613   7.711  18.744  0.00  0.00    +0.000 OA
BRANCH  25  26
ATOM     26  C   UNL     1      41.986   7.812  20.068  0.00  0.00    +0.000 C 
BRANCH  26  27
ATOM     27  C   UNL     1      43.216   7.020  20.373  0.00  0.00    +0.000 A 
ATOM     28  C   UNL     1      43.223   6.242  21.527  0.00  0.00    +0.000 A 
ATOM     29  C   UNL     1      44.337   5.500  21.850  0.00  0.00    +0.000 A 
ATOM     30  C   UNL     1      45.464   5.517  21.032  0.00  0.00    +0.000 A 
ATOM     31  C   UNL     1      45.463   6.286  19.886  0.00  0.00    +0.000 A 
ATOM     32  C   UNL     1      44.334   7.007  19.606  0.00  0.00    +0.000 A 
ENDBRANCH  26  27
ENDBRANCH  25  26
ENDBRANCH  11  25
TORSDOF 6
ENDMDL
MODEL 2
REMARK VINA RESULT:      -7.9     23.806     27.738
REMARK  Name = 
REMARK  6 active torsions:
REMARK  status: ('A' for Active; 'I' for Inactive)
REMARK    1  A    between atoms: O_2  and  C_3
REMARK    2  A    between atoms: C_5  and  C_6
REMARK    3  A    between atoms: C_16  and  O_17
REMARK    4  A    between atoms: O_17  and  C_18
REMARK    5  A    between atoms: C_18  and  C_19
REMARK    6  A    between atoms: C_27  and  O_28
REMARK                            x       y       z     vdW  Elec       q    Type
REMARK                         _______ _______ _______ _____ _____    ______ ____
ROOT
ATOM      1  C   UNL     1      12.110  -0.577  28.330  0.00  0.00    +0.000 C 
ATOM      2  N   UNL     1      12.245  -2.032  27.708  0.00  0.00    +0.000 NA
ATOM      3  C   UNL     1      12.295  -1.861  26.296  0.00  0.00    +0.000 C 
ATOM      4  C   UNL     1      12.979  -0.605  25.830  0.00  0.00    +0.000 C 
ATOM      5  C   UNL     1      14.014  -0.268  26.824  0.00  0.00    +0.000 A 
ATOM      6  C   UNL     1      13.639  -0.234  28.135  0.00  0.00    +0.000 A 
ATOM      7  N   UNL     1      14.672   0.075  28.836  0.00  0.00    +0.000 NA
ATOM      8  C   UNL     1      15.770   0.259  28.026  0.00  0.00    +0.000 A 
ATOM      9  C   UNL     1      17.077   0.593  28.294  0.00  0.00    +0.000 A 
ATOM     10  C   UNL     1      17.995   0.717  27.278  0.00  0.00    +0.000 A 
ATOM     11  C   UNL     1      17.562   0.495  25.983  0.00  0.00    +0.000 A 
ATOM     12  C   UNL     1      16.260   0.159  25.692  0.00  0.00    +0.000 A 
ATOM     13  C   UNL     1      15.379   0.045  26.729  0.00  0.00    +0.000 A 
ENDROOT
BRANCH   1  16
ATOM     14  C   UNL     1      12.572  -2.575  31.583  0.00  0.00    +0.000 A 
ATOM     15  C   UNL     1      12.538  -2.176  30.238  0.00  0.00    +0.000 A 
ATOM     16  C   UNL     1      12.138  -0.963  29.845  0.00  0.00    +0.000 A 
ATOM     17  C   UNL     1      11.740  -0.061  30.789  0.00  0.00    +0.000 A 
ATOM     18  C   UNL     1      11.760  -0.425  32.146  0.00  0.00    +0.000 A 
ATOM     19  C   UNL     1      12.176  -1.677  32.518  0.00  0.00    +0.000 A 
ATOM     20  C   UNL     1      12.193  -2.054  33.957  0.00  0.00    +0.000 C 
BRANCH  14  22
ATOM     21  C   UNL     1      12.915  -4.901  30.930  0.00  0.00    +0.000 C 
ATOM     22  O   UNL     1      13.004  -3.848  31.842  0.00  0.00    +0.000 OA
ENDBRANCH  14  22
BRANCH  17  23
ATOM     23  O   UNL     1      11.310   1.214  30.500  0.00  0.00    +0.000 OA
ATOM     24  C   UNL     1       9.984   1.620  30.729  0.00  0.00    +0.000 C 
ENDBRANCH  17  23
ENDBRANCH   1  16
BRANCH  11  25
ATOM     25  O   UNL     1      18.522   0.630  24.981  0.00  0.00    +0.000 OA
BRANCH  25  26
ATOM     26  C   UNL     1      19.729  -0.038  24.972  0.00  0.00    +0.000 C 
BRANCH  26  27
ATOM     27  C   UNL     1      20.086  -0.549  23.613  0.00  0.00    +0.000 A 
ATOM     28  C   UNL     1      19.892  -1.901  23.352  0.00  0.00    +0.000 A 
ATOM     29  C   UNL     1      20.212  -2.416  22.116  0.00  0.00    +0.000 A 
ATOM     30  C   UNL     1      20.730  -1.596  21.117  0.00  0.00    +0.000 A 
ATOM     31  C   UNL     1      20.924  -0.254  21.370  0.00  0.00    +0.000 A 
ATOM     32  C   UNL     1      20.592   0.214  22.613  0.00  0.00    +0.000 A 
ENDBRANCH  26  27
ENDBRANCH  25  26
ENDBRANCH  11  25
TORSDOF 6
ENDMDL
MODEL 3
REMARK VINA RESULT:      -7.4      2.080      3.001
REMARK  Name = 
REMARK  6 active torsions:
REMARK  status: ('A' for Active; 'I' for Inactive)
REMARK    1  A    between atoms: O_2  and  C_3
REMARK    2  A    between atoms: C_5  and  C_6
REMARK    3  A    between atoms: C_16  and  O_17
REMARK    4  A    between atoms: O_17  and  C_18
REMARK    5  A    between atoms: C_18  and  C_19
REMARK    6  A    between atoms: C_27  and  O_28
REMARK                            x       y       z     vdW  Elec       q    Type
REMARK                         _______ _______ _______ _____ _____    ______ ____
ROOT
ATOM      1  C   UNL     1      37.926   2.972  14.252  0.00  0.00    +0.000 C 
ATOM      2  N   UNL     1      39.357   2.343  13.967  0.00  0.00    +0.000 NA
ATOM      3  C   UNL     1      40.131   3.367  13.354  0.00  0.00    +0.000 C 
ATOM      4  C   UNL     1      39.828   4.763  13.826  0.00  0.00    +0.000 C 
ATOM      5  C   UNL     1      39.390   4.672  15.230  0.00  0.00    +0.000 A 
ATOM      6  C   UNL     1      38.411   3.768  15.525  0.00  0.00    +0.000 A 
ATOM      7  N   UNL     1      38.172   3.840  16.787  0.00  0.00    +0.000 NA
ATOM      8  C   UNL     1      38.976   4.788  17.379  0.00  0.00    +0.000 A 
ATOM      9  C   UNL     1      39.093   5.226  18.678  0.00  0.00    +0.000 A 
ATOM     10  C   UNL     1      39.994   6.209  19.011  0.00  0.00    +0.000 A 
ATOM     11  C   UNL     1      40.776   6.741  18.001  0.00  0.00    +0.000 A 
ATOM     12  C   UNL     1      40.676   6.317  16.695  0.00  0.00    +0.000 A 
ATOM     13  C   UNL     1      39.768   5.338  16.405  0.00  0.00    +0.000 A 
ENDROOT
BRANCH   1  16
ATOM     14  C   UNL     1      37.471  -0.360  16.115  0.00  0.00    +0.000 A 
ATOM     15  C   UNL     1      38.014   0.764  15.475  0.00  0.00    +0.000 A 
ATOM     16  C   UNL     1      37.266   1.748  14.965  0.00  0.00    +0.000 A 
ATOM     17  C   UNL     1      35.907   1.665  15.067  0.00  0.00    +0.000 A 
ATOM     18  C   UNL     1      35.328   0.554  15.703  0.00  0.00    +0.000 A 
ATOM     19  C   UNL     1      36.121  -0.439  16.215  0.00  0.00    +0.000 A 
ATOM     20  C   UNL     1      35.498  -1.612  16.884  0.00  0.00    +0.000 C 
BRANCH  14  22
ATOM     21  C   UNL     1      39.262  -1.985  15.787  0.00  0.00    +0.000 C 
ATOM     22  O   UNL     1      38.354  -1.292  16.590  0.00  0.00    +0.000 OA
ENDBRANCH  14  22
BRANCH  17  23
ATOM     23  O   UNL     1      35.042   2.618  14.581  0.00  0.00    +0.000 OA
ATOM     24  C   UNL     1      34.252   3.409  15.433  0.00  0.00    +0.000 C 
ENDBRANCH  17  23
ENDBRANCH   1  16
BRANCH  11  25
ATOM     25  O   UNL     1      41.678   7.736  18.378  0.00  0.00    +0.000 OA
BRANCH  25  26
ATOM     26  C   UNL     1      41.466   9.084  18.177  0.00  0.00    +0.000 C 
BRANCH  26  27
ATOM     27  C   UNL     1      40.267   9.587  18.913  0.00  0.00    +0.000 A 
ATOM     28  C   UNL     1      40.365   9.746  20.292  0.00  0.00    +0.000 A 
ATOM     29  C   UNL     1      39.283  10.201  21.011  0.00  0.00    +0.000 A 
ATOM     30  C   UNL     1      38.084  10.508  20.374  0.00  0.00    +0.000 A 
ATOM     31  C   UNL     1      37.981  10.353  19.006  0.00  0.00    +0.000 A 
ATOM     32  C   UNL     1      39.081   9.898  18.333  0.00  0.00    +0.000 A 
ENDBRANCH  26  27
ENDBRANCH  25  26
ENDBRANCH  11  25
TORSDOF 6
ENDMDL
MODEL 4
REMARK VINA RESULT:      -7.3      3.532      5.485
REMARK  Name = 
REMARK  6 active torsions:
REMARK  status: ('A' for Active; 'I' for Inactive)
REMARK    1  A    between atoms: O_2  and  C_3
REMARK    2  A    between atoms: C_5  and  C_6
REMARK    3  A    between atoms: C_16  and  O_17
REMARK    4  A    between atoms: O_17  and  C_18
REMARK    5  A    between atoms: C_18  and  C_19
REMARK    6  A    between atoms: C_27  and  O_28
REMARK                            x       y       z     vdW  Elec       q    Type
REMARK                         _______ _______ _______ _____ _____    ______ ____
ROOT
ATOM      1  C   UNL     1      36.746   1.453  14.181  0.00  0.00    +0.000 C 
ATOM      2  N   UNL     1      37.894   1.724  13.117  0.00  0.00    +0.000 NA
ATOM      3  C   UNL     1      37.485   2.861  12.367  0.00  0.00    +0.000 C 
ATOM      4  C   UNL     1      36.701   3.885  13.140  0.00  0.00    +0.000 C 
ATOM      5  C   UNL     1      37.163   3.838  14.539  0.00  0.00    +0.000 A 
ATOM      6  C   UNL     1      37.213   2.614  15.141  0.00  0.00    +0.000 A 
ATOM      7  N   UNL     1      37.637   2.782  16.344  0.00  0.00    +0.000 NA
ATOM      8  C   UNL     1      37.885   4.114  16.589  0.00  0.00    +0.000 A 
ATOM      9  C   UNL     1      38.340   4.785  17.701  0.00  0.00    +0.000 A 
ATOM     10  C   UNL     1      38.502   6.150  17.682  0.00  0.00    +0.000 A 
ATOM     11  C   UNL     1      38.194   6.823  16.514  0.00  0.00    +0.000 A 
ATOM     12  C   UNL     1      37.738   6.172  15.390  0.00  0.00    +0.000 A 
ATOM     13  C   UNL     1      37.590   4.816  15.449  0.00  0.00    +0.000 A 
ENDROOT
BRANCH   1  16
ATOM     14  C   UNL     1      39.299  -1.171  15.355  0.00  0.00    +0.000 A 
ATOM     15  C   UNL     1      38.673  -0.090  14.718  0.00  0.00    +0.000 A 
ATOM     16  C   UNL     1      37.395   0.242  14.927  0.00  0.00    +0.000 A 
ATOM     17  C   UNL     1      36.654  -0.501  15.801  0.00  0.00    +0.000 A 
ATOM     18  C   UNL     1      37.248  -1.592  16.457  0.00  0.00    +0.000 A 
ATOM     19  C   UNL     1      38.561  -1.908  16.222  0.00  0.00    +0.000 A 
ATOM     20  C   UNL     1      39.180  -3.066  16.920  0.00  0.00    +0.000 C 
BRANCH  14  22
ATOM     21  C   UNL     1      41.039  -2.085  13.909  0.00  0.00    +0.000 C 
ATOM     22  O   UNL     1      40.613  -1.398  15.046  0.00  0.00    +0.000 OA
ENDBRANCH  14  22
BRANCH  17  23
ATOM     23  O   UNL     1      35.333  -0.251  16.093  0.00  0.00    +0.000 OA
ATOM     24  C   UNL     1      34.944   0.398  17.277  0.00  0.00    +0.000 C 
ENDBRANCH  17  23
ENDBRANCH   1  16
BRANCH  11  25
ATOM     25  O   UNL     1      38.370   8.207  16.534  0.00  0.00    +0.000 OA
BRANCH  25  26
ATOM     26  C   UNL     1      37.703   9.082  15.702  0.00  0.00    +0.000 C 
BRANCH  26  27
ATOM     27  C   UNL     1      36.263   9.232  16.073  0.00  0.00    +0.000 A 
ATOM     28  C   UNL     1      35.304   8.916  15.116  0.00  0.00    +0.000 A 
ATOM     29  C   UNL     1      33.966   9.046  15.413  0.00  0.00    +0.000 A 
ATOM     30  C   UNL     1      33.556   9.490  16.667  0.00  0.00    +0.000 A 
ATOM     31  C   UNL     1      34.503   9.804  17.621  0.00  0.00    +0.000 A 
ATOM     32  C   UNL     1      35.821   9.661  17.281  0.00  0.00    +0.000 A 
ENDBRANCH  26  27
ENDBRANCH  25  26
ENDBRANCH  11  25
TORSDOF 6
ENDMDL
MODEL 5
REMARK VINA RESULT:      -7.3      1.786      2.332
REMARK  Name = 
REMARK  6 active torsions:
REMARK  status: ('A' for Active; 'I' for Inactive)
REMARK    1  A    between atoms: O_2  and  C_3
REMARK    2  A    between atoms: C_5  and  C_6
REMARK    3  A    between atoms: C_16  and  O_17
REMARK    4  A    between atoms: O_17  and  C_18
REMARK    5  A    between atoms: C_18  and  C_19
REMARK    6  A    between atoms: C_27  and  O_28
REMARK                            x       y       z     vdW  Elec       q    Type
REMARK                         _______ _______ _______ _____ _____    ______ ____
ROOT
ATOM      1  C   UNL     1      37.157   2.527  14.219  0.00  0.00    +0.000 C 
ATOM      2  N   UNL     1      38.405   2.906  13.313  0.00  0.00    +0.000 NA
ATOM      3  C   UNL     1      38.144   4.205  12.794  0.00  0.00    +0.000 C 
ATOM      4  C   UNL     1      37.376   5.115  13.712  0.00  0.00    +0.000 C 
ATOM      5  C   UNL     1      37.718   4.742  15.097  0.00  0.00    +0.000 A 
ATOM      6  C   UNL     1      37.628   3.422  15.431  0.00  0.00    +0.000 A 
ATOM      7  N   UNL     1      37.964   3.302  16.667  0.00  0.00    +0.000 NA
ATOM      8  C   UNL     1      38.288   4.528  17.202  0.00  0.00    +0.000 A 
ATOM      9  C   UNL     1      38.699   4.914  18.457  0.00  0.00    +0.000 A 
ATOM     10  C   UNL     1      38.962   6.234  18.737  0.00  0.00    +0.000 A 
ATOM     11  C   UNL     1      38.801   7.157  17.719  0.00  0.00    +0.000 A 
ATOM     12  C   UNL     1      38.391   6.792  16.456  0.00  0.00    +0.000 A 
ATOM     13  C   UNL     1      38.140   5.471  16.219  0.00  0.00    +0.000 A 
ENDROOT
BRANCH   1  16
ATOM     14  C   UNL     1      39.401  -0.505  14.964  0.00  0.00    +0.000 A 
ATOM     15  C   UNL     1      38.911   0.736  14.531  0.00  0.00    +0.000 A 
ATOM     16  C   UNL     1      37.652   1.137  14.735  0.00  0.00    +0.000 A 
ATOM     17  C   UNL     1      36.794   0.306  15.396  0.00  0.00    +0.000 A 
ATOM     18  C   UNL     1      37.250  -0.945  15.845  0.00  0.00    +0.000 A 
ATOM     19  C   UNL     1      38.546  -1.328  15.620  0.00  0.00    +0.000 A 
ATOM     20  C   UNL     1      39.019  -2.655  16.098  0.00  0.00    +0.000 C 
BRANCH  14  22
ATOM     21  C   UNL     1      41.191  -1.082  13.409  0.00  0.00    +0.000 C 
ATOM     22  O   UNL     1      40.711  -0.786  14.686  0.00  0.00    +0.000 OA
ENDBRANCH  14  22
BRANCH  17  23
ATOM     23  O   UNL     1      35.479   0.615  15.663  0.00  0.00    +0.000 OA
ATOM     24  C   UNL     1      34.940   0.514  16.957  0.00  0.00    +0.000 C 
ENDBRANCH  17  23
ENDBRANCH   1  16
BRANCH  11  25
ATOM     25  O   UNL     1      39.076   8.485  18.041  0.00  0.00    +0.000 OA
BRANCH  25  26
ATOM     26  C   UNL     1      40.283   9.106  17.791  0.00  0.00    +0.000 C 
BRANCH  26  27
ATOM     27  C   UNL     1      41.445   8.312  18.296  0.00  0.00    +0.000 A 
ATOM     28  C   UNL     1      41.712   8.340  19.661  0.00  0.00    +0.000 A 
ATOM     29  C   UNL     1      42.775   7.629  20.169  0.00  0.00    +0.000 A 
ATOM     30  C   UNL     1      43.592   6.875  19.331  0.00  0.00    +0.000 A 
ATOM     31  C   UNL     1      43.332   6.843  17.976  0.00  0.00    +0.000 A 
ATOM     32  C   UNL     1      42.265   7.566  17.516  0.00  0.00    +0.000 A 
ENDBRANCH  26  27
ENDBRANCH  25  26
ENDBRANCH  11  25
TORSDOF 6
ENDMDL
MODEL 6
REMARK VINA RESULT:      -7.2      2.941      5.041
REMARK  Name = 
REMARK  6 active torsions:
REMARK  status: ('A' for Active; 'I' for Inactive)
REMARK    1  A    between atoms: O_2  and  C_3
REMARK    2  A    between atoms: C_5  and  C_6
REMARK    3  A    between atoms: C_16  and  O_17
REMARK    4  A    between atoms: O_17  and  C_18
REMARK    5  A    between atoms: C_18  and  C_19
REMARK    6  A    between atoms: C_27  and  O_28
REMARK                            x       y       z     vdW  Elec       q    Type
REMARK                         _______ _______ _______ _____ _____    ______ ____
ROOT
ATOM      1  C   UNL     1      36.485   3.902  14.117  0.00  0.00    +0.000 C 
ATOM      2  N   UNL     1      35.297   3.776  15.164  0.00  0.00    +0.000 NA
ATOM      3  C   UNL     1      35.716   2.824  16.134  0.00  0.00    +0.000 C 
ATOM      4  C   UNL     1      37.191   2.820  16.427  0.00  0.00    +0.000 C 
ATOM      5  C   UNL     1      37.687   4.194  16.229  0.00  0.00    +0.000 A 
ATOM      6  C   UNL     1      37.362   4.816  15.058  0.00  0.00    +0.000 A 
ATOM      7  N   UNL     1      37.882   5.992  15.076  0.00  0.00    +0.000 NA
ATOM      8  C   UNL     1      38.571   6.200  16.251  0.00  0.00    +0.000 A 
ATOM      9  C   UNL     1      39.283   7.273  16.731  0.00  0.00    +0.000 A 
ATOM     10  C   UNL     1      39.891   7.220  17.964  0.00  0.00    +0.000 A 
ATOM     11  C   UNL     1      39.760   6.057  18.701  0.00  0.00    +0.000 A 
ATOM     12  C   UNL     1      39.051   4.971  18.239  0.00  0.00    +0.000 A 
ATOM     13  C   UNL     1      38.463   5.064  17.010  0.00  0.00    +0.000 A 
ENDROOT
BRANCH   1  16
ATOM     14  C   UNL     1      34.363   6.857  12.874  0.00  0.00    +0.000 A 
ATOM     15  C   UNL     1      34.947   5.853  13.660  0.00  0.00    +0.000 A 
ATOM     16  C   UNL     1      35.876   5.010  13.198  0.00  0.00    +0.000 A 
ATOM     17  C   UNL     1      36.282   5.123  11.900  0.00  0.00    +0.000 A 
ATOM     18  C   UNL     1      35.719   6.117  11.082  0.00  0.00    +0.000 A 
ATOM     19  C   UNL     1      34.768   6.966  11.585  0.00  0.00    +0.000 A 
ATOM     20  C   UNL     1      34.177   8.015  10.712  0.00  0.00    +0.000 C 
BRANCH  14  22
ATOM     21  C   UNL     1      33.606   8.272  14.713  0.00  0.00    +0.000 C 
ATOM     22  O   UNL     1      33.423   7.649  13.477  0.00  0.00    +0.000 OA
ENDBRANCH  14  22
BRANCH  17  23
ATOM     23  O   UNL     1      37.230   4.312  11.319  0.00  0.00    +0.000 OA
ATOM     24  C   UNL     1      38.551   4.745  11.109  0.00  0.00    +0.000 C 
ENDBRANCH  17  23
ENDBRANCH   1  16
BRANCH  11  25
ATOM     25  O   UNL     1      40.390   6.041  19.945  0.00  0.00    +0.000 OA
BRANCH  25  26
ATOM     26  C   UNL     1      41.181   7.065  20.422  0.00  0.00    +0.000 C 
BRANCH  26  27
ATOM     27  C   UNL     1      42.637   6.730  20.371  0.00  0.00    +0.000 A 
ATOM     28  C   UNL     1      43.193   6.061  21.457  0.00  0.00    +0.000 A 
ATOM     29  C   UNL     1      44.531   5.738  21.454  0.00  0.00    +0.000 A 
ATOM     30  C   UNL     1      45.341   6.072  20.372  0.00  0.00    +0.000 A 
ATOM     31  C   UNL     1      44.795   6.735  19.292  0.00  0.00    +0.000 A 
ATOM     32  C   UNL     1      43.461   7.036  19.339  0.00  0.00    +0.000 A 
ENDBRANCH  26  27
ENDBRANCH  25  26
ENDBRANCH  11  25
TORSDOF 6
ENDMDL
MODEL 7
REMARK VINA RESULT:      -7.2      5.102      6.774
REMARK  Name = 
REMARK  6 active torsions:
REMARK  status: ('A' for Active; 'I' for Inactive)
REMARK    1  A    between atoms: O_2  and  C_3
REMARK    2  A    between atoms: C_5  and  C_6
REMARK    3  A    between atoms: C_16  and  O_17
REMARK    4  A    between atoms: O_17  and  C_18
REMARK    5  A    between atoms: C_18  and  C_19
REMARK    6  A    between atoms: C_27  and  O_28
REMARK                            x       y       z     vdW  Elec       q    Type
REMARK                         _______ _______ _______ _____ _____    ______ ____
ROOT
ATOM      1  C   UNL     1      38.136  -1.797  14.792  0.00  0.00    +0.000 C 
ATOM      2  N   UNL     1      38.502  -2.026  16.320  0.00  0.00    +0.000 NA
ATOM      3  C   UNL     1      39.385  -3.140  16.359  0.00  0.00    +0.000 C 
ATOM      4  C   UNL     1      40.304  -3.267  15.175  0.00  0.00    +0.000 C 
ATOM      5  C   UNL     1      40.578  -1.906  14.679  0.00  0.00    +0.000 A 
ATOM      6  C   UNL     1      39.507  -1.090  14.458  0.00  0.00    +0.000 A 
ATOM      7  N   UNL     1      39.950   0.039  14.033  0.00  0.00    +0.000 NA
ATOM      8  C   UNL     1      41.325   0.023  13.953  0.00  0.00    +0.000 A 
ATOM      9  C   UNL     1      42.244   0.968  13.561  0.00  0.00    +0.000 A 
ATOM     10  C   UNL     1      43.590   0.689  13.574  0.00  0.00    +0.000 A 
ATOM     11  C   UNL     1      43.987  -0.569  13.992  0.00  0.00    +0.000 A 
ATOM     12  C   UNL     1      43.084  -1.530  14.389  0.00  0.00    +0.000 A 
ATOM     13  C   UNL     1      41.756  -1.213  14.361  0.00  0.00    +0.000 A 
ENDROOT
BRANCH   1  16
ATOM     14  C   UNL     1      36.098   1.064  16.355  0.00  0.00    +0.000 A 
ATOM     15  C   UNL     1      36.908  -0.065  16.160  0.00  0.00    +0.000 A 
ATOM     16  C   UNL     1      37.238  -0.527  14.950  0.00  0.00    +0.000 A 
ATOM     17  C   UNL     1      36.770   0.122  13.844  0.00  0.00    +0.000 A 
ATOM     18  C   UNL     1      35.955   1.257  14.001  0.00  0.00    +0.000 A 
ATOM     19  C   UNL     1      35.634   1.707  15.255  0.00  0.00    +0.000 A 
ATOM     20  C   UNL     1      34.770   2.907  15.411  0.00  0.00    +0.000 C 
BRANCH  14  22
ATOM     21  C   UNL     1      36.026   0.583  18.746  0.00  0.00    +0.000 C 
ATOM     22  O   UNL     1      35.840   1.426  17.650  0.00  0.00    +0.000 OA
ENDBRANCH  14  22
BRANCH  17  23
ATOM     23  O   UNL     1      37.045  -0.264  12.552  0.00  0.00    +0.000 OA
ATOM     24  C   UNL     1      37.182   0.670  11.511  0.00  0.00    +0.000 C 
ENDBRANCH  17  23
ENDBRANCH   1  16
BRANCH  11  25
ATOM     25  O   UNL     1      45.360  -0.815  13.991  0.00  0.00    +0.000 OA
BRANCH  25  26
ATOM     26  C   UNL     1      45.969  -1.795  14.747  0.00  0.00    +0.000 C 
BRANCH  26  27
ATOM     27  C   UNL     1      46.085  -1.411  16.187  0.00  0.00    +0.000 A 
ATOM     28  C   UNL     1      46.154  -2.430  17.132  0.00  0.00    +0.000 A 
ATOM     29  C   UNL     1      46.256  -2.123  18.470  0.00  0.00    +0.000 A 
ATOM     30  C   UNL     1      46.293  -0.797  18.894  0.00  0.00    +0.000 A 
ATOM     31  C   UNL     1      46.226   0.218  17.961  0.00  0.00    +0.000 A 
ATOM     32  C   UNL     1      46.124  -0.135  16.643  0.00  0.00    +0.000 A 
ENDBRANCH  26  27
ENDBRANCH  25  26
ENDBRANCH  11  25
TORSDOF 6
ENDMDL
MODEL 8
REMARK VINA RESULT:      -7.2      5.940      9.386
REMARK  Name = 
REMARK  6 active torsions:
REMARK  status: ('A' for Active; 'I' for Inactive)
REMARK    1  A    between atoms: O_2  and  C_3
REMARK    2  A    between atoms: C_5  and  C_6
REMARK    3  A    between atoms: C_16  and  O_17
REMARK    4  A    between atoms: O_17  and  C_18
REMARK    5  A    between atoms: C_18  and  C_19
REMARK    6  A    between atoms: C_27  and  O_28
REMARK                            x       y       z     vdW  Elec       q    Type
REMARK                         _______ _______ _______ _____ _____    ______ ____
ROOT
ATOM      1  C   UNL     1      43.118  -1.234  12.533  0.00  0.00    +0.000 C 
ATOM      2  N   UNL     1      43.586   0.016  13.395  0.00  0.00    +0.000 NA
ATOM      3  C   UNL     1      42.610   1.031  13.193  0.00  0.00    +0.000 C 
ATOM      4  C   UNL     1      41.204   0.534  13.001  0.00  0.00    +0.000 C 
ATOM      5  C   UNL     1      41.067  -0.719  13.767  0.00  0.00    +0.000 A 
ATOM      6  C   UNL     1      42.020  -1.678  13.576  0.00  0.00    +0.000 A 
ATOM      7  N   UNL     1      41.727  -2.681  14.325  0.00  0.00    +0.000 NA
ATOM      8  C   UNL     1      40.576  -2.434  15.039  0.00  0.00    +0.000 A 
ATOM      9  C   UNL     1      39.871  -3.183  15.953  0.00  0.00    +0.000 A 
ATOM     10  C   UNL     1      38.724  -2.691  16.531  0.00  0.00    +0.000 A 
ATOM     11  C   UNL     1      38.306  -1.424  16.166  0.00  0.00    +0.000 A 
ATOM     12  C   UNL     1      38.996  -0.658  15.253  0.00  0.00    +0.000 A 
ATOM     13  C   UNL     1      40.130  -1.182  14.702  0.00  0.00    +0.000 A 
ENDROOT
BRANCH   1  16
ATOM     14  C   UNL     1      46.049  -2.879  14.401  0.00  0.00    +0.000 A 
ATOM     15  C   UNL     1      45.013  -2.018  14.007  0.00  0.00    +0.000 A 
ATOM     16  C   UNL     1      44.251  -2.235  12.931  0.00  0.00    +0.000 A 
ATOM     17  C   UNL     1      44.483  -3.344  12.171  0.00  0.00    +0.000 A 
ATOM     18  C   UNL     1      45.511  -4.230  12.534  0.00  0.00    +0.000 A 
ATOM     19  C   UNL     1      46.277  -3.980  13.643  0.00  0.00    +0.000 A 
ATOM     20  C   UNL     1      47.364  -4.923  14.020  0.00  0.00    +0.000 C 
BRANCH  14  22
ATOM     21  C   UNL     1      46.157  -2.240  16.754  0.00  0.00    +0.000 C 
ATOM     22  O   UNL     1      46.750  -2.534  15.525  0.00  0.00    +0.000 OA
ENDBRANCH  14  22
BRANCH  17  23
ATOM     23  O   UNL     1      43.761  -3.667  11.044  0.00  0.00    +0.000 OA
ATOM     24  C   UNL     1      44.085  -4.779  10.248  0.00  0.00    +0.000 C 
ENDBRANCH  17  23
ENDBRANCH   1  16
BRANCH  11  25
ATOM     25  O   UNL     1      37.139  -0.960  16.773  0.00  0.00    +0.000 OA
BRANCH  25  26
ATOM     26  C   UNL     1      35.927  -0.844  16.126  0.00  0.00    +0.000 C 
BRANCH  26  27
ATOM     27  C   UNL     1      35.644   0.560  15.697  0.00  0.00    +0.000 A 
ATOM     28  C   UNL     1      34.927   1.377  16.565  0.00  0.00    +0.000 A 
ATOM     29  C   UNL     1      34.639   2.675  16.208  0.00  0.00    +0.000 A 
ATOM     30  C   UNL     1      35.060   3.186  14.983  0.00  0.00    +0.000 A 
ATOM     31  C   UNL     1      35.772   2.380  14.118  0.00  0.00    +0.000 A 
ATOM     32  C   UNL     1      36.034   1.097  14.515  0.00  0.00    +0.000 A 
ENDBRANCH  26  27
ENDBRANCH  25  26
ENDBRANCH  11  25
TORSDOF 6
ENDMDL
MODEL 9
REMARK VINA RESULT:      -7.2     29.041     31.491
REMARK  Name = 
REMARK  6 active torsions:
REMARK  status: ('A' for Active; 'I' for Inactive)
REMARK    1  A    between atoms: O_2  and  C_3
REMARK    2  A    between atoms: C_5  and  C_6
REMARK    3  A    between atoms: C_16  and  O_17
REMARK    4  A    between atoms: O_17  and  C_18
REMARK    5  A    between atoms: C_18  and  C_19
REMARK    6  A    between atoms: C_27  and  O_28
REMARK                            x       y       z     vdW  Elec       q    Type
REMARK                         _______ _______ _______ _____ _____    ______ ____
ROOT
ATOM      1  C   UNL     1      21.730  16.140  43.006  0.00  0.00    +0.000 C 
ATOM      2  N   UNL     1      20.441  16.643  42.225  0.00  0.00    +0.000 NA
ATOM      3  C   UNL     1      20.709  17.984  41.833  0.00  0.00    +0.000 C 
ATOM      4  C   UNL     1      22.146  18.276  41.500  0.00  0.00    +0.000 C 
ATOM      5  C   UNL     1      22.739  17.037  40.965  0.00  0.00    +0.000 A 
ATOM      6  C   UNL     1      22.564  15.894  41.689  0.00  0.00    +0.000 A 
ATOM      7  N   UNL     1      23.148  14.935  41.063  0.00  0.00    +0.000 NA
ATOM      8  C   UNL     1      23.732  15.396  39.904  0.00  0.00    +0.000 A 
ATOM      9  C   UNL     1      24.457  14.770  38.917  0.00  0.00    +0.000 A 
ATOM     10  C   UNL     1      24.939  15.479  37.842  0.00  0.00    +0.000 A 
ATOM     11  C   UNL     1      24.670  16.835  37.786  0.00  0.00    +0.000 A 
ATOM     12  C   UNL     1      23.946  17.480  38.763  0.00  0.00    +0.000 A 
ATOM     13  C   UNL     1      23.485  16.741  39.815  0.00  0.00    +0.000 A 
ENDROOT
BRANCH   1  16
ATOM     14  C   UNL     1      19.860  12.788  42.786  0.00  0.00    +0.000 A 
ATOM     15  C   UNL     1      20.308  14.099  42.567  0.00  0.00    +0.000 A 
ATOM     16  C   UNL     1      21.278  14.670  43.288  0.00  0.00    +0.000 A 
ATOM     17  C   UNL     1      21.867  13.952  44.288  0.00  0.00    +0.000 A 
ATOM     18  C   UNL     1      21.444  12.636  44.537  0.00  0.00    +0.000 A 
ATOM     19  C   UNL     1      20.447  12.077  43.780  0.00  0.00    +0.000 A 
ATOM     20  C   UNL     1      20.005  10.683  44.052  0.00  0.00    +0.000 C 
BRANCH  14  22
ATOM     21  C   UNL     1      17.500  12.449  42.267  0.00  0.00    +0.000 C 
ATOM     22  O   UNL     1      18.859  12.330  41.972  0.00  0.00    +0.000 OA
ENDBRANCH  14  22
BRANCH  17  23
ATOM     23  O   UNL     1      22.873  14.438  45.092  0.00  0.00    +0.000 OA
ATOM     24  C   UNL     1      22.866  14.252  46.485  0.00  0.00    +0.000 C 
ENDBRANCH  17  23
ENDBRANCH   1  16
BRANCH  11  25
ATOM     25  O   UNL     1      25.175  17.519  36.680  0.00  0.00    +0.000 OA
BRANCH  25  26
ATOM     26  C   UNL     1      26.250  17.087  35.931  0.00  0.00    +0.000 C 
BRANCH  26  27
ATOM     27  C   UNL     1      25.825  16.380  34.684  0.00  0.00    +0.000 A 
ATOM     28  C   UNL     1      26.215  15.054  34.519  0.00  0.00    +0.000 A 
ATOM     29  C   UNL     1      25.851  14.366  33.384  0.00  0.00    +0.000 A 
ATOM     30  C   UNL     1      25.092  14.982  32.392  0.00  0.00    +0.000 A 
ATOM     31  C   UNL     1      24.703  16.296  32.550  0.00  0.00    +0.000 A 
ATOM     32  C   UNL     1      25.088  16.940  33.694  0.00  0.00    +0.000 A 
ENDBRANCH  26  27
ENDBRANCH  25  26
ENDBRANCH  11  25
TORSDOF 6
ENDMDL
MODEL 10
REMARK VINA RESULT:      -7.1      5.086      6.930
REMARK  Name = 
REMARK  6 active torsions:
REMARK  status: ('A' for Active; 'I' for Inactive)
REMARK    1  A    between atoms: O_2  and  C_3
REMARK    2  A    between atoms: C_5  and  C_6
REMARK    3  A    between atoms: C_16  and  O_17
REMARK    4  A    between atoms: O_17  and  C_18
REMARK    5  A    between atoms: C_18  and  C_19
REMARK    6  A    between atoms: C_27  and  O_28
REMARK                            x       y       z     vdW  Elec       q    Type
REMARK                         _______ _______ _______ _____ _____    ______ ____
ROOT
ATOM      1  C   UNL     1      37.309  -1.525  15.791  0.00  0.00    +0.000 C 
ATOM      2  N   UNL     1      37.918  -1.374  17.250  0.00  0.00    +0.000 NA
ATOM      3  C   UNL     1      38.766  -2.500  17.449  0.00  0.00    +0.000 C 
ATOM      4  C   UNL     1      39.471  -2.992  16.215  0.00  0.00    +0.000 C 
ATOM      5  C   UNL     1      39.695  -1.829  15.337  0.00  0.00    +0.000 A 
ATOM      6  C   UNL     1      38.624  -1.026  15.074  0.00  0.00    +0.000 A 
ATOM      7  N   UNL     1      39.020  -0.079  14.300  0.00  0.00    +0.000 NA
ATOM      8  C   UNL     1      40.361  -0.212  14.017  0.00  0.00    +0.000 A 
ATOM      9  C   UNL     1      41.227   0.533  13.251  0.00  0.00    +0.000 A 
ATOM     10  C   UNL     1      42.548   0.174  13.131  0.00  0.00    +0.000 A 
ATOM     11  C   UNL     1      42.976  -0.957  13.804  0.00  0.00    +0.000 A 
ATOM     12  C   UNL     1      42.126  -1.717  14.576  0.00  0.00    +0.000 A 
ATOM     13  C   UNL     1      40.821  -1.326  14.669  0.00  0.00    +0.000 A 
ENDROOT
BRANCH   1  16
ATOM     14  C   UNL     1      36.114   1.998  14.819  0.00  0.00    +0.000 A 
ATOM     15  C   UNL     1      36.815   0.785  14.897  0.00  0.00    +0.000 A 
ATOM     16  C   UNL     1      36.484  -0.198  15.740  0.00  0.00    +0.000 A 
ATOM     17  C   UNL     1      35.415  -0.024  16.570  0.00  0.00    +0.000 A 
ATOM     18  C   UNL     1      34.689   1.178  16.521  0.00  0.00    +0.000 A 
ATOM     19  C   UNL     1      35.052   2.168  15.645  0.00  0.00    +0.000 A 
ATOM     20  C   UNL     1      34.278   3.437  15.601  0.00  0.00    +0.000 C 
BRANCH  14  22
ATOM     21  C   UNL     1      37.165   2.583  12.696  0.00  0.00    +0.000 C 
ATOM     22  O   UNL     1      36.563   2.917  13.910  0.00  0.00    +0.000 OA
ENDBRANCH  14  22
BRANCH  17  23
ATOM     23  O   UNL     1      34.985  -0.966  17.476  0.00  0.00    +0.000 OA
ATOM     24  C   UNL     1      34.049  -1.956  17.130  0.00  0.00    +0.000 C 
ENDBRANCH  17  23
ENDBRANCH   1  16
BRANCH  11  25
ATOM     25  O   UNL     1      44.322  -1.290  13.657  0.00  0.00    +0.000 OA
BRANCH  25  26
ATOM     26  C   UNL     1      44.963  -2.259  14.401  0.00  0.00    +0.000 C 
BRANCH  26  27
ATOM     27  C   UNL     1      45.383  -1.758  15.745  0.00  0.00    +0.000 A 
ATOM     28  C   UNL     1      45.900  -2.677  16.653  0.00  0.00    +0.000 A 
ATOM     29  C   UNL     1      46.295  -2.261  17.905  0.00  0.00    +0.000 A 
ATOM     30  C   UNL     1      46.184  -0.924  18.277  0.00  0.00    +0.000 A 
ATOM     31  C   UNL     1      45.672  -0.008  17.380  0.00  0.00    +0.000 A 
ATOM     32  C   UNL     1      45.293  -0.467  16.148  0.00  0.00    +0.000 A 
ENDBRANCH  26  27
ENDBRANCH  25  26
ENDBRANCH  11  25
TORSDOF 6
ENDMDL
