MODEL 1
REMARK VINA RESULT:      -7.4      0.000      0.000
REMARK  Name = 
REMARK  2 active torsions:
REMARK  status: ('A' for Active; 'I' for Inactive)
REMARK    1  A    between atoms: O_2  and  C_3
REMARK    2  A    between atoms: C_9  and  C_10
REMARK                            x       y       z     vdW  Elec       q    Type
REMARK                         _______ _______ _______ _____ _____    ______ ____
ROOT
ATOM      1  C   UNL     1      17.694   9.672  39.716  0.00  0.00    +0.000 A 
ATOM      2  C   UNL     1      18.590   9.926  38.699  0.00  0.00    +0.000 A 
ATOM      3  C   UNL     1      18.205  10.530  37.522  0.00  0.00    +0.000 A 
ATOM      4  C   UNL     1      16.904  10.904  37.318  0.00  0.00    +0.000 A 
ATOM      5  C   UNL     1      16.548  11.511  36.117  0.00  0.00    +0.000 A 
ATOM      6  O   UNL     1      17.399  11.729  35.203  0.00  0.00    +0.000 OA
ATOM      7  C   UNL     1      15.232  11.867  35.960  0.00  0.00    +0.000 A 
ATOM      8  C   UNL     1      14.375  11.590  37.017  0.00  0.00    +0.000 A 
ATOM      9  C   UNL     1      12.947  11.967  36.867  0.00  0.00    +0.000 C 
ATOM     10  O   UNL     1      14.756  11.021  38.117  0.00  0.00    +0.000 OA
ATOM     11  C   UNL     1      15.996  10.658  38.326  0.00  0.00    +0.000 A 
ATOM     12  C   UNL     1      16.396  10.051  39.501  0.00  0.00    +0.000 A 
ENDROOT
BRANCH   7  13
ATOM     13  C   UNL     1      14.750  12.492  34.722  0.00  0.00    +0.000 A 
ATOM     14  C   UNL     1      14.044  13.673  34.704  0.00  0.00    +0.000 A 
ATOM     15  C   UNL     1      13.611  14.214  33.519  0.00  0.00    +0.000 A 
ATOM     16  C   UNL     1      13.860  13.609  32.288  0.00  0.00    +0.000 A 
ATOM     17  N   UNL     1      13.387  14.193  31.062  0.00  0.00    +0.000 NA
ATOM     18  C   UNL     1      14.568  12.425  32.306  0.00  0.00    +0.000 A 
ATOM     19  C   UNL     1      15.004  11.875  33.491  0.00  0.00    +0.000 A 
ENDBRANCH   7  13
BRANCH   1  21
ATOM     20  C   UNL     1      18.957   9.749  41.798  0.00  0.00    +0.000 C 
ATOM     21  O   UNL     1      18.080   9.052  40.927  0.00  0.00    +0.000 OA
ENDBRANCH   1  21
TORSDOF 2
ENDMDL
MODEL 2
REMARK VINA RESULT:      -7.1     19.604     21.329
REMARK  Name = 
REMARK  2 active torsions:
REMARK  status: ('A' for Active; 'I' for Inactive)
REMARK    1  A    between atoms: O_2  and  C_3
REMARK    2  A    between atoms: C_9  and  C_10
REMARK                            x       y       z     vdW  Elec       q    Type
REMARK                         _______ _______ _______ _____ _____    ______ ____
ROOT
ATOM      1  C   UNL     1      34.095   6.033  35.829  0.00  0.00    +0.000 A 
ATOM      2  C   UNL     1      34.045   5.390  37.049  0.00  0.00    +0.000 A 
ATOM      3  C   UNL     1      33.952   4.019  37.147  0.00  0.00    +0.000 A 
ATOM      4  C   UNL     1      33.905   3.237  36.024  0.00  0.00    +0.000 A 
ATOM      5  C   UNL     1      33.810   1.855  36.159  0.00  0.00    +0.000 A 
ATOM      6  O   UNL     1      33.766   1.297  37.296  0.00  0.00    +0.000 OA
ATOM      7  C   UNL     1      33.765   1.114  35.004  0.00  0.00    +0.000 A 
ATOM      8  C   UNL     1      33.820   1.813  33.805  0.00  0.00    +0.000 A 
ATOM      9  C   UNL     1      33.774   1.030  32.545  0.00  0.00    +0.000 C 
ATOM     10  O   UNL     1      33.909   3.104  33.733  0.00  0.00    +0.000 OA
ATOM     11  C   UNL     1      33.954   3.864  34.797  0.00  0.00    +0.000 A 
ATOM     12  C   UNL     1      34.048   5.240  34.713  0.00  0.00    +0.000 A 
ENDROOT
BRANCH   7  13
ATOM     13  C   UNL     1      33.642  -0.349  35.037  0.00  0.00    +0.000 A 
ATOM     14  C   UNL     1      34.728  -1.191  35.083  0.00  0.00    +0.000 A 
ATOM     15  C   UNL     1      34.560  -2.554  35.107  0.00  0.00    +0.000 A 
ATOM     16  C   UNL     1      33.300  -3.150  35.089  0.00  0.00    +0.000 A 
ATOM     17  N   UNL     1      33.151  -4.579  35.106  0.00  0.00    +0.000 NA
ATOM     18  C   UNL     1      32.210  -2.304  35.042  0.00  0.00    +0.000 A 
ATOM     19  C   UNL     1      32.371  -0.937  35.016  0.00  0.00    +0.000 A 
ENDBRANCH   7  13
BRANCH   1  21
ATOM     20  C   UNL     1      34.415   8.200  36.895  0.00  0.00    +0.000 C 
ATOM     21  O   UNL     1      34.190   7.439  35.718  0.00  0.00    +0.000 OA
ENDBRANCH   1  21
TORSDOF 2
ENDMDL
MODEL 3
REMARK VINA RESULT:      -6.8     19.802     21.973
REMARK  Name = 
REMARK  2 active torsions:
REMARK  status: ('A' for Active; 'I' for Inactive)
REMARK    1  A    between atoms: O_2  and  C_3
REMARK    2  A    between atoms: C_9  and  C_10
REMARK                            x       y       z     vdW  Elec       q    Type
REMARK                         _______ _______ _______ _____ _____    ______ ____
ROOT
ATOM      1  C   UNL     1      32.604  -4.846  34.063  0.00  0.00    +0.000 A 
ATOM      2  C   UNL     1      31.989  -4.344  35.191  0.00  0.00    +0.000 A 
ATOM      3  C   UNL     1      32.053  -3.008  35.523  0.00  0.00    +0.000 A 
ATOM      4  C   UNL     1      32.737  -2.121  34.736  0.00  0.00    +0.000 A 
ATOM      5  C   UNL     1      32.783  -0.779  35.100  0.00  0.00    +0.000 A 
ATOM      6  O   UNL     1      32.206  -0.352  36.145  0.00  0.00    +0.000 OA
ATOM      7  C   UNL     1      33.481   0.071  34.279  0.00  0.00    +0.000 A 
ATOM      8  C   UNL     1      34.078  -0.488  33.157  0.00  0.00    +0.000 A 
ATOM      9  C   UNL     1      34.839   0.414  32.255  0.00  0.00    +0.000 C 
ATOM     10  O   UNL     1      34.007  -1.748  32.861  0.00  0.00    +0.000 OA
ATOM     11  C   UNL     1      33.357  -2.607  33.604  0.00  0.00    +0.000 A 
ATOM     12  C   UNL     1      33.285  -3.949  33.283  0.00  0.00    +0.000 A 
ENDROOT
BRANCH   7  13
ATOM     13  C   UNL     1      33.609   1.501  34.588  0.00  0.00    +0.000 A 
ATOM     14  C   UNL     1      34.045   1.968  35.805  0.00  0.00    +0.000 A 
ATOM     15  C   UNL     1      34.142   3.317  36.046  0.00  0.00    +0.000 A 
ATOM     16  C   UNL     1      33.811   4.271  35.085  0.00  0.00    +0.000 A 
ATOM     17  N   UNL     1      33.914   5.678  35.366  0.00  0.00    +0.000 NA
ATOM     18  C   UNL     1      33.373   3.801  33.864  0.00  0.00    +0.000 A 
ATOM     19  C   UNL     1      33.272   2.451  33.616  0.00  0.00    +0.000 A 
ENDBRANCH   7  13
BRANCH   1  21
ATOM     20  C   UNL     1      32.466  -6.564  32.341  0.00  0.00    +0.000 C 
ATOM     21  O   UNL     1      32.545  -6.214  33.714  0.00  0.00    +0.000 OA
ENDBRANCH   1  21
TORSDOF 2
ENDMDL
MODEL 4
REMARK VINA RESULT:      -6.5     18.576     20.396
REMARK  Name = 
REMARK  2 active torsions:
REMARK  status: ('A' for Active; 'I' for Inactive)
REMARK    1  A    between atoms: O_2  and  C_3
REMARK    2  A    between atoms: C_9  and  C_10
REMARK                            x       y       z     vdW  Elec       q    Type
REMARK                         _______ _______ _______ _____ _____    ______ ____
ROOT
ATOM      1  C   UNL     1      25.332  25.419  30.512  0.00  0.00    +0.000 A 
ATOM      2  C   UNL     1      24.928  26.394  29.623  0.00  0.00    +0.000 A 
ATOM      3  C   UNL     1      25.359  26.411  28.315  0.00  0.00    +0.000 A 
ATOM      4  C   UNL     1      26.215  25.451  27.845  0.00  0.00    +0.000 A 
ATOM      5  C   UNL     1      26.633  25.498  26.518  0.00  0.00    +0.000 A 
ATOM      6  O   UNL     1      26.241  26.409  25.728  0.00  0.00    +0.000 OA
ATOM      7  C   UNL     1      27.490  24.514  26.095  0.00  0.00    +0.000 A 
ATOM      8  C   UNL     1      27.862  23.558  27.031  0.00  0.00    +0.000 A 
ATOM      9  C   UNL     1      28.789  22.483  26.593  0.00  0.00    +0.000 C 
ATOM     10  O   UNL     1      27.445  23.558  28.258  0.00  0.00    +0.000 OA
ATOM     11  C   UNL     1      26.628  24.469  28.721  0.00  0.00    +0.000 A 
ATOM     12  C   UNL     1      26.187  24.464  30.030  0.00  0.00    +0.000 A 
ENDROOT
BRANCH   7  13
ATOM     13  C   UNL     1      28.007  24.487  24.720  0.00  0.00    +0.000 A 
ATOM     14  C   UNL     1      27.393  23.795  23.703  0.00  0.00    +0.000 A 
ATOM     15  C   UNL     1      27.920  23.797  22.435  0.00  0.00    +0.000 A 
ATOM     16  C   UNL     1      29.085  24.491  22.113  0.00  0.00    +0.000 A 
ATOM     17  N   UNL     1      29.621  24.470  20.779  0.00  0.00    +0.000 NA
ATOM     18  C   UNL     1      29.701  25.185  23.134  0.00  0.00    +0.000 A 
ATOM     19  C   UNL     1      29.179  25.185  24.409  0.00  0.00    +0.000 A 
ENDBRANCH   7  13
BRANCH   1  21
ATOM     20  C   UNL     1      24.119  26.479  32.340  0.00  0.00    +0.000 C 
ATOM     21  O   UNL     1      24.895  25.394  31.856  0.00  0.00    +0.000 OA
ENDBRANCH   1  21
TORSDOF 2
ENDMDL
MODEL 5
REMARK VINA RESULT:      -6.5     20.219     22.328
REMARK  Name = 
REMARK  2 active torsions:
REMARK  status: ('A' for Active; 'I' for Inactive)
REMARK    1  A    between atoms: O_2  and  C_3
REMARK    2  A    between atoms: C_9  and  C_10
REMARK                            x       y       z     vdW  Elec       q    Type
REMARK                         _______ _______ _______ _____ _____    ______ ____
ROOT
ATOM      1  C   UNL     1      29.492  23.830  22.943  0.00  0.00    +0.000 A 
ATOM      2  C   UNL     1      28.514  23.133  23.622  0.00  0.00    +0.000 A 
ATOM      3  C   UNL     1      28.655  22.783  24.947  0.00  0.00    +0.000 A 
ATOM      4  C   UNL     1      29.784  23.118  25.645  0.00  0.00    +0.000 A 
ATOM      5  C   UNL     1      29.895  22.748  26.983  0.00  0.00    +0.000 A 
ATOM      6  O   UNL     1      28.977  22.107  27.575  0.00  0.00    +0.000 OA
ATOM      7  C   UNL     1      31.046  23.107  27.639  0.00  0.00    +0.000 A 
ATOM      8  C   UNL     1      31.995  23.809  26.908  0.00  0.00    +0.000 A 
ATOM      9  C   UNL     1      33.247  24.207  27.599  0.00  0.00    +0.000 C 
ATOM     10  O   UNL     1      31.844  24.130  25.661  0.00  0.00    +0.000 OA
ATOM     11  C   UNL     1      30.771  23.816  24.981  0.00  0.00    +0.000 A 
ATOM     12  C   UNL     1      30.616  24.160  23.652  0.00  0.00    +0.000 A 
ENDROOT
BRANCH   7  13
ATOM     13  C   UNL     1      31.271  22.744  29.044  0.00  0.00    +0.000 A 
ATOM     14  C   UNL     1      30.706  23.430  30.094  0.00  0.00    +0.000 A 
ATOM     15  C   UNL     1      30.952  23.055  31.391  0.00  0.00    +0.000 A 
ATOM     16  C   UNL     1      31.772  21.974  31.712  0.00  0.00    +0.000 A 
ATOM     17  N   UNL     1      32.020  21.606  33.080  0.00  0.00    +0.000 NA
ATOM     18  C   UNL     1      32.339  21.287  30.659  0.00  0.00    +0.000 A 
ATOM     19  C   UNL     1      32.099  21.659  29.355  0.00  0.00    +0.000 A 
ENDBRANCH   7  13
BRANCH   1  21
ATOM     20  C   UNL     1      29.206  25.566  21.259  0.00  0.00    +0.000 C 
ATOM     21  O   UNL     1      29.356  24.193  21.584  0.00  0.00    +0.000 OA
ENDBRANCH   1  21
TORSDOF 2
ENDMDL
MODEL 6
REMARK VINA RESULT:      -6.4     20.236     22.762
REMARK  Name = 
REMARK  2 active torsions:
REMARK  status: ('A' for Active; 'I' for Inactive)
REMARK    1  A    between atoms: O_2  and  C_3
REMARK    2  A    between atoms: C_9  and  C_10
REMARK                            x       y       z     vdW  Elec       q    Type
REMARK                         _______ _______ _______ _____ _____    ______ ____
ROOT
ATOM      1  C   UNL     1      29.432  26.084  20.884  0.00  0.00    +0.000 A 
ATOM      2  C   UNL     1      28.653  27.092  21.414  0.00  0.00    +0.000 A 
ATOM      3  C   UNL     1      28.115  27.009  22.680  0.00  0.00    +0.000 A 
ATOM      4  C   UNL     1      28.337  25.910  23.466  0.00  0.00    +0.000 A 
ATOM      5  C   UNL     1      27.778  25.857  24.739  0.00  0.00    +0.000 A 
ATOM      6  O   UNL     1      27.065  26.802  25.194  0.00  0.00    +0.000 OA
ATOM      7  C   UNL     1      28.029  24.735  25.488  0.00  0.00    +0.000 A 
ATOM      8  C   UNL     1      28.820  23.754  24.906  0.00  0.00    +0.000 A 
ATOM      9  C   UNL     1      29.105  22.532  25.701  0.00  0.00    +0.000 C 
ATOM     10  O   UNL     1      29.318  23.851  23.714  0.00  0.00    +0.000 OA
ATOM     11  C   UNL     1      29.114  24.894  22.951  0.00  0.00    +0.000 A 
ATOM     12  C   UNL     1      29.648  24.991  21.680  0.00  0.00    +0.000 A 
ENDROOT
BRANCH   7  13
ATOM     13  C   UNL     1      27.466  24.571  26.835  0.00  0.00    +0.000 A 
ATOM     14  C   UNL     1      26.237  24.000  27.069  0.00  0.00    +0.000 A 
ATOM     15  C   UNL     1      25.753  23.876  28.347  0.00  0.00    +0.000 A 
ATOM     16  C   UNL     1      26.468  24.311  29.462  0.00  0.00    +0.000 A 
ATOM     17  N   UNL     1      25.935  24.175  30.790  0.00  0.00    +0.000 NA
ATOM     18  C   UNL     1      27.701  24.884  29.226  0.00  0.00    +0.000 A 
ATOM     19  C   UNL     1      28.193  25.015  27.947  0.00  0.00    +0.000 A 
ENDBRANCH   7  13
BRANCH   1  21
ATOM     20  C   UNL     1      30.132  27.436  18.983  0.00  0.00    +0.000 C 
ATOM     21  O   UNL     1      29.988  26.161  19.587  0.00  0.00    +0.000 OA
ENDBRANCH   1  21
TORSDOF 2
ENDMDL
MODEL 7
REMARK VINA RESULT:      -6.4     19.283     20.472
REMARK  Name = 
REMARK  2 active torsions:
REMARK  status: ('A' for Active; 'I' for Inactive)
REMARK    1  A    between atoms: O_2  and  C_3
REMARK    2  A    between atoms: C_9  and  C_10
REMARK                            x       y       z     vdW  Elec       q    Type
REMARK                         _______ _______ _______ _____ _____    ______ ____
ROOT
ATOM      1  C   UNL     1      30.215  22.610  31.547  0.00  0.00    +0.000 A 
ATOM      2  C   UNL     1      31.302  22.184  30.811  0.00  0.00    +0.000 A 
ATOM      3  C   UNL     1      31.368  22.350  29.445  0.00  0.00    +0.000 A 
ATOM      4  C   UNL     1      30.345  22.949  28.761  0.00  0.00    +0.000 A 
ATOM      5  C   UNL     1      30.443  23.099  27.380  0.00  0.00    +0.000 A 
ATOM      6  O   UNL     1      31.458  22.695  26.737  0.00  0.00    +0.000 OA
ATOM      7  C   UNL     1      29.392  23.705  26.739  0.00  0.00    +0.000 A 
ATOM      8  C   UNL     1      28.325  24.114  27.528  0.00  0.00    +0.000 A 
ATOM      9  C   UNL     1      27.178  24.773  26.854  0.00  0.00    +0.000 C 
ATOM     10  O   UNL     1      28.281  23.951  28.813  0.00  0.00    +0.000 OA
ATOM     11  C   UNL     1      29.251  23.380  29.481  0.00  0.00    +0.000 A 
ATOM     12  C   UNL     1      29.198  23.208  30.851  0.00  0.00    +0.000 A 
ENDROOT
BRANCH   7  13
ATOM     13  C   UNL     1      29.387  23.890  25.282  0.00  0.00    +0.000 A 
ATOM     14  C   UNL     1      28.826  22.983  24.414  0.00  0.00    +0.000 A 
ATOM     15  C   UNL     1      28.853  23.200  23.059  0.00  0.00    +0.000 A 
ATOM     16  C   UNL     1      29.438  24.334  22.496  0.00  0.00    +0.000 A 
ATOM     17  N   UNL     1      29.460  24.533  21.072  0.00  0.00    +0.000 NA
ATOM     18  C   UNL     1      30.001  25.243  23.368  0.00  0.00    +0.000 A 
ATOM     19  C   UNL     1      29.980  25.031  24.729  0.00  0.00    +0.000 A 
ENDBRANCH   7  13
BRANCH   1  21
ATOM     20  C   UNL     1      30.633  21.243  33.519  0.00  0.00    +0.000 C 
ATOM     21  O   UNL     1      30.138  22.444  32.948  0.00  0.00    +0.000 OA
ENDBRANCH   1  21
TORSDOF 2
ENDMDL
MODEL 8
REMARK VINA RESULT:      -6.4     18.629     19.681
REMARK  Name = 
REMARK  2 active torsions:
REMARK  status: ('A' for Active; 'I' for Inactive)
REMARK    1  A    between atoms: O_2  and  C_3
REMARK    2  A    between atoms: C_9  and  C_10
REMARK                            x       y       z     vdW  Elec       q    Type
REMARK                         _______ _______ _______ _____ _____    ______ ____
ROOT
ATOM      1  C   UNL     1      33.029  21.431  31.729  0.00  0.00    +0.000 A 
ATOM      2  C   UNL     1      33.582  21.558  30.471  0.00  0.00    +0.000 A 
ATOM      3  C   UNL     1      32.832  21.937  29.380  0.00  0.00    +0.000 A 
ATOM      4  C   UNL     1      31.495  22.203  29.506  0.00  0.00    +0.000 A 
ATOM      5  C   UNL     1      30.766  22.582  28.382  0.00  0.00    +0.000 A 
ATOM      6  O   UNL     1      31.307  22.688  27.241  0.00  0.00    +0.000 OA
ATOM      7  C   UNL     1      29.429  22.837  28.560  0.00  0.00    +0.000 A 
ATOM      8  C   UNL     1      28.926  22.695  29.846  0.00  0.00    +0.000 A 
ATOM      9  C   UNL     1      27.482  22.968  30.059  0.00  0.00    +0.000 C 
ATOM     10  O   UNL     1      29.648  22.339  30.861  0.00  0.00    +0.000 OA
ATOM     11  C   UNL     1      30.927  22.081  30.756  0.00  0.00    +0.000 A 
ATOM     12  C   UNL     1      31.691  21.700  31.842  0.00  0.00    +0.000 A 
ENDROOT
BRANCH   7  13
ATOM     13  C   UNL     1      28.567  23.222  27.434  0.00  0.00    +0.000 A 
ATOM     14  C   UNL     1      27.900  22.305  26.655  0.00  0.00    +0.000 A 
ATOM     15  C   UNL     1      27.110  22.715  25.610  0.00  0.00    +0.000 A 
ATOM     16  C   UNL     1      26.940  24.061  25.287  0.00  0.00    +0.000 A 
ATOM     17  N   UNL     1      26.113  24.463  24.182  0.00  0.00    +0.000 NA
ATOM     18  C   UNL     1      27.609  24.979  26.069  0.00  0.00    +0.000 A 
ATOM     19  C   UNL     1      28.405  24.575  27.117  0.00  0.00    +0.000 A 
ENDBRANCH   7  13
BRANCH   1  21
ATOM     20  C   UNL     1      35.055  20.433  32.643  0.00  0.00    +0.000 C 
ATOM     21  O   UNL     1      33.791  21.042  32.855  0.00  0.00    +0.000 OA
ENDBRANCH   1  21
TORSDOF 2
ENDMDL
MODEL 9
REMARK VINA RESULT:      -6.3     19.788     21.636
REMARK  Name = 
REMARK  2 active torsions:
REMARK  status: ('A' for Active; 'I' for Inactive)
REMARK    1  A    between atoms: O_2  and  C_3
REMARK    2  A    between atoms: C_9  and  C_10
REMARK                            x       y       z     vdW  Elec       q    Type
REMARK                         _______ _______ _______ _____ _____    ______ ____
ROOT
ATOM      1  C   UNL     1      26.426  23.679  28.842  0.00  0.00    +0.000 A 
ATOM      2  C   UNL     1      25.432  24.111  27.988  0.00  0.00    +0.000 A 
ATOM      3  C   UNL     1      25.706  24.533  26.706  0.00  0.00    +0.000 A 
ATOM      4  C   UNL     1      26.988  24.540  26.227  0.00  0.00    +0.000 A 
ATOM      5  C   UNL     1      27.230  24.973  24.927  0.00  0.00    +0.000 A 
ATOM      6  O   UNL     1      26.292  25.364  24.170  0.00  0.00    +0.000 OA
ATOM      7  C   UNL     1      28.533  24.962  24.494  0.00  0.00    +0.000 A 
ATOM      8  C   UNL     1      29.491  24.516  25.395  0.00  0.00    +0.000 A 
ATOM      9  C   UNL     1      30.907  24.495  24.946  0.00  0.00    +0.000 C 
ATOM     10  O   UNL     1      29.214  24.122  26.598  0.00  0.00    +0.000 OA
ATOM     11  C   UNL     1      27.993  24.111  27.068  0.00  0.00    +0.000 A 
ATOM     12  C   UNL     1      27.705  23.690  28.352  0.00  0.00    +0.000 A 
ENDROOT
BRANCH   7  13
ATOM     13  C   UNL     1      28.896  25.421  23.147  0.00  0.00    +0.000 A 
ATOM     14  C   UNL     1      29.054  24.566  22.082  0.00  0.00    +0.000 A 
ATOM     15  C   UNL     1      29.401  25.045  20.843  0.00  0.00    +0.000 A 
ATOM     16  C   UNL     1      29.605  26.402  20.599  0.00  0.00    +0.000 A 
ATOM     17  N   UNL     1      29.976  26.878  19.293  0.00  0.00    +0.000 NA
ATOM     18  C   UNL     1      29.447  27.259  21.668  0.00  0.00    +0.000 A 
ATOM     19  C   UNL     1      29.102  26.786  22.915  0.00  0.00    +0.000 A 
ENDBRANCH   7  13
BRANCH   1  21
ATOM     20  C   UNL     1      26.344  21.874  30.476  0.00  0.00    +0.000 C 
ATOM     21  O   UNL     1      26.155  23.245  30.160  0.00  0.00    +0.000 OA
ENDBRANCH   1  21
TORSDOF 2
ENDMDL
MODEL 10
REMARK VINA RESULT:      -6.3     22.088     23.770
REMARK  Name = 
REMARK  2 active torsions:
REMARK  status: ('A' for Active; 'I' for Inactive)
REMARK    1  A    between atoms: O_2  and  C_3
REMARK    2  A    between atoms: C_9  and  C_10
REMARK                            x       y       z     vdW  Elec       q    Type
REMARK                         _______ _______ _______ _____ _____    ______ ____
ROOT
ATOM      1  C   UNL     1      20.644   1.326  16.471  0.00  0.00    +0.000 A 
ATOM      2  C   UNL     1      21.155   1.491  17.743  0.00  0.00    +0.000 A 
ATOM      3  C   UNL     1      22.294   2.226  17.981  0.00  0.00    +0.000 A 
ATOM      4  C   UNL     1      22.970   2.827  16.953  0.00  0.00    +0.000 A 
ATOM      5  C   UNL     1      24.119   3.563  17.228  0.00  0.00    +0.000 A 
ATOM      6  O   UNL     1      24.560   3.692  18.410  0.00  0.00    +0.000 OA
ATOM      7  C   UNL     1      24.761   4.146  16.164  0.00  0.00    +0.000 A 
ATOM      8  C   UNL     1      24.203   3.949  14.908  0.00  0.00    +0.000 A 
ATOM      9  C   UNL     1      24.881   4.572  13.744  0.00  0.00    +0.000 C 
ATOM     10  O   UNL     1      23.128   3.254  14.704  0.00  0.00    +0.000 OA
ATOM     11  C   UNL     1      22.473   2.673  15.676  0.00  0.00    +0.000 A 
ATOM     12  C   UNL     1      21.328   1.933  15.451  0.00  0.00    +0.000 A 
ENDROOT
BRANCH   7  13
ATOM     13  C   UNL     1      25.994   4.923  16.346  0.00  0.00    +0.000 A 
ATOM     14  C   UNL     1      27.249   4.368  16.252  0.00  0.00    +0.000 A 
ATOM     15  C   UNL     1      28.372   5.136  16.436  0.00  0.00    +0.000 A 
ATOM     16  C   UNL     1      28.304   6.500  16.720  0.00  0.00    +0.000 A 
ATOM     17  N   UNL     1      29.495   7.280  16.916  0.00  0.00    +0.000 NA
ATOM     18  C   UNL     1      27.044   7.055  16.814  0.00  0.00    +0.000 A 
ATOM     19  C   UNL     1      25.914   6.290  16.633  0.00  0.00    +0.000 A 
ENDBRANCH   7  13
BRANCH   1  21
ATOM     20  C   UNL     1      18.213   1.197  16.391  0.00  0.00    +0.000 C 
ATOM     21  O   UNL     1      19.476   0.573  16.217  0.00  0.00    +0.000 OA
ENDBRANCH   1  21
TORSDOF 2
ENDMDL
