MODEL 1
REMARK VINA RESULT:      -6.9      0.000      0.000
REMARK  Name = 
REMARK  2 active torsions:
REMARK  status: ('A' for Active; 'I' for Inactive)
REMARK    1  A    between atoms: C_8  and  C_9
REMARK    2  A    between atoms: C_17  and  C_19
REMARK                            x       y       z     vdW  Elec       q    Type
REMARK                         _______ _______ _______ _____ _____    ______ ____
ROOT
ATOM      1  C   UNL     1      19.010   7.580  43.517  0.00  0.00    +0.000 C 
ATOM      2  N   UNL     1      18.684   8.205  42.215  0.00  0.00    +0.000 N 
ATOM      3  C   UNL     1      19.566   8.342  41.118  0.00  0.00    +0.000 C 
ATOM      4  O   UNL     1      20.776   7.946  41.087  0.00  0.00    +0.000 OA
ATOM      5  C   UNL     1      18.856   9.010  40.042  0.00  0.00    +0.000 A 
ATOM      6  C   UNL     1      19.214   9.402  38.751  0.00  0.00    +0.000 A 
ATOM      7  C   UNL     1      18.340  10.037  37.895  0.00  0.00    +0.000 A 
ATOM      8  C   UNL     1      17.050  10.307  38.314  0.00  0.00    +0.000 A 
ATOM      9  C   UNL     1      16.698   9.921  39.585  0.00  0.00    +0.000 A 
ATOM     10  C   UNL     1      17.579   9.273  40.464  0.00  0.00    +0.000 A 
ATOM     11  C   UNL     1      17.422   8.778  41.842  0.00  0.00    +0.000 C 
ATOM     12  O   UNL     1      17.053   9.827  42.692  0.00  0.00    +0.000 OA
ENDROOT
BRANCH   8  13
ATOM     13  C   UNL     1      16.098  10.979  37.432  0.00  0.00    +0.000 A 
ATOM     14  C   UNL     1      14.853  11.345  37.893  0.00  0.00    +0.000 A 
ATOM     15  C   UNL     1      13.927  11.986  37.080  0.00  0.00    +0.000 A 
ATOM     16  C   UNL     1      14.268  12.262  35.774  0.00  0.00    +0.000 A 
ATOM     17  C   UNL     1      15.503  11.914  35.267  0.00  0.00    +0.000 A 
ATOM     18  C   UNL     1      16.390  11.278  36.119  0.00  0.00    +0.000 A 
ENDBRANCH   8  13
BRANCH  11  19
ATOM     19  C   UNL     1      16.406   7.647  41.918  0.00  0.00    +0.000 C 
ATOM     20  C   UNL     1      15.121   8.102  41.276  0.00  0.00    +0.000 C 
ATOM     21  C   UNL     1      16.141   7.427  43.411  0.00  0.00    +0.000 C 
ATOM     22  C   UNL     1      16.866   6.399  41.236  0.00  0.00    +0.000 C 
ENDBRANCH  11  19
TORSDOF 2
ENDMDL
MODEL 2
REMARK VINA RESULT:      -6.9     19.650     21.911
REMARK  Name = 
REMARK  2 active torsions:
REMARK  status: ('A' for Active; 'I' for Inactive)
REMARK    1  A    between atoms: C_8  and  C_9
REMARK    2  A    between atoms: C_17  and  C_19
REMARK                            x       y       z     vdW  Elec       q    Type
REMARK                         _______ _______ _______ _____ _____    ______ ____
ROOT
ATOM      1  C   UNL     1      29.430  23.612  31.819  0.00  0.00    +0.000 C 
ATOM      2  N   UNL     1      29.406  23.399  30.354  0.00  0.00    +0.000 N 
ATOM      3  C   UNL     1      30.333  22.630  29.614  0.00  0.00    +0.000 C 
ATOM      4  O   UNL     1      31.330  22.003  30.098  0.00  0.00    +0.000 OA
ATOM      5  C   UNL     1      29.953  22.681  28.213  0.00  0.00    +0.000 A 
ATOM      6  C   UNL     1      30.488  22.125  27.050  0.00  0.00    +0.000 A 
ATOM      7  C   UNL     1      29.933  22.323  25.804  0.00  0.00    +0.000 A 
ATOM      8  C   UNL     1      28.798  23.104  25.680  0.00  0.00    +0.000 A 
ATOM      9  C   UNL     1      28.271  23.653  26.825  0.00  0.00    +0.000 A 
ATOM     10  C   UNL     1      28.829  23.456  28.098  0.00  0.00    +0.000 A 
ATOM     11  C   UNL     1      28.442  23.935  29.436  0.00  0.00    +0.000 C 
ATOM     12  O   UNL     1      28.419  25.334  29.459  0.00  0.00    +0.000 OA
ENDROOT
BRANCH   8  13
ATOM     13  C   UNL     1      28.183  23.336  24.375  0.00  0.00    +0.000 A 
ATOM     14  C   UNL     1      26.813  23.349  24.237  0.00  0.00    +0.000 A 
ATOM     15  C   UNL     1      26.199  23.567  23.010  0.00  0.00    +0.000 A 
ATOM     16  C   UNL     1      26.989  23.775  21.900  0.00  0.00    +0.000 A 
ATOM     17  C   UNL     1      28.366  23.771  21.988  0.00  0.00    +0.000 A 
ATOM     18  C   UNL     1      28.927  23.550  23.234  0.00  0.00    +0.000 A 
ENDBRANCH   8  13
BRANCH  11  19
ATOM     19  C   UNL     1      27.093  23.372  29.864  0.00  0.00    +0.000 C 
ATOM     20  C   UNL     1      26.121  23.519  28.723  0.00  0.00    +0.000 C 
ATOM     21  C   UNL     1      26.618  24.265  31.014  0.00  0.00    +0.000 C 
ATOM     22  C   UNL     1      27.158  21.932  30.256  0.00  0.00    +0.000 C 
ENDBRANCH  11  19
TORSDOF 2
ENDMDL
MODEL 3
REMARK VINA RESULT:      -6.6     23.501     25.381
REMARK  Name = 
REMARK  2 active torsions:
REMARK  status: ('A' for Active; 'I' for Inactive)
REMARK    1  A    between atoms: C_8  and  C_9
REMARK    2  A    between atoms: C_17  and  C_19
REMARK                            x       y       z     vdW  Elec       q    Type
REMARK                         _______ _______ _______ _____ _____    ______ ____
ROOT
ATOM      1  C   UNL     1      22.596  -0.937  15.644  0.00  0.00    +0.000 C 
ATOM      2  N   UNL     1      23.078   0.334  16.231  0.00  0.00    +0.000 N 
ATOM      3  C   UNL     1      22.360   1.155  17.131  0.00  0.00    +0.000 C 
ATOM      4  O   UNL     1      21.188   0.922  17.572  0.00  0.00    +0.000 OA
ATOM      5  C   UNL     1      23.186   2.303  17.461  0.00  0.00    +0.000 A 
ATOM      6  C   UNL     1      23.002   3.417  18.280  0.00  0.00    +0.000 A 
ATOM      7  C   UNL     1      23.959   4.397  18.434  0.00  0.00    +0.000 A 
ATOM      8  C   UNL     1      25.159   4.289  17.756  0.00  0.00    +0.000 A 
ATOM      9  C   UNL     1      25.341   3.192  16.948  0.00  0.00    +0.000 A 
ATOM     10  C   UNL     1      24.373   2.189  16.786  0.00  0.00    +0.000 A 
ATOM     11  C   UNL     1      24.352   0.950  15.989  0.00  0.00    +0.000 C 
ATOM     12  O   UNL     1      24.541   1.244  14.635  0.00  0.00    +0.000 OA
ENDROOT
BRANCH   8  13
ATOM     13  C   UNL     1      26.196   5.310  17.896  0.00  0.00    +0.000 A 
ATOM     14  C   UNL     1      26.931   5.408  19.056  0.00  0.00    +0.000 A 
ATOM     15  C   UNL     1      27.924   6.366  19.219  0.00  0.00    +0.000 A 
ATOM     16  C   UNL     1      28.176   7.244  18.187  0.00  0.00    +0.000 A 
ATOM     17  C   UNL     1      27.465   7.184  17.006  0.00  0.00    +0.000 A 
ATOM     18  C   UNL     1      26.488   6.210  16.894  0.00  0.00    +0.000 A 
ENDBRANCH   8  13
BRANCH  11  19
ATOM     19  C   UNL     1      25.400  -0.044  16.471  0.00  0.00    +0.000 C 
ATOM     20  C   UNL     1      26.704   0.682  16.668  0.00  0.00    +0.000 C 
ATOM     21  C   UNL     1      25.578  -1.045  15.326  0.00  0.00    +0.000 C 
ATOM     22  C   UNL     1      25.025  -0.713  17.755  0.00  0.00    +0.000 C 
ENDBRANCH  11  19
TORSDOF 2
ENDMDL
MODEL 4
REMARK VINA RESULT:      -6.6     21.359     23.557
REMARK  Name = 
REMARK  2 active torsions:
REMARK  status: ('A' for Active; 'I' for Inactive)
REMARK    1  A    between atoms: C_8  and  C_9
REMARK    2  A    between atoms: C_17  and  C_19
REMARK                            x       y       z     vdW  Elec       q    Type
REMARK                         _______ _______ _______ _____ _____    ______ ____
ROOT
ATOM      1  C   UNL     1      26.362  24.000  22.557  0.00  0.00    +0.000 C 
ATOM      2  N   UNL     1      27.436  23.693  23.528  0.00  0.00    +0.000 N 
ATOM      3  C   UNL     1      28.809  23.549  23.225  0.00  0.00    +0.000 C 
ATOM      4  O   UNL     1      29.328  23.662  22.068  0.00  0.00    +0.000 OA
ATOM      5  C   UNL     1      29.519  23.249  24.457  0.00  0.00    +0.000 A 
ATOM      6  C   UNL     1      30.860  23.010  24.760  0.00  0.00    +0.000 A 
ATOM      7  C   UNL     1      31.300  22.741  26.039  0.00  0.00    +0.000 A 
ATOM      8  C   UNL     1      30.388  22.701  27.078  0.00  0.00    +0.000 A 
ATOM      9  C   UNL     1      29.067  22.937  26.779  0.00  0.00    +0.000 A 
ATOM     10  C   UNL     1      28.611  23.212  25.481  0.00  0.00    +0.000 A 
ATOM     11  C   UNL     1      27.269  23.490  24.939  0.00  0.00    +0.000 C 
ATOM     12  O   UNL     1      26.407  22.424  25.215  0.00  0.00    +0.000 OA
ENDROOT
BRANCH   8  13
ATOM     13  C   UNL     1      30.819  22.419  28.445  0.00  0.00    +0.000 A 
ATOM     14  C   UNL     1      30.052  22.814  29.519  0.00  0.00    +0.000 A 
ATOM     15  C   UNL     1      30.434  22.559  30.830  0.00  0.00    +0.000 A 
ATOM     16  C   UNL     1      31.618  21.891  31.059  0.00  0.00    +0.000 A 
ATOM     17  C   UNL     1      32.420  21.476  30.016  0.00  0.00    +0.000 A 
ATOM     18  C   UNL     1      31.993  21.754  28.729  0.00  0.00    +0.000 A 
ENDBRANCH   8  13
BRANCH  11  19
ATOM     19  C   UNL     1      26.702  24.791  25.490  0.00  0.00    +0.000 C 
ATOM     20  C   UNL     1      27.715  25.887  25.290  0.00  0.00    +0.000 C 
ATOM     21  C   UNL     1      26.533  24.565  26.995  0.00  0.00    +0.000 C 
ATOM     22  C   UNL     1      25.422  25.196  24.832  0.00  0.00    +0.000 C 
ENDBRANCH  11  19
TORSDOF 2
ENDMDL
MODEL 5
REMARK VINA RESULT:      -6.6     23.069     24.270
REMARK  Name = 
REMARK  2 active torsions:
REMARK  status: ('A' for Active; 'I' for Inactive)
REMARK    1  A    between atoms: C_8  and  C_9
REMARK    2  A    between atoms: C_17  and  C_19
REMARK                            x       y       z     vdW  Elec       q    Type
REMARK                         _______ _______ _______ _____ _____    ______ ____
ROOT
ATOM      1  C   UNL     1      26.491 -10.238  23.210  0.00  0.00    +0.000 C 
ATOM      2  N   UNL     1      25.392  -9.338  23.629  0.00  0.00    +0.000 N 
ATOM      3  C   UNL     1      25.339  -7.942  23.415  0.00  0.00    +0.000 C 
ATOM      4  O   UNL     1      26.230  -7.247  22.828  0.00  0.00    +0.000 OA
ATOM      5  C   UNL     1      24.098  -7.441  23.980  0.00  0.00    +0.000 A 
ATOM      6  C   UNL     1      23.522  -6.172  24.065  0.00  0.00    +0.000 A 
ATOM      7  C   UNL     1      22.303  -5.944  24.666  0.00  0.00    +0.000 A 
ATOM      8  C   UNL     1      21.606  -7.005  25.215  0.00  0.00    +0.000 A 
ATOM      9  C   UNL     1      22.172  -8.254  25.133  0.00  0.00    +0.000 A 
ATOM     10  C   UNL     1      23.413  -8.496  24.523  0.00  0.00    +0.000 A 
ATOM     11  C   UNL     1      24.197  -9.727  24.322  0.00  0.00    +0.000 C 
ATOM     12  O   UNL     1      24.479 -10.325  25.555  0.00  0.00    +0.000 OA
ENDROOT
BRANCH   8  13
ATOM     13  C   UNL     1      20.310  -6.799  25.860  0.00  0.00    +0.000 A 
ATOM     14  C   UNL     1      19.778  -5.534  25.977  0.00  0.00    +0.000 A 
ATOM     15  C   UNL     1      18.550  -5.306  26.584  0.00  0.00    +0.000 A 
ATOM     16  C   UNL     1      17.846  -6.381  27.083  0.00  0.00    +0.000 A 
ATOM     17  C   UNL     1      18.338  -7.666  26.989  0.00  0.00    +0.000 A 
ATOM     18  C   UNL     1      19.567  -7.839  26.375  0.00  0.00    +0.000 A 
ENDBRANCH   8  13
BRANCH  11  19
ATOM     19  C   UNL     1      23.477 -10.707  23.406  0.00  0.00    +0.000 C 
ATOM     20  C   UNL     1      23.127 -10.004  22.121  0.00  0.00    +0.000 C 
ATOM     21  C   UNL     1      22.173 -11.063  24.125  0.00  0.00    +0.000 C 
ATOM     22  C   UNL     1      24.294 -11.916  23.084  0.00  0.00    +0.000 C 
ENDBRANCH  11  19
TORSDOF 2
ENDMDL
MODEL 6
REMARK VINA RESULT:      -6.5     22.161     23.545
REMARK  Name = 
REMARK  2 active torsions:
REMARK  status: ('A' for Active; 'I' for Inactive)
REMARK    1  A    between atoms: C_8  and  C_9
REMARK    2  A    between atoms: C_17  and  C_19
REMARK                            x       y       z     vdW  Elec       q    Type
REMARK                         _______ _______ _______ _____ _____    ______ ____
ROOT
ATOM      1  C   UNL     1      17.281 -10.556  28.425  0.00  0.00    +0.000 C 
ATOM      2  N   UNL     1      18.303  -9.797  27.669  0.00  0.00    +0.000 N 
ATOM      3  C   UNL     1      18.197  -8.447  27.261  0.00  0.00    +0.000 C 
ATOM      4  O   UNL     1      17.205  -7.681  27.483  0.00  0.00    +0.000 OA
ATOM      5  C   UNL     1      19.411  -8.091  26.547  0.00  0.00    +0.000 A 
ATOM      6  C   UNL     1      19.855  -6.921  25.930  0.00  0.00    +0.000 A 
ATOM      7  C   UNL     1      21.078  -6.826  25.300  0.00  0.00    +0.000 A 
ATOM      8  C   UNL     1      21.914  -7.927  25.268  0.00  0.00    +0.000 A 
ATOM      9  C   UNL     1      21.477  -9.080  25.875  0.00  0.00    +0.000 A 
ATOM     10  C   UNL     1      20.234  -9.185  26.519  0.00  0.00    +0.000 A 
ATOM     11  C   UNL     1      19.572 -10.298  27.223  0.00  0.00    +0.000 C 
ATOM     12  O   UNL     1      19.428 -11.394  26.365  0.00  0.00    +0.000 OA
ENDROOT
BRANCH   8  13
ATOM     13  C   UNL     1      23.217  -7.863  24.609  0.00  0.00    +0.000 A 
ATOM     14  C   UNL     1      23.763  -6.650  24.253  0.00  0.00    +0.000 A 
ATOM     15  C   UNL     1      24.999  -6.555  23.627  0.00  0.00    +0.000 A 
ATOM     16  C   UNL     1      25.697  -7.712  23.355  0.00  0.00    +0.000 A 
ATOM     17  C   UNL     1      25.191  -8.951  23.694  0.00  0.00    +0.000 A 
ATOM     18  C   UNL     1      23.955  -8.989  24.317  0.00  0.00    +0.000 A 
ENDBRANCH   8  13
BRANCH  11  19
ATOM     19  C   UNL     1      20.334 -10.698  28.478  0.00  0.00    +0.000 C 
ATOM     20  C   UNL     1      21.805 -10.747  28.160  0.00  0.00    +0.000 C 
ATOM     21  C   UNL     1      19.870 -12.120  28.808  0.00  0.00    +0.000 C 
ATOM     22  C   UNL     1      20.121  -9.755  29.618  0.00  0.00    +0.000 C 
ENDBRANCH  11  19
TORSDOF 2
ENDMDL
MODEL 7
REMARK VINA RESULT:      -6.4     20.700     22.863
REMARK  Name = 
REMARK  2 active torsions:
REMARK  status: ('A' for Active; 'I' for Inactive)
REMARK    1  A    between atoms: C_8  and  C_9
REMARK    2  A    between atoms: C_17  and  C_19
REMARK                            x       y       z     vdW  Elec       q    Type
REMARK                         _______ _______ _______ _____ _____    ______ ____
ROOT
ATOM      1  C   UNL     1      33.340  -8.711  32.645  0.00  0.00    +0.000 C 
ATOM      2  N   UNL     1      33.501  -7.315  33.112  0.00  0.00    +0.000 N 
ATOM      3  C   UNL     1      33.969  -6.917  34.385  0.00  0.00    +0.000 C 
ATOM      4  O   UNL     1      34.325  -7.701  35.322  0.00  0.00    +0.000 OA
ATOM      5  C   UNL     1      33.973  -5.465  34.436  0.00  0.00    +0.000 A 
ATOM      6  C   UNL     1      34.327  -4.538  35.417  0.00  0.00    +0.000 A 
ATOM      7  C   UNL     1      34.240  -3.176  35.224  0.00  0.00    +0.000 A 
ATOM      8  C   UNL     1      33.785  -2.688  34.012  0.00  0.00    +0.000 A 
ATOM      9  C   UNL     1      33.437  -3.600  33.046  0.00  0.00    +0.000 A 
ATOM     10  C   UNL     1      33.522  -4.988  33.234  0.00  0.00    +0.000 A 
ATOM     11  C   UNL     1      33.209  -6.130  32.356  0.00  0.00    +0.000 C 
ATOM     12  O   UNL     1      31.868  -6.080  31.959  0.00  0.00    +0.000 OA
ENDROOT
BRANCH   8  13
ATOM     13  C   UNL     1      33.681  -1.250  33.773  0.00  0.00    +0.000 A 
ATOM     14  C   UNL     1      32.954  -0.448  34.625  0.00  0.00    +0.000 A 
ATOM     15  C   UNL     1      32.837   0.921  34.425  0.00  0.00    +0.000 A 
ATOM     16  C   UNL     1      33.468   1.491  33.340  0.00  0.00    +0.000 A 
ATOM     17  C   UNL     1      34.206   0.728  32.459  0.00  0.00    +0.000 A 
ATOM     18  C   UNL     1      34.292  -0.632  32.704  0.00  0.00    +0.000 A 
ENDBRANCH   8  13
BRANCH  11  19
ATOM     19  C   UNL     1      34.125  -6.169  31.140  0.00  0.00    +0.000 C 
ATOM     20  C   UNL     1      33.731  -5.060  30.199  0.00  0.00    +0.000 C 
ATOM     21  C   UNL     1      33.838  -7.505  30.449  0.00  0.00    +0.000 C 
ATOM     22  C   UNL     1      35.569  -6.011  31.490  0.00  0.00    +0.000 C 
ENDBRANCH  11  19
TORSDOF 2
ENDMDL
MODEL 8
REMARK VINA RESULT:      -6.3      4.862      6.836
REMARK  Name = 
REMARK  2 active torsions:
REMARK  status: ('A' for Active; 'I' for Inactive)
REMARK    1  A    between atoms: C_8  and  C_9
REMARK    2  A    between atoms: C_17  and  C_19
REMARK                            x       y       z     vdW  Elec       q    Type
REMARK                         _______ _______ _______ _____ _____    ______ ____
ROOT
ATOM      1  C   UNL     1      26.445  11.660  39.004  0.00  0.00    +0.000 C 
ATOM      2  N   UNL     1      25.002  11.955  38.849  0.00  0.00    +0.000 N 
ATOM      3  C   UNL     1      24.401  13.230  38.964  0.00  0.00    +0.000 C 
ATOM      4  O   UNL     1      25.012  14.317  39.219  0.00  0.00    +0.000 OA
ATOM      5  C   UNL     1      22.973  13.082  38.744  0.00  0.00    +0.000 A 
ATOM      6  C   UNL     1      21.903  13.977  38.737  0.00  0.00    +0.000 A 
ATOM      7  C   UNL     1      20.603  13.586  38.497  0.00  0.00    +0.000 A 
ATOM      8  C   UNL     1      20.327  12.253  38.251  0.00  0.00    +0.000 A 
ATOM      9  C   UNL     1      21.381  11.371  38.258  0.00  0.00    +0.000 A 
ATOM     10  C   UNL     1      22.707  11.760  38.501  0.00  0.00    +0.000 A 
ATOM     11  C   UNL     1      23.969  11.002  38.556  0.00  0.00    +0.000 C 
ATOM     12  O   UNL     1      23.890  10.002  39.531  0.00  0.00    +0.000 OA
ENDROOT
BRANCH   8  13
ATOM     13  C   UNL     1      18.961  11.804  37.993  0.00  0.00    +0.000 A 
ATOM     14  C   UNL     1      18.104  12.566  37.231  0.00  0.00    +0.000 A 
ATOM     15  C   UNL     1      16.800  12.166  36.967  0.00  0.00    +0.000 A 
ATOM     16  C   UNL     1      16.355  10.969  37.486  0.00  0.00    +0.000 A 
ATOM     17  C   UNL     1      17.176  10.172  38.255  0.00  0.00    +0.000 A 
ATOM     18  C   UNL     1      18.467  10.616  38.488  0.00  0.00    +0.000 A 
ENDBRANCH   8  13
BRANCH  11  19
ATOM     19  C   UNL     1      24.321  10.401  37.202  0.00  0.00    +0.000 C 
ATOM     20  C   UNL     1      23.205   9.486  36.772  0.00  0.00    +0.000 C 
ATOM     21  C   UNL     1      25.571   9.549  37.440  0.00  0.00    +0.000 C 
ATOM     22  C   UNL     1      24.532  11.432  36.141  0.00  0.00    +0.000 C 
ENDBRANCH  11  19
TORSDOF 2
ENDMDL
MODEL 9
REMARK VINA RESULT:      -6.3     23.497     25.607
REMARK  Name = 
REMARK  2 active torsions:
REMARK  status: ('A' for Active; 'I' for Inactive)
REMARK    1  A    between atoms: C_8  and  C_9
REMARK    2  A    between atoms: C_17  and  C_19
REMARK                            x       y       z     vdW  Elec       q    Type
REMARK                         _______ _______ _______ _____ _____    ______ ____
ROOT
ATOM      1  C   UNL     1      20.911   0.717  15.157  0.00  0.00    +0.000 C 
ATOM      2  N   UNL     1      21.910   1.523  15.894  0.00  0.00    +0.000 N 
ATOM      3  C   UNL     1      22.154   1.469  17.286  0.00  0.00    +0.000 C 
ATOM      4  O   UNL     1      21.549   0.716  18.115  0.00  0.00    +0.000 OA
ATOM      5  C   UNL     1      23.208   2.418  17.602  0.00  0.00    +0.000 A 
ATOM      6  C   UNL     1      23.846   2.787  18.787  0.00  0.00    +0.000 A 
ATOM      7  C   UNL     1      24.843   3.738  18.833  0.00  0.00    +0.000 A 
ATOM      8  C   UNL     1      25.242   4.363  17.665  0.00  0.00    +0.000 A 
ATOM      9  C   UNL     1      24.613   4.000  16.499  0.00  0.00    +0.000 A 
ATOM     10  C   UNL     1      23.598   3.034  16.442  0.00  0.00    +0.000 A 
ATOM     11  C   UNL     1      22.800   2.496  15.326  0.00  0.00    +0.000 C 
ATOM     12  O   UNL     1      22.106   3.529  14.687  0.00  0.00    +0.000 OA
ENDROOT
BRANCH   8  13
ATOM     13  C   UNL     1      26.295   5.376  17.678  0.00  0.00    +0.000 A 
ATOM     14  C   UNL     1      26.937   5.707  18.851  0.00  0.00    +0.000 A 
ATOM     15  C   UNL     1      27.942   6.664  18.895  0.00  0.00    +0.000 A 
ATOM     16  C   UNL     1      28.306   7.299  17.728  0.00  0.00    +0.000 A 
ATOM     17  C   UNL     1      27.693   7.002  16.528  0.00  0.00    +0.000 A 
ATOM     18  C   UNL     1      26.697   6.040  16.539  0.00  0.00    +0.000 A 
ENDBRANCH   8  13
BRANCH  11  19
ATOM     19  C   UNL     1      23.669   1.741  14.329  0.00  0.00    +0.000 C 
ATOM     20  C   UNL     1      24.685   2.692  13.752  0.00  0.00    +0.000 C 
ATOM     21  C   UNL     1      22.726   1.309  13.202  0.00  0.00    +0.000 C 
ATOM     22  C   UNL     1      24.390   0.583  14.940  0.00  0.00    +0.000 C 
ENDBRANCH  11  19
TORSDOF 2
ENDMDL
MODEL 10
REMARK VINA RESULT:      -6.2     18.036     19.624
REMARK  Name = 
REMARK  2 active torsions:
REMARK  status: ('A' for Active; 'I' for Inactive)
REMARK    1  A    between atoms: C_8  and  C_9
REMARK    2  A    between atoms: C_17  and  C_19
REMARK                            x       y       z     vdW  Elec       q    Type
REMARK                         _______ _______ _______ _____ _____    ______ ____
ROOT
ATOM      1  C   UNL     1      32.569  -3.133  36.027  0.00  0.00    +0.000 C 
ATOM      2  N   UNL     1      33.016  -1.751  36.314  0.00  0.00    +0.000 N 
ATOM      3  C   UNL     1      33.452  -1.266  37.569  0.00  0.00    +0.000 C 
ATOM      4  O   UNL     1      33.525  -1.948  38.641  0.00  0.00    +0.000 OA
ATOM      5  C   UNL     1      33.798   0.137  37.420  0.00  0.00    +0.000 A 
ATOM      6  C   UNL     1      34.274   1.108  38.301  0.00  0.00    +0.000 A 
ATOM      7  C   UNL     1      34.533   2.405  37.913  0.00  0.00    +0.000 A 
ATOM      8  C   UNL     1      34.318   2.779  36.599  0.00  0.00    +0.000 A 
ATOM      9  C   UNL     1      33.848   1.823  35.732  0.00  0.00    +0.000 A 
ATOM     10  C   UNL     1      33.582   0.500  36.117  0.00  0.00    +0.000 A 
ATOM     11  C   UNL     1      33.084  -0.670  35.372  0.00  0.00    +0.000 C 
ATOM     12  O   UNL     1      31.835  -0.388  34.809  0.00  0.00    +0.000 OA
ENDROOT
BRANCH   8  13
ATOM     13  C   UNL     1      34.582   4.146  36.154  0.00  0.00    +0.000 A 
ATOM     14  C   UNL     1      33.573   4.915  35.616  0.00  0.00    +0.000 A 
ATOM     15  C   UNL     1      33.792   6.217  35.185  0.00  0.00    +0.000 A 
ATOM     16  C   UNL     1      35.058   6.751  35.299  0.00  0.00    +0.000 A 
ATOM     17  C   UNL     1      36.099   6.019  35.831  0.00  0.00    +0.000 A 
ATOM     18  C   UNL     1      35.828   4.726  36.246  0.00  0.00    +0.000 A 
ENDBRANCH   8  13
BRANCH  11  19
ATOM     19  C   UNL     1      34.068  -1.109  34.297  0.00  0.00    +0.000 C 
ATOM     20  C   UNL     1      33.561  -2.376  33.660  0.00  0.00    +0.000 C 
ATOM     21  C   UNL     1      35.370  -1.435  35.035  0.00  0.00    +0.000 C 
ATOM     22  C   UNL     1      34.265  -0.081  33.229  0.00  0.00    +0.000 C 
ENDBRANCH  11  19
TORSDOF 2
ENDMDL
