MODEL 1
REMARK VINA RESULT:      -8.5      0.000      0.000
REMARK  Name = 
REMARK  7 active torsions:
REMARK  status: ('A' for Active; 'I' for Inactive)
REMARK    1  A    between atoms: C_3  and  C_4
REMARK    2  A    between atoms: N_6  and  C_7
REMARK    3  A    between atoms: C_7  and  C_9
REMARK    4  A    between atoms: C_9  and  C_10
REMARK    5  A    between atoms: C_10  and  C_11
REMARK    6  A    between atoms: N_24  and  C_25
REMARK    7  A    between atoms: C_25  and  C_26
REMARK                            x       y       z     vdW  Elec       q    Type
REMARK                         _______ _______ _______ _____ _____    ______ ____
ROOT
ATOM      1  C   UNL     1      35.578   0.368  16.424  0.00  0.00    +0.000 C 
ATOM      2  C   UNL     1      36.852  -0.325  16.088  0.00  0.00    +0.000 A 
ATOM      3  C   UNL     1      37.860   0.191  15.327  0.00  0.00    +0.000 A 
ATOM      4  C   UNL     1      38.855  -0.779  15.263  0.00  0.00    +0.000 A 
ATOM      5  C   UNL     1      40.086  -0.808  14.640  0.00  0.00    +0.000 A 
ATOM      6  C   UNL     1      40.878  -1.931  14.752  0.00  0.00    +0.000 A 
ATOM      7  O   UNL     1      42.121  -1.965  14.125  0.00  0.00    +0.000 OA
ATOM      8  C   UNL     1      40.427  -3.006  15.484  0.00  0.00    +0.000 A 
ATOM      9  C   UNL     1      39.194  -2.943  16.093  0.00  0.00    +0.000 A 
ATOM     10  C   UNL     1      38.373  -1.844  16.007  0.00  0.00    +0.000 A 
ATOM     11  N   UNL     1      37.153  -1.567  16.509  0.00  0.00    +0.000 N 
ENDROOT
BRANCH   3  12
ATOM     12  C   UNL     1      37.960   1.497  14.668  0.00  0.00    +0.000 C 
ATOM     13  O   UNL     1      37.674   1.626  13.461  0.00  0.00    +0.000 OA
ATOM     14  N   UNL     1      38.372   2.582  15.393  0.00  0.00    +0.000 NA
BRANCH  14  15
ATOM     15  C   UNL     1      38.523   4.012  14.835  0.00  0.00    +0.000 C 
ATOM     16  C   UNL     1      37.020   4.498  15.361  0.00  0.00    +0.000 C 
BRANCH  15  17
ATOM     17  C   UNL     1      39.287   4.651  16.116  0.00  0.00    +0.000 C 
BRANCH  17  18
ATOM     18  C   UNL     1      38.253   5.518  16.788  0.00  0.00    +0.000 C 
BRANCH  18  19
ATOM     19  C   UNL     1      38.705   6.179  18.007  0.00  0.00    +0.000 A 
ATOM     20  C   UNL     1      39.793   5.708  18.714  0.00  0.00    +0.000 A 
ATOM     21  C   UNL     1      40.215   6.345  19.859  0.00  0.00    +0.000 A 
ATOM     22  C   UNL     1      39.551   7.452  20.297  0.00  0.00    +0.000 A 
ATOM     23  C   UNL     1      38.462   7.960  19.630  0.00  0.00    +0.000 A 
ATOM     24  C   UNL     1      38.061   7.308  18.492  0.00  0.00    +0.000 A 
ENDBRANCH  18  19
ENDBRANCH  17  18
ENDBRANCH  15  17
ENDBRANCH  14  15
ENDBRANCH   3  12
BRANCH  11  25
ATOM     25  C   UNL     1      36.357  -2.465  17.337  0.00  0.00    +0.000 C 
BRANCH  25  26
ATOM     26  C   UNL     1      35.657  -3.457  16.472  0.00  0.00    +0.000 A 
ATOM     27  C   UNL     1      34.519  -3.202  15.797  0.00  0.00    +0.000 A 
ATOM     28  C   UNL     1      33.996  -4.165  15.064  0.00  0.00    +0.000 A 
ATOM     29  C   UNL     1      34.632  -5.372  15.027  0.00  0.00    +0.000 A 
ATOM     30  S   UNL     1      35.984  -5.083  16.061  0.00  0.00    +0.000 S 
ENDBRANCH  25  26
ENDBRANCH  11  25
TORSDOF 7
ENDMDL
MODEL 2
REMARK VINA RESULT:      -8.1      1.804      2.582
REMARK  Name = 
REMARK  7 active torsions:
REMARK  status: ('A' for Active; 'I' for Inactive)
REMARK    1  A    between atoms: C_3  and  C_4
REMARK    2  A    between atoms: N_6  and  C_7
REMARK    3  A    between atoms: C_7  and  C_9
REMARK    4  A    between atoms: C_9  and  C_10
REMARK    5  A    between atoms: C_10  and  C_11
REMARK    6  A    between atoms: N_24  and  C_25
REMARK    7  A    between atoms: C_25  and  C_26
REMARK                            x       y       z     vdW  Elec       q    Type
REMARK                         _______ _______ _______ _____ _____    ______ ____
ROOT
ATOM      1  C   UNL     1      36.172  -0.034  15.833  0.00  0.00    +0.000 C 
ATOM      2  C   UNL     1      37.562  -0.421  15.468  0.00  0.00    +0.000 A 
ATOM      3  C   UNL     1      38.490   0.399  14.894  0.00  0.00    +0.000 A 
ATOM      4  C   UNL     1      39.645  -0.357  14.722  0.00  0.00    +0.000 A 
ATOM      5  C   UNL     1      40.885  -0.054  14.197  0.00  0.00    +0.000 A 
ATOM      6  C   UNL     1      41.862  -1.026  14.154  0.00  0.00    +0.000 A 
ATOM      7  O   UNL     1      43.114  -0.725  13.625  0.00  0.00    +0.000 OA
ATOM      8  C   UNL     1      41.583  -2.285  14.635  0.00  0.00    +0.000 A 
ATOM      9  C   UNL     1      40.336  -2.554  15.152  0.00  0.00    +0.000 A 
ATOM     10  C   UNL     1      39.335  -1.615  15.214  0.00  0.00    +0.000 A 
ATOM     11  N   UNL     1      38.066  -1.653  15.668  0.00  0.00    +0.000 N 
ENDROOT
BRANCH   3  12
ATOM     12  C   UNL     1      38.379   1.806  14.502  0.00  0.00    +0.000 C 
ATOM     13  O   UNL     1      38.150   2.123  13.317  0.00  0.00    +0.000 OA
ATOM     14  N   UNL     1      38.529   2.780  15.452  0.00  0.00    +0.000 NA
BRANCH  14  15
ATOM     15  C   UNL     1      38.439   4.296  15.186  0.00  0.00    +0.000 C 
ATOM     16  C   UNL     1      36.791   4.354  15.427  0.00  0.00    +0.000 C 
BRANCH  15  17
ATOM     17  C   UNL     1      38.776   4.788  16.695  0.00  0.00    +0.000 C 
BRANCH  17  18
ATOM     18  C   UNL     1      39.877   5.804  16.532  0.00  0.00    +0.000 C 
BRANCH  18  19
ATOM     19  C   UNL     1      40.614   6.113  17.752  0.00  0.00    +0.000 A 
ATOM     20  C   UNL     1      41.955   6.434  17.716  0.00  0.00    +0.000 A 
ATOM     21  C   UNL     1      42.638   6.731  18.873  0.00  0.00    +0.000 A 
ATOM     22  C   UNL     1      41.981   6.707  20.067  0.00  0.00    +0.000 A 
ATOM     23  C   UNL     1      40.646   6.393  20.158  0.00  0.00    +0.000 A 
ATOM     24  C   UNL     1      39.988   6.101  18.991  0.00  0.00    +0.000 A 
ENDBRANCH  18  19
ENDBRANCH  17  18
ENDBRANCH  15  17
ENDBRANCH  14  15
ENDBRANCH   3  12
BRANCH  11  25
ATOM     25  C   UNL     1      37.412  -2.819  16.251  0.00  0.00    +0.000 C 
BRANCH  25  26
ATOM     26  C   UNL     1      37.756  -2.916  17.698  0.00  0.00    +0.000 A 
ATOM     27  C   UNL     1      38.589  -3.839  18.218  0.00  0.00    +0.000 A 
ATOM     28  C   UNL     1      38.813  -3.822  19.517  0.00  0.00    +0.000 A 
ATOM     29  C   UNL     1      38.190  -2.870  20.271  0.00  0.00    +0.000 A 
ATOM     30  S   UNL     1      37.287  -2.015  19.072  0.00  0.00    +0.000 S 
ENDBRANCH  25  26
ENDBRANCH  11  25
TORSDOF 7
ENDMDL
MODEL 3
REMARK VINA RESULT:      -7.9      2.887      4.536
REMARK  Name = 
REMARK  7 active torsions:
REMARK  status: ('A' for Active; 'I' for Inactive)
REMARK    1  A    between atoms: C_3  and  C_4
REMARK    2  A    between atoms: N_6  and  C_7
REMARK    3  A    between atoms: C_7  and  C_9
REMARK    4  A    between atoms: C_9  and  C_10
REMARK    5  A    between atoms: C_10  and  C_11
REMARK    6  A    between atoms: N_24  and  C_25
REMARK    7  A    between atoms: C_25  and  C_26
REMARK                            x       y       z     vdW  Elec       q    Type
REMARK                         _______ _______ _______ _____ _____    ______ ____
ROOT
ATOM      1  C   UNL     1      39.214  -0.065  12.439  0.00  0.00    +0.000 C 
ATOM      2  C   UNL     1      39.034  -0.738  13.754  0.00  0.00    +0.000 A 
ATOM      3  C   UNL     1      38.255  -0.284  14.779  0.00  0.00    +0.000 A 
ATOM      4  C   UNL     1      38.371  -1.207  15.814  0.00  0.00    +0.000 A 
ATOM      5  C   UNL     1      37.814  -1.263  17.076  0.00  0.00    +0.000 A 
ATOM      6  C   UNL     1      38.115  -2.322  17.905  0.00  0.00    +0.000 A 
ATOM      7  O   UNL     1      37.556  -2.384  19.178  0.00  0.00    +0.000 OA
ATOM      8  C   UNL     1      38.968  -3.308  17.460  0.00  0.00    +0.000 A 
ATOM      9  C   UNL     1      39.506  -3.220  16.196  0.00  0.00    +0.000 A 
ATOM     10  C   UNL     1      39.232  -2.182  15.337  0.00  0.00    +0.000 A 
ATOM     11  N   UNL     1      39.635  -1.896  14.084  0.00  0.00    +0.000 N 
ENDROOT
BRANCH   3  12
ATOM     12  C   UNL     1      37.429   0.924  14.861  0.00  0.00    +0.000 C 
ATOM     13  O   UNL     1      36.221   0.893  14.553  0.00  0.00    +0.000 OA
ATOM     14  N   UNL     1      37.997   2.096  15.281  0.00  0.00    +0.000 NA
BRANCH  14  15
ATOM     15  C   UNL     1      37.254   3.440  15.415  0.00  0.00    +0.000 C 
ATOM     16  C   UNL     1      36.831   3.177  17.005  0.00  0.00    +0.000 C 
BRANCH  15  17
ATOM     17  C   UNL     1      38.541   4.347  15.806  0.00  0.00    +0.000 C 
BRANCH  17  18
ATOM     18  C   UNL     1      38.304   4.758  17.236  0.00  0.00    +0.000 C 
BRANCH  18  19
ATOM     19  C   UNL     1      39.411   5.471  17.862  0.00  0.00    +0.000 A 
ATOM     20  C   UNL     1      39.370   5.828  19.195  0.00  0.00    +0.000 A 
ATOM     21  C   UNL     1      40.425   6.493  19.776  0.00  0.00    +0.000 A 
ATOM     22  C   UNL     1      41.521   6.803  19.028  0.00  0.00    +0.000 A 
ATOM     23  C   UNL     1      41.611   6.470  17.697  0.00  0.00    +0.000 A 
ATOM     24  C   UNL     1      40.548   5.808  17.140  0.00  0.00    +0.000 A 
ENDBRANCH  18  19
ENDBRANCH  17  18
ENDBRANCH  15  17
ENDBRANCH  14  15
ENDBRANCH   3  12
BRANCH  11  25
ATOM     25  C   UNL     1      40.543  -2.708  13.282  0.00  0.00    +0.000 C 
BRANCH  25  26
ATOM     26  C   UNL     1      41.951  -2.294  13.544  0.00  0.00    +0.000 A 
ATOM     27  C   UNL     1      42.306  -1.325  14.411  0.00  0.00    +0.000 A 
ATOM     28  C   UNL     1      43.587  -1.050  14.555  0.00  0.00    +0.000 A 
ATOM     29  C   UNL     1      44.490  -1.759  13.816  0.00  0.00    +0.000 A 
ATOM     30  S   UNL     1      43.456  -2.817  12.926  0.00  0.00    +0.000 S 
ENDBRANCH  25  26
ENDBRANCH  11  25
TORSDOF 7
ENDMDL
MODEL 4
REMARK VINA RESULT:      -7.4     25.354     28.282
REMARK  Name = 
REMARK  7 active torsions:
REMARK  status: ('A' for Active; 'I' for Inactive)
REMARK    1  A    between atoms: C_3  and  C_4
REMARK    2  A    between atoms: N_6  and  C_7
REMARK    3  A    between atoms: C_7  and  C_9
REMARK    4  A    between atoms: C_9  and  C_10
REMARK    5  A    between atoms: C_10  and  C_11
REMARK    6  A    between atoms: N_24  and  C_25
REMARK    7  A    between atoms: C_25  and  C_26
REMARK                            x       y       z     vdW  Elec       q    Type
REMARK                         _______ _______ _______ _____ _____    ______ ____
ROOT
ATOM      1  C   UNL     1      29.944  15.482  40.245  0.00  0.00    +0.000 C 
ATOM      2  C   UNL     1      29.423  14.097  40.402  0.00  0.00    +0.000 A 
ATOM      3  C   UNL     1      28.107  13.750  40.509  0.00  0.00    +0.000 A 
ATOM      4  C   UNL     1      28.063  12.366  40.639  0.00  0.00    +0.000 A 
ATOM      5  C   UNL     1      27.015  11.479  40.781  0.00  0.00    +0.000 A 
ATOM      6  C   UNL     1      27.277  10.130  40.890  0.00  0.00    +0.000 A 
ATOM      7  O   UNL     1      26.224   9.231  41.033  0.00  0.00    +0.000 OA
ATOM      8  C   UNL     1      28.581   9.689  40.856  0.00  0.00    +0.000 A 
ATOM      9  C   UNL     1      29.602  10.602  40.713  0.00  0.00    +0.000 A 
ATOM     10  C   UNL     1      29.385  11.954  40.601  0.00  0.00    +0.000 A 
ATOM     11  N   UNL     1      30.213  13.008  40.456  0.00  0.00    +0.000 N 
ENDROOT
BRANCH   3  12
ATOM     12  C   UNL     1      26.913  14.601  40.500  0.00  0.00    +0.000 C 
ATOM     13  O   UNL     1      26.357  14.931  41.567  0.00  0.00    +0.000 OA
ATOM     14  N   UNL     1      26.408  15.033  39.304  0.00  0.00    +0.000 NA
BRANCH  14  15
ATOM     15  C   UNL     1      25.163  15.928  39.142  0.00  0.00    +0.000 C 
ATOM     16  C   UNL     1      26.032  17.224  38.559  0.00  0.00    +0.000 C 
BRANCH  15  17
ATOM     17  C   UNL     1      24.739  15.421  37.661  0.00  0.00    +0.000 C 
BRANCH  17  18
ATOM     18  C   UNL     1      25.941  15.703  36.797  0.00  0.00    +0.000 C 
BRANCH  18  19
ATOM     19  C   UNL     1      25.674  15.731  35.363  0.00  0.00    +0.000 A 
ATOM     20  C   UNL     1      25.885  14.618  34.575  0.00  0.00    +0.000 A 
ATOM     21  C   UNL     1      25.621  14.654  33.225  0.00  0.00    +0.000 A 
ATOM     22  C   UNL     1      25.147  15.801  32.661  0.00  0.00    +0.000 A 
ATOM     23  C   UNL     1      24.920  16.937  33.402  0.00  0.00    +0.000 A 
ATOM     24  C   UNL     1      25.190  16.876  34.745  0.00  0.00    +0.000 A 
ENDBRANCH  18  19
ENDBRANCH  17  18
ENDBRANCH  15  17
ENDBRANCH  14  15
ENDBRANCH   3  12
BRANCH  11  25
ATOM     25  C   UNL     1      31.667  12.936  40.380  0.00  0.00    +0.000 C 
BRANCH  25  26
ATOM     26  C   UNL     1      32.102  13.044  38.959  0.00  0.00    +0.000 A 
ATOM     27  C   UNL     1      31.878  12.098  38.026  0.00  0.00    +0.000 A 
ATOM     28  C   UNL     1      32.313  12.311  36.799  0.00  0.00    +0.000 A 
ATOM     29  C   UNL     1      32.969  13.480  36.537  0.00  0.00    +0.000 A 
ATOM     30  S   UNL     1      32.940  14.248  38.083  0.00  0.00    +0.000 S 
ENDBRANCH  25  26
ENDBRANCH  11  25
TORSDOF 7
ENDMDL
MODEL 5
REMARK VINA RESULT:      -7.3      2.838      4.637
REMARK  Name = 
REMARK  7 active torsions:
REMARK  status: ('A' for Active; 'I' for Inactive)
REMARK    1  A    between atoms: C_3  and  C_4
REMARK    2  A    between atoms: N_6  and  C_7
REMARK    3  A    between atoms: C_7  and  C_9
REMARK    4  A    between atoms: C_9  and  C_10
REMARK    5  A    between atoms: C_10  and  C_11
REMARK    6  A    between atoms: N_24  and  C_25
REMARK    7  A    between atoms: C_25  and  C_26
REMARK                            x       y       z     vdW  Elec       q    Type
REMARK                         _______ _______ _______ _____ _____    ______ ____
ROOT
ATOM      1  C   UNL     1      39.154   2.268  12.931  0.00  0.00    +0.000 C 
ATOM      2  C   UNL     1      38.237   1.406  13.725  0.00  0.00    +0.000 A 
ATOM      3  C   UNL     1      37.446   1.826  14.756  0.00  0.00    +0.000 A 
ATOM      4  C   UNL     1      36.756   0.709  15.215  0.00  0.00    +0.000 A 
ATOM      5  C   UNL     1      35.831   0.539  16.226  0.00  0.00    +0.000 A 
ATOM      6  C   UNL     1      35.302  -0.713  16.460  0.00  0.00    +0.000 A 
ATOM      7  O   UNL     1      34.369  -0.890  17.477  0.00  0.00    +0.000 OA
ATOM      8  C   UNL     1      35.708  -1.774  15.682  0.00  0.00    +0.000 A 
ATOM      9  C   UNL     1      36.632  -1.569  14.683  0.00  0.00    +0.000 A 
ATOM     10  C   UNL     1      37.184  -0.339  14.416  0.00  0.00    +0.000 A 
ATOM     11  N   UNL     1      38.085   0.086  13.509  0.00  0.00    +0.000 N 
ENDROOT
BRANCH   3  12
ATOM     12  C   UNL     1      37.292   3.165  15.330  0.00  0.00    +0.000 C 
ATOM     13  O   UNL     1      36.318   3.882  15.026  0.00  0.00    +0.000 OA
ATOM     14  N   UNL     1      38.233   3.628  16.210  0.00  0.00    +0.000 NA
BRANCH  14  15
ATOM     15  C   UNL     1      38.202   5.012  16.890  0.00  0.00    +0.000 C 
ATOM     16  C   UNL     1      38.417   4.390  18.420  0.00  0.00    +0.000 C 
BRANCH  15  17
ATOM     17  C   UNL     1      39.775   5.365  16.706  0.00  0.00    +0.000 C 
BRANCH  17  18
ATOM     18  C   UNL     1      39.984   6.623  17.508  0.00  0.00    +0.000 C 
BRANCH  18  19
ATOM     19  C   UNL     1      41.173   6.623  18.352  0.00  0.00    +0.000 A 
ATOM     20  C   UNL     1      41.083   6.427  19.715  0.00  0.00    +0.000 A 
ATOM     21  C   UNL     1      42.214   6.421  20.500  0.00  0.00    +0.000 A 
ATOM     22  C   UNL     1      43.434   6.609  19.924  0.00  0.00    +0.000 A 
ATOM     23  C   UNL     1      43.578   6.809  18.571  0.00  0.00    +0.000 A 
ATOM     24  C   UNL     1      42.438   6.811  17.811  0.00  0.00    +0.000 A 
ENDBRANCH  18  19
ENDBRANCH  17  18
ENDBRANCH  15  17
ENDBRANCH  14  15
ENDBRANCH   3  12
BRANCH  11  25
ATOM     25  C   UNL     1      38.740  -0.752  12.511  0.00  0.00    +0.000 C 
BRANCH  25  26
ATOM     26  C   UNL     1      40.038  -1.252  13.049  0.00  0.00    +0.000 A 
ATOM     27  C   UNL     1      40.170  -2.372  13.785  0.00  0.00    +0.000 A 
ATOM     28  C   UNL     1      41.374  -2.710  14.204  0.00  0.00    +0.000 A 
ATOM     29  C   UNL     1      42.426  -1.906  13.870  0.00  0.00    +0.000 A 
ATOM     30  S   UNL     1      41.642  -0.672  12.951  0.00  0.00    +0.000 S 
ENDBRANCH  25  26
ENDBRANCH  11  25
TORSDOF 7
ENDMDL
MODEL 6
REMARK VINA RESULT:      -7.2     26.880     29.815
REMARK  Name = 
REMARK  7 active torsions:
REMARK  status: ('A' for Active; 'I' for Inactive)
REMARK    1  A    between atoms: C_3  and  C_4
REMARK    2  A    between atoms: N_6  and  C_7
REMARK    3  A    between atoms: C_7  and  C_9
REMARK    4  A    between atoms: C_9  and  C_10
REMARK    5  A    between atoms: C_10  and  C_11
REMARK    6  A    between atoms: N_24  and  C_25
REMARK    7  A    between atoms: C_25  and  C_26
REMARK                            x       y       z     vdW  Elec       q    Type
REMARK                         _______ _______ _______ _____ _____    ______ ____
ROOT
ATOM      1  C   UNL     1      11.494   1.476   7.203  0.00  0.00    +0.000 C 
ATOM      2  C   UNL     1      10.668   1.536   8.440  0.00  0.00    +0.000 A 
ATOM      3  C   UNL     1      10.421   2.657   9.178  0.00  0.00    +0.000 A 
ATOM      4  C   UNL     1       9.613   2.271  10.241  0.00  0.00    +0.000 A 
ATOM      5  C   UNL     1       9.060   2.975  11.292  0.00  0.00    +0.000 A 
ATOM      6  C   UNL     1       8.282   2.315  12.219  0.00  0.00    +0.000 A 
ATOM      7  O   UNL     1       7.721   3.021  13.280  0.00  0.00    +0.000 OA
ATOM      8  C   UNL     1       8.069   0.961  12.081  0.00  0.00    +0.000 A 
ATOM      9  C   UNL     1       8.636   0.290  11.022  0.00  0.00    +0.000 A 
ATOM     10  C   UNL     1       9.418   0.909  10.076  0.00  0.00    +0.000 A 
ATOM     11  N   UNL     1      10.060   0.462   8.979  0.00  0.00    +0.000 N 
ENDROOT
BRANCH   3  12
ATOM     12  C   UNL     1      10.877   4.034   8.966  0.00  0.00    +0.000 C 
ATOM     13  O   UNL     1      11.956   4.430   9.448  0.00  0.00    +0.000 OA
ATOM     14  N   UNL     1      10.103   4.889   8.228  0.00  0.00    +0.000 NA
BRANCH  14  15
ATOM     15  C   UNL     1      10.454   6.359   7.924  0.00  0.00    +0.000 C 
ATOM     16  C   UNL     1      10.041   6.243   6.315  0.00  0.00    +0.000 C 
BRANCH  15  17
ATOM     17  C   UNL     1       9.025   7.001   8.346  0.00  0.00    +0.000 C 
BRANCH  17  18
ATOM     18  C   UNL     1       8.743   6.447   9.719  0.00  0.00    +0.000 C 
BRANCH  18  19
ATOM     19  C   UNL     1       7.330   6.362  10.069  0.00  0.00    +0.000 A 
ATOM     20  C   UNL     1       6.346   6.661   9.148  0.00  0.00    +0.000 A 
ATOM     21  C   UNL     1       5.016   6.570   9.488  0.00  0.00    +0.000 A 
ATOM     22  C   UNL     1       4.667   6.180  10.746  0.00  0.00    +0.000 A 
ATOM     23  C   UNL     1       5.608   5.871  11.700  0.00  0.00    +0.000 A 
ATOM     24  C   UNL     1       6.926   5.970  11.338  0.00  0.00    +0.000 A 
ENDBRANCH  18  19
ENDBRANCH  17  18
ENDBRANCH  15  17
ENDBRANCH  14  15
ENDBRANCH   3  12
BRANCH  11  25
ATOM     25  C   UNL     1      10.069  -0.918   8.509  0.00  0.00    +0.000 C 
BRANCH  25  26
ATOM     26  C   UNL     1      11.046  -1.714   9.304  0.00  0.00    +0.000 A 
ATOM     27  C   UNL     1      12.382  -1.555   9.238  0.00  0.00    +0.000 A 
ATOM     28  C   UNL     1      13.144  -2.322   9.994  0.00  0.00    +0.000 A 
ATOM     29  C   UNL     1      12.539  -3.239  10.805  0.00  0.00    +0.000 A 
ATOM     30  S   UNL     1      10.871  -2.968  10.452  0.00  0.00    +0.000 S 
ENDBRANCH  25  26
ENDBRANCH  11  25
TORSDOF 7
ENDMDL
MODEL 7
REMARK VINA RESULT:      -7.2      3.976      9.364
REMARK  Name = 
REMARK  7 active torsions:
REMARK  status: ('A' for Active; 'I' for Inactive)
REMARK    1  A    between atoms: C_3  and  C_4
REMARK    2  A    between atoms: N_6  and  C_7
REMARK    3  A    between atoms: C_7  and  C_9
REMARK    4  A    between atoms: C_9  and  C_10
REMARK    5  A    between atoms: C_10  and  C_11
REMARK    6  A    between atoms: N_24  and  C_25
REMARK    7  A    between atoms: C_25  and  C_26
REMARK                            x       y       z     vdW  Elec       q    Type
REMARK                         _______ _______ _______ _____ _____    ______ ____
ROOT
ATOM      1  C   UNL     1      38.530   4.937  18.500  0.00  0.00    +0.000 C 
ATOM      2  C   UNL     1      39.737   5.483  17.823  0.00  0.00    +0.000 A 
ATOM      3  C   UNL     1      40.001   5.406  16.486  0.00  0.00    +0.000 A 
ATOM      4  C   UNL     1      41.223   6.037  16.279  0.00  0.00    +0.000 A 
ATOM      5  C   UNL     1      41.975   6.258  15.142  0.00  0.00    +0.000 A 
ATOM      6  C   UNL     1      43.176   6.927  15.239  0.00  0.00    +0.000 A 
ATOM      7  O   UNL     1      43.937   7.153  14.096  0.00  0.00    +0.000 OA
ATOM      8  C   UNL     1      43.607   7.364  16.472  0.00  0.00    +0.000 A 
ATOM      9  C   UNL     1      42.833   7.127  17.585  0.00  0.00    +0.000 A 
ATOM     10  C   UNL     1      41.630   6.464  17.532  0.00  0.00    +0.000 A 
ATOM     11  N   UNL     1      40.725   6.127  18.472  0.00  0.00    +0.000 N 
ENDROOT
BRANCH   3  12
ATOM     12  C   UNL     1      39.211   4.799  15.411  0.00  0.00    +0.000 C 
ATOM     13  O   UNL     1      38.686   5.505  14.528  0.00  0.00    +0.000 OA
ATOM     14  N   UNL     1      39.053   3.440  15.383  0.00  0.00    +0.000 NA
BRANCH  14  15
ATOM     15  C   UNL     1      38.252   2.665  14.317  0.00  0.00    +0.000 C 
ATOM     16  C   UNL     1      39.293   1.365  14.316  0.00  0.00    +0.000 C 
BRANCH  15  17
ATOM     17  C   UNL     1      37.204   1.951  15.329  0.00  0.00    +0.000 C 
BRANCH  17  18
ATOM     18  C   UNL     1      37.013   0.564  14.771  0.00  0.00    +0.000 C 
BRANCH  18  19
ATOM     19  C   UNL     1      36.142  -0.301  15.558  0.00  0.00    +0.000 A 
ATOM     20  C   UNL     1      35.372   0.205  16.586  0.00  0.00    +0.000 A 
ATOM     21  C   UNL     1      34.548  -0.620  17.317  0.00  0.00    +0.000 A 
ATOM     22  C   UNL     1      34.493  -1.950  17.022  0.00  0.00    +0.000 A 
ATOM     23  C   UNL     1      35.240  -2.503  16.010  0.00  0.00    +0.000 A 
ATOM     24  C   UNL     1      36.053  -1.661  15.296  0.00  0.00    +0.000 A 
ENDBRANCH  18  19
ENDBRANCH  17  18
ENDBRANCH  15  17
ENDBRANCH  14  15
ENDBRANCH   3  12
BRANCH  11  25
ATOM     25  C   UNL     1      40.836   6.421  19.896  0.00  0.00    +0.000 C 
BRANCH  25  26
ATOM     26  C   UNL     1      40.225   7.749  20.184  0.00  0.00    +0.000 A 
ATOM     27  C   UNL     1      38.955   7.923  20.600  0.00  0.00    +0.000 A 
ATOM     28  C   UNL     1      38.530   9.151  20.822  0.00  0.00    +0.000 A 
ATOM     29  C   UNL     1      39.398  10.185  20.618  0.00  0.00    +0.000 A 
ATOM     30  S   UNL     1      40.819   9.349  20.107  0.00  0.00    +0.000 S 
ENDBRANCH  25  26
ENDBRANCH  11  25
TORSDOF 7
ENDMDL
MODEL 8
REMARK VINA RESULT:      -7.1      3.423      6.611
REMARK  Name = 
REMARK  7 active torsions:
REMARK  status: ('A' for Active; 'I' for Inactive)
REMARK    1  A    between atoms: C_3  and  C_4
REMARK    2  A    between atoms: N_6  and  C_7
REMARK    3  A    between atoms: C_7  and  C_9
REMARK    4  A    between atoms: C_9  and  C_10
REMARK    5  A    between atoms: C_10  and  C_11
REMARK    6  A    between atoms: N_24  and  C_25
REMARK    7  A    between atoms: C_25  and  C_26
REMARK                            x       y       z     vdW  Elec       q    Type
REMARK                         _______ _______ _______ _____ _____    ______ ____
ROOT
ATOM      1  C   UNL     1      36.695   0.332  13.265  0.00  0.00    +0.000 C 
ATOM      2  C   UNL     1      36.681   0.006  14.717  0.00  0.00    +0.000 A 
ATOM      3  C   UNL     1      37.315  -1.053  15.300  0.00  0.00    +0.000 A 
ATOM      4  C   UNL     1      37.044  -0.985  16.662  0.00  0.00    +0.000 A 
ATOM      5  C   UNL     1      37.418  -1.783  17.725  0.00  0.00    +0.000 A 
ATOM      6  C   UNL     1      36.990  -1.466  18.997  0.00  0.00    +0.000 A 
ATOM      7  O   UNL     1      37.365  -2.267  20.072  0.00  0.00    +0.000 OA
ATOM      8  C   UNL     1      36.195  -0.358  19.186  0.00  0.00    +0.000 A 
ATOM      9  C   UNL     1      35.840   0.415  18.104  0.00  0.00    +0.000 A 
ATOM     10  C   UNL     1      36.245   0.135  16.820  0.00  0.00    +0.000 A 
ATOM     11  N   UNL     1      36.024   0.739  15.635  0.00  0.00    +0.000 N 
ENDROOT
BRANCH   3  12
ATOM     12  C   UNL     1      38.138  -2.101  14.689  0.00  0.00    +0.000 C 
ATOM     13  O   UNL     1      37.730  -3.277  14.628  0.00  0.00    +0.000 OA
ATOM     14  N   UNL     1      39.368  -1.776  14.183  0.00  0.00    +0.000 NA
BRANCH  14  15
ATOM     15  C   UNL     1      40.339  -2.770  13.515  0.00  0.00    +0.000 C 
ATOM     16  C   UNL     1      39.738  -2.503  11.984  0.00  0.00    +0.000 C 
BRANCH  15  17
ATOM     17  C   UNL     1      41.578  -1.742  13.315  0.00  0.00    +0.000 C 
BRANCH  17  18
ATOM     18  C   UNL     1      41.328  -0.640  14.312  0.00  0.00    +0.000 C 
BRANCH  18  19
ATOM     19  C   UNL     1      41.081   0.673  13.727  0.00  0.00    +0.000 A 
ATOM     20  C   UNL     1      41.779   1.104  12.617  0.00  0.00    +0.000 A 
ATOM     21  C   UNL     1      41.531   2.342  12.069  0.00  0.00    +0.000 A 
ATOM     22  C   UNL     1      40.587   3.149  12.628  0.00  0.00    +0.000 A 
ATOM     23  C   UNL     1      39.864   2.767  13.734  0.00  0.00    +0.000 A 
ATOM     24  C   UNL     1      40.129   1.530  14.262  0.00  0.00    +0.000 A 
ENDBRANCH  18  19
ENDBRANCH  17  18
ENDBRANCH  15  17
ENDBRANCH  14  15
ENDBRANCH   3  12
BRANCH  11  25
ATOM     25  C   UNL     1      35.225   1.942  15.436  0.00  0.00    +0.000 C 
BRANCH  25  26
ATOM     26  C   UNL     1      36.113   3.139  15.431  0.00  0.00    +0.000 A 
ATOM     27  C   UNL     1      36.127   4.067  14.453  0.00  0.00    +0.000 A 
ATOM     28  C   UNL     1      36.960   5.083  14.563  0.00  0.00    +0.000 A 
ATOM     29  C   UNL     1      37.768   5.144  15.662  0.00  0.00    +0.000 A 
ATOM     30  S   UNL     1      37.298   3.719  16.517  0.00  0.00    +0.000 S 
ENDBRANCH  25  26
ENDBRANCH  11  25
TORSDOF 7
ENDMDL
MODEL 9
REMARK VINA RESULT:      -7.0     26.242     29.600
REMARK  Name = 
REMARK  7 active torsions:
REMARK  status: ('A' for Active; 'I' for Inactive)
REMARK    1  A    between atoms: C_3  and  C_4
REMARK    2  A    between atoms: N_6  and  C_7
REMARK    3  A    between atoms: C_7  and  C_9
REMARK    4  A    between atoms: C_9  and  C_10
REMARK    5  A    between atoms: C_10  and  C_11
REMARK    6  A    between atoms: N_24  and  C_25
REMARK    7  A    between atoms: C_25  and  C_26
REMARK                            x       y       z     vdW  Elec       q    Type
REMARK                         _______ _______ _______ _____ _____    ______ ____
ROOT
ATOM      1  C   UNL     1      24.270  20.113  36.492  0.00  0.00    +0.000 C 
ATOM      2  C   UNL     1      24.589  18.908  35.680  0.00  0.00    +0.000 A 
ATOM      3  C   UNL     1      25.101  17.738  36.161  0.00  0.00    +0.000 A 
ATOM      4  C   UNL     1      25.246  16.883  35.073  0.00  0.00    +0.000 A 
ATOM      5  C   UNL     1      25.712  15.588  34.964  0.00  0.00    +0.000 A 
ATOM      6  C   UNL     1      25.742  14.978  33.729  0.00  0.00    +0.000 A 
ATOM      7  O   UNL     1      26.210  13.672  33.613  0.00  0.00    +0.000 OA
ATOM      8  C   UNL     1      25.308  15.672  32.621  0.00  0.00    +0.000 A 
ATOM      9  C   UNL     1      24.850  16.962  32.766  0.00  0.00    +0.000 A 
ATOM     10  C   UNL     1      24.803  17.607  33.978  0.00  0.00    +0.000 A 
ATOM     11  N   UNL     1      24.402  18.840  34.348  0.00  0.00    +0.000 N 
ENDROOT
BRANCH   3  12
ATOM     12  C   UNL     1      25.458  17.369  37.533  0.00  0.00    +0.000 C 
ATOM     13  O   UNL     1      26.384  17.952  38.131  0.00  0.00    +0.000 OA
ATOM     14  N   UNL     1      24.762  16.370  38.160  0.00  0.00    +0.000 NA
BRANCH  14  15
ATOM     15  C   UNL     1      25.026  15.877  39.597  0.00  0.00    +0.000 C 
ATOM     16  C   UNL     1      23.458  15.366  39.831  0.00  0.00    +0.000 C 
BRANCH  15  17
ATOM     17  C   UNL     1      25.556  14.393  39.209  0.00  0.00    +0.000 C 
BRANCH  17  18
ATOM     18  C   UNL     1      26.645  14.100  40.209  0.00  0.00    +0.000 C 
BRANCH  18  19
ATOM     19  C   UNL     1      26.384  12.963  41.085  0.00  0.00    +0.000 A 
ATOM     20  C   UNL     1      26.939  11.725  40.835  0.00  0.00    +0.000 A 
ATOM     21  C   UNL     1      26.692  10.662  41.673  0.00  0.00    +0.000 A 
ATOM     22  C   UNL     1      25.891  10.835  42.762  0.00  0.00    +0.000 A 
ATOM     23  C   UNL     1      25.313  12.048  43.055  0.00  0.00    +0.000 A 
ATOM     24  C   UNL     1      25.574  13.091  42.205  0.00  0.00    +0.000 A 
ENDBRANCH  18  19
ENDBRANCH  17  18
ENDBRANCH  15  17
ENDBRANCH  14  15
ENDBRANCH   3  12
BRANCH  11  25
ATOM     25  C   UNL     1      23.879  19.863  33.451  0.00  0.00    +0.000 C 
BRANCH  25  26
ATOM     26  C   UNL     1      25.008  20.622  32.842  0.00  0.00    +0.000 A 
ATOM     27  C   UNL     1      25.089  20.939  31.534  0.00  0.00    +0.000 A 
ATOM     28  C   UNL     1      26.140  21.615  31.116  0.00  0.00    +0.000 A 
ATOM     29  C   UNL     1      27.095  21.960  32.028  0.00  0.00    +0.000 A 
ATOM     30  S   UNL     1      26.443  21.293  33.482  0.00  0.00    +0.000 S 
ENDBRANCH  25  26
ENDBRANCH  11  25
TORSDOF 7
ENDMDL
MODEL 10
REMARK VINA RESULT:      -7.0      2.313      3.631
REMARK  Name = 
REMARK  7 active torsions:
REMARK  status: ('A' for Active; 'I' for Inactive)
REMARK    1  A    between atoms: C_3  and  C_4
REMARK    2  A    between atoms: N_6  and  C_7
REMARK    3  A    between atoms: C_7  and  C_9
REMARK    4  A    between atoms: C_9  and  C_10
REMARK    5  A    between atoms: C_10  and  C_11
REMARK    6  A    between atoms: N_24  and  C_25
REMARK    7  A    between atoms: C_25  and  C_26
REMARK                            x       y       z     vdW  Elec       q    Type
REMARK                         _______ _______ _______ _____ _____    ______ ____
ROOT
ATOM      1  C   UNL     1      38.920  -1.160  12.214  0.00  0.00    +0.000 C 
ATOM      2  C   UNL     1      37.937  -0.814  13.276  0.00  0.00    +0.000 A 
ATOM      3  C   UNL     1      37.539   0.448  13.610  0.00  0.00    +0.000 A 
ATOM      4  C   UNL     1      36.618   0.321  14.645  0.00  0.00    +0.000 A 
ATOM      5  C   UNL     1      35.897   1.250  15.367  0.00  0.00    +0.000 A 
ATOM      6  C   UNL     1      35.039   0.824  16.358  0.00  0.00    +0.000 A 
ATOM      7  O   UNL     1      34.309   1.757  17.089  0.00  0.00    +0.000 OA
ATOM      8  C   UNL     1      34.915  -0.523  16.612  0.00  0.00    +0.000 A 
ATOM      9  C   UNL     1      35.650  -1.423  15.873  0.00  0.00    +0.000 A 
ATOM     10  C   UNL     1      36.516  -1.041  14.876  0.00  0.00    +0.000 A 
ATOM     11  N   UNL     1      37.319  -1.732  14.043  0.00  0.00    +0.000 N 
ENDROOT
BRANCH   3  12
ATOM     12  C   UNL     1      37.948   1.737  13.045  0.00  0.00    +0.000 C 
ATOM     13  O   UNL     1      37.851   1.957  11.821  0.00  0.00    +0.000 OA
ATOM     14  N   UNL     1      38.441   2.706  13.876  0.00  0.00    +0.000 NA
BRANCH  14  15
ATOM     15  C   UNL     1      38.909   4.104  13.425  0.00  0.00    +0.000 C 
ATOM     16  C   UNL     1      37.630   4.890  14.146  0.00  0.00    +0.000 C 
BRANCH  15  17
ATOM     17  C   UNL     1      39.914   4.394  14.665  0.00  0.00    +0.000 C 
BRANCH  17  18
ATOM     18  C   UNL     1      39.333   5.600  15.358  0.00  0.00    +0.000 C 
BRANCH  18  19
ATOM     19  C   UNL     1      39.839   5.836  16.705  0.00  0.00    +0.000 A 
ATOM     20  C   UNL     1      41.132   6.269  16.918  0.00  0.00    +0.000 A 
ATOM     21  C   UNL     1      41.595   6.497  18.194  0.00  0.00    +0.000 A 
ATOM     22  C   UNL     1      40.768   6.292  19.257  0.00  0.00    +0.000 A 
ATOM     23  C   UNL     1      39.471   5.861  19.099  0.00  0.00    +0.000 A 
ATOM     24  C   UNL     1      39.033   5.641  17.819  0.00  0.00    +0.000 A 
ENDBRANCH  18  19
ENDBRANCH  17  18
ENDBRANCH  15  17
ENDBRANCH  14  15
ENDBRANCH   3  12
BRANCH  11  25
ATOM     25  C   UNL     1      37.460  -3.183  14.014  0.00  0.00    +0.000 C 
BRANCH  25  26
ATOM     26  C   UNL     1      37.859  -3.676  15.363  0.00  0.00    +0.000 A 
ATOM     27  C   UNL     1      37.241  -4.681  16.014  0.00  0.00    +0.000 A 
ATOM     28  C   UNL     1      37.690  -5.027  17.205  0.00  0.00    +0.000 A 
ATOM     29  C   UNL     1      38.757  -4.348  17.719  0.00  0.00    +0.000 A 
ATOM     30  S   UNL     1      39.089  -3.217  16.456  0.00  0.00    +0.000 S 
ENDBRANCH  25  26
ENDBRANCH  11  25
TORSDOF 7
ENDMDL
