MODEL 1
REMARK VINA RESULT:      -7.1      0.000      0.000
REMARK  Name = 
REMARK  2 active torsions:
REMARK  status: ('A' for Active; 'I' for Inactive)
REMARK    1  A    between atoms: C_9  and  N_10
REMARK    2  A    between atoms: N_10  and  C_11
REMARK                            x       y       z     vdW  Elec       q    Type
REMARK                         _______ _______ _______ _____ _____    ______ ____
ROOT
ATOM      1  C   UNL     1      31.522  22.360  28.768  0.00  0.00    +0.000 C 
ATOM      2  C   UNL     1      31.181  22.772  27.364  0.00  0.00    +0.000 A 
ATOM      3  C   UNL     1      32.142  23.247  26.500  0.00  0.00    +0.000 A 
ATOM      4  C   UNL     1      31.869  23.632  25.212  0.00  0.00    +0.000 A 
ATOM      5  C   UNL     1      30.566  23.547  24.733  0.00  0.00    +0.000 A 
ATOM      6  N   UNL     1      30.250  23.911  23.482  0.00  0.00    +0.000 NA
ATOM      7  C   UNL     1      29.003  23.843  22.986  0.00  0.00    +0.000 A 
ATOM      8  C   UNL     1      27.997  23.371  23.815  0.00  0.00    +0.000 A 
ATOM      9  C   UNL     1      28.302  22.994  25.101  0.00  0.00    +0.000 A 
ATOM     10  C   UNL     1      29.593  23.077  25.575  0.00  0.00    +0.000 A 
ATOM     11  C   UNL     1      29.890  22.687  26.892  0.00  0.00    +0.000 A 
ATOM     12  C   UNL     1      26.707  23.376  23.082  0.00  0.00    +0.000 C 
ATOM     13  C   UNL     1      26.973  24.207  21.848  0.00  0.00    +0.000 C 
ATOM     14  C   UNL     1      28.458  24.190  21.657  0.00  0.00    +0.000 C 
ENDROOT
BRANCH   9  15
ATOM     15  N   UNL     1      27.318  22.503  25.999  0.00  0.00    +0.000 NA
BRANCH  15  16
ATOM     16  C   UNL     1      26.576  23.362  26.866  0.00  0.00    +0.000 A 
ATOM     17  C   UNL     1      25.635  24.236  26.364  0.00  0.00    +0.000 A 
ATOM     18  C   UNL     1      24.904  25.079  27.187  0.00  0.00    +0.000 A 
ATOM     19  C   UNL     1      25.089  25.078  28.553  0.00  0.00    +0.000 A 
ATOM     20  O   UNL     1      24.372  25.910  29.402  0.00  0.00    +0.000 OA
ATOM     21  C   UNL     1      26.029  24.204  29.057  0.00  0.00    +0.000 A 
ATOM     22  C   UNL     1      26.766  23.356  28.232  0.00  0.00    +0.000 A 
ENDBRANCH  15  16
ENDBRANCH   9  15
TORSDOF 2
ENDMDL
MODEL 2
REMARK VINA RESULT:      -6.9      2.546      6.127
REMARK  Name = 
REMARK  2 active torsions:
REMARK  status: ('A' for Active; 'I' for Inactive)
REMARK    1  A    between atoms: C_9  and  N_10
REMARK    2  A    between atoms: N_10  and  C_11
REMARK                            x       y       z     vdW  Elec       q    Type
REMARK                         _______ _______ _______ _____ _____    ______ ____
ROOT
ATOM      1  C   UNL     1      23.498  25.683  26.886  0.00  0.00    +0.000 C 
ATOM      2  C   UNL     1      24.791  25.262  27.525  0.00  0.00    +0.000 A 
ATOM      3  C   UNL     1      25.158  25.715  28.772  0.00  0.00    +0.000 A 
ATOM      4  C   UNL     1      26.329  25.352  29.388  0.00  0.00    +0.000 A 
ATOM      5  C   UNL     1      27.203  24.486  28.741  0.00  0.00    +0.000 A 
ATOM      6  N   UNL     1      28.359  24.102  29.301  0.00  0.00    +0.000 NA
ATOM      7  C   UNL     1      29.228  23.268  28.705  0.00  0.00    +0.000 A 
ATOM      8  C   UNL     1      28.907  22.782  27.448  0.00  0.00    +0.000 A 
ATOM      9  C   UNL     1      27.726  23.164  26.857  0.00  0.00    +0.000 A 
ATOM     10  C   UNL     1      26.859  24.022  27.499  0.00  0.00    +0.000 A 
ATOM     11  C   UNL     1      25.655  24.404  26.882  0.00  0.00    +0.000 A 
ATOM     12  C   UNL     1      29.988  21.886  26.970  0.00  0.00    +0.000 C 
ATOM     13  C   UNL     1      31.140  22.143  27.914  0.00  0.00    +0.000 C 
ATOM     14  C   UNL     1      30.533  22.733  29.149  0.00  0.00    +0.000 C 
ENDROOT
BRANCH   9  15
ATOM     15  N   UNL     1      27.339  22.703  25.571  0.00  0.00    +0.000 NA
BRANCH  15  16
ATOM     16  C   UNL     1      27.917  23.213  24.368  0.00  0.00    +0.000 A 
ATOM     17  C   UNL     1      27.141  23.448  23.252  0.00  0.00    +0.000 A 
ATOM     18  C   UNL     1      27.680  23.941  22.075  0.00  0.00    +0.000 A 
ATOM     19  C   UNL     1      29.025  24.223  21.969  0.00  0.00    +0.000 A 
ATOM     20  O   UNL     1      29.595  24.718  20.804  0.00  0.00    +0.000 OA
ATOM     21  C   UNL     1      29.802  23.989  23.085  0.00  0.00    +0.000 A 
ATOM     22  C   UNL     1      29.263  23.493  24.269  0.00  0.00    +0.000 A 
ENDBRANCH  15  16
ENDBRANCH   9  15
TORSDOF 2
ENDMDL
MODEL 3
REMARK VINA RESULT:      -6.9     18.860     21.507
REMARK  Name = 
REMARK  2 active torsions:
REMARK  status: ('A' for Active; 'I' for Inactive)
REMARK    1  A    between atoms: C_9  and  N_10
REMARK    2  A    between atoms: N_10  and  C_11
REMARK                            x       y       z     vdW  Elec       q    Type
REMARK                         _______ _______ _______ _____ _____    ______ ____
ROOT
ATOM      1  C   UNL     1      18.742   7.748  41.633  0.00  0.00    +0.000 C 
ATOM      2  C   UNL     1      17.648   8.528  40.960  0.00  0.00    +0.000 A 
ATOM      3  C   UNL     1      16.410   8.678  41.541  0.00  0.00    +0.000 A 
ATOM      4  C   UNL     1      15.387   9.383  40.957  0.00  0.00    +0.000 A 
ATOM      5  C   UNL     1      15.589   9.984  39.719  0.00  0.00    +0.000 A 
ATOM      6  N   UNL     1      14.622  10.683  39.109  0.00  0.00    +0.000 NA
ATOM      7  C   UNL     1      14.781  11.276  37.913  0.00  0.00    +0.000 A 
ATOM      8  C   UNL     1      16.010  11.155  37.285  0.00  0.00    +0.000 A 
ATOM      9  C   UNL     1      17.014  10.442  37.895  0.00  0.00    +0.000 A 
ATOM     10  C   UNL     1      16.814   9.847  39.122  0.00  0.00    +0.000 A 
ATOM     11  C   UNL     1      17.851   9.121  39.734  0.00  0.00    +0.000 A 
ATOM     12  C   UNL     1      15.978  11.876  35.988  0.00  0.00    +0.000 C 
ATOM     13  C   UNL     1      14.512  12.156  35.745  0.00  0.00    +0.000 C 
ATOM     14  C   UNL     1      13.854  12.078  37.087  0.00  0.00    +0.000 C 
ENDROOT
BRANCH   9  15
ATOM     15  N   UNL     1      18.295  10.281  37.304  0.00  0.00    +0.000 NA
BRANCH  15  16
ATOM     16  C   UNL     1      19.410  11.101  37.656  0.00  0.00    +0.000 A 
ATOM     17  C   UNL     1      19.234  12.421  38.017  0.00  0.00    +0.000 A 
ATOM     18  C   UNL     1      20.301  13.235  38.362  0.00  0.00    +0.000 A 
ATOM     19  C   UNL     1      21.594  12.756  38.359  0.00  0.00    +0.000 A 
ATOM     20  O   UNL     1      22.682  13.547  38.700  0.00  0.00    +0.000 OA
ATOM     21  C   UNL     1      21.771  11.437  37.999  0.00  0.00    +0.000 A 
ATOM     22  C   UNL     1      20.701  10.616  37.652  0.00  0.00    +0.000 A 
ENDBRANCH  15  16
ENDBRANCH   9  15
TORSDOF 2
ENDMDL
MODEL 4
REMARK VINA RESULT:      -6.8      2.672      5.177
REMARK  Name = 
REMARK  2 active torsions:
REMARK  status: ('A' for Active; 'I' for Inactive)
REMARK    1  A    between atoms: C_9  and  N_10
REMARK    2  A    between atoms: N_10  and  C_11
REMARK                            x       y       z     vdW  Elec       q    Type
REMARK                         _______ _______ _______ _____ _____    ______ ____
ROOT
ATOM      1  C   UNL     1      27.847  22.308  30.341  0.00  0.00    +0.000 C 
ATOM      2  C   UNL     1      27.414  22.804  28.991  0.00  0.00    +0.000 A 
ATOM      3  C   UNL     1      26.195  23.416  28.807  0.00  0.00    +0.000 A 
ATOM      4  C   UNL     1      25.765  23.883  27.590  0.00  0.00    +0.000 A 
ATOM      5  C   UNL     1      26.583  23.741  26.475  0.00  0.00    +0.000 A 
ATOM      6  N   UNL     1      26.208  24.180  25.265  0.00  0.00    +0.000 NA
ATOM      7  C   UNL     1      26.972  24.060  24.166  0.00  0.00    +0.000 A 
ATOM      8  C   UNL     1      28.209  23.450  24.296  0.00  0.00    +0.000 A 
ATOM      9  C   UNL     1      28.612  22.992  25.528  0.00  0.00    +0.000 A 
ATOM     10  C   UNL     1      27.801  23.134  26.634  0.00  0.00    +0.000 A 
ATOM     11  C   UNL     1      28.226  22.662  27.888  0.00  0.00    +0.000 A 
ATOM     12  C   UNL     1      28.889  23.416  22.977  0.00  0.00    +0.000 C 
ATOM     13  C   UNL     1      27.804  23.762  21.983  0.00  0.00    +0.000 C 
ATOM     14  C   UNL     1      26.743  24.472  22.765  0.00  0.00    +0.000 C 
ENDROOT
BRANCH   9  15
ATOM     15  N   UNL     1      29.866  22.359  25.729  0.00  0.00    +0.000 NA
BRANCH  15  16
ATOM     16  C   UNL     1      31.087  23.094  25.841  0.00  0.00    +0.000 A 
ATOM     17  C   UNL     1      31.812  23.440  24.720  0.00  0.00    +0.000 A 
ATOM     18  C   UNL     1      32.998  24.152  24.805  0.00  0.00    +0.000 A 
ATOM     19  C   UNL     1      33.506  24.547  26.024  0.00  0.00    +0.000 A 
ATOM     20  O   UNL     1      34.691  25.261  26.141  0.00  0.00    +0.000 OA
ATOM     21  C   UNL     1      32.782  24.202  27.145  0.00  0.00    +0.000 A 
ATOM     22  C   UNL     1      31.590  23.486  27.063  0.00  0.00    +0.000 A 
ENDBRANCH  15  16
ENDBRANCH   9  15
TORSDOF 2
ENDMDL
MODEL 5
REMARK VINA RESULT:      -6.7      2.999      5.854
REMARK  Name = 
REMARK  2 active torsions:
REMARK  status: ('A' for Active; 'I' for Inactive)
REMARK    1  A    between atoms: C_9  and  N_10
REMARK    2  A    between atoms: N_10  and  C_11
REMARK                            x       y       z     vdW  Elec       q    Type
REMARK                         _______ _______ _______ _____ _____    ______ ____
ROOT
ATOM      1  C   UNL     1      27.449  21.959  30.429  0.00  0.00    +0.000 C 
ATOM      2  C   UNL     1      26.695  23.156  29.924  0.00  0.00    +0.000 A 
ATOM      3  C   UNL     1      26.319  24.177  30.767  0.00  0.00    +0.000 A 
ATOM      4  C   UNL     1      25.631  25.286  30.343  0.00  0.00    +0.000 A 
ATOM      5  C   UNL     1      25.286  25.406  29.001  0.00  0.00    +0.000 A 
ATOM      6  N   UNL     1      24.614  26.470  28.539  0.00  0.00    +0.000 NA
ATOM      7  C   UNL     1      24.265  26.620  27.250  0.00  0.00    +0.000 A 
ATOM      8  C   UNL     1      24.619  25.620  26.358  0.00  0.00    +0.000 A 
ATOM      9  C   UNL     1      25.308  24.521  26.814  0.00  0.00    +0.000 A 
ATOM     10  C   UNL     1      25.650  24.402  28.144  0.00  0.00    +0.000 A 
ATOM     11  C   UNL     1      26.355  23.273  28.595  0.00  0.00    +0.000 A 
ATOM     12  C   UNL     1      24.143  25.974  24.999  0.00  0.00    +0.000 C 
ATOM     13  C   UNL     1      23.180  27.118  25.219  0.00  0.00    +0.000 C 
ATOM     14  C   UNL     1      23.535  27.700  26.552  0.00  0.00    +0.000 C 
ENDROOT
BRANCH   9  15
ATOM     15  N   UNL     1      25.700  23.462  25.952  0.00  0.00    +0.000 NA
BRANCH  15  16
ATOM     16  C   UNL     1      26.722  23.617  24.965  0.00  0.00    +0.000 A 
ATOM     17  C   UNL     1      28.040  23.795  25.330  0.00  0.00    +0.000 A 
ATOM     18  C   UNL     1      29.046  23.947  24.389  0.00  0.00    +0.000 A 
ATOM     19  C   UNL     1      28.770  23.925  23.039  0.00  0.00    +0.000 A 
ATOM     20  O   UNL     1      29.756  24.074  22.074  0.00  0.00    +0.000 OA
ATOM     21  C   UNL     1      27.452  23.747  22.673  0.00  0.00    +0.000 A 
ATOM     22  C   UNL     1      26.438  23.594  23.616  0.00  0.00    +0.000 A 
ENDBRANCH  15  16
ENDBRANCH   9  15
TORSDOF 2
ENDMDL
MODEL 6
REMARK VINA RESULT:      -6.7      3.073      5.325
REMARK  Name = 
REMARK  2 active torsions:
REMARK  status: ('A' for Active; 'I' for Inactive)
REMARK    1  A    between atoms: C_9  and  N_10
REMARK    2  A    between atoms: N_10  and  C_11
REMARK                            x       y       z     vdW  Elec       q    Type
REMARK                         _______ _______ _______ _____ _____    ______ ____
ROOT
ATOM      1  C   UNL     1      33.753  24.329  24.953  0.00  0.00    +0.000 C 
ATOM      2  C   UNL     1      32.301  24.009  25.171  0.00  0.00    +0.000 A 
ATOM      3  C   UNL     1      31.837  23.569  26.390  0.00  0.00    +0.000 A 
ATOM      4  C   UNL     1      30.519  23.269  26.627  0.00  0.00    +0.000 A 
ATOM      5  C   UNL     1      29.589  23.408  25.603  0.00  0.00    +0.000 A 
ATOM      6  N   UNL     1      28.291  23.127  25.785  0.00  0.00    +0.000 NA
ATOM      7  C   UNL     1      27.366  23.249  24.818  0.00  0.00    +0.000 A 
ATOM      8  C   UNL     1      27.780  23.688  23.571  0.00  0.00    +0.000 A 
ATOM      9  C   UNL     1      29.107  23.981  23.364  0.00  0.00    +0.000 A 
ATOM     10  C   UNL     1      30.029  23.844  24.381  0.00  0.00    +0.000 A 
ATOM     11  C   UNL     1      31.382  24.148  24.154  0.00  0.00    +0.000 A 
ATOM     12  C   UNL     1      26.616  23.753  22.655  0.00  0.00    +0.000 C 
ATOM     13  C   UNL     1      25.524  22.994  23.373  0.00  0.00    +0.000 C 
ATOM     14  C   UNL     1      25.910  22.994  24.819  0.00  0.00    +0.000 C 
ENDROOT
BRANCH   9  15
ATOM     15  N   UNL     1      29.596  24.435  22.111  0.00  0.00    +0.000 NA
BRANCH  15  16
ATOM     16  C   UNL     1      29.426  25.781  21.665  0.00  0.00    +0.000 A 
ATOM     17  C   UNL     1      29.456  26.093  20.321  0.00  0.00    +0.000 A 
ATOM     18  C   UNL     1      29.294  27.391  19.866  0.00  0.00    +0.000 A 
ATOM     19  C   UNL     1      29.094  28.435  20.743  0.00  0.00    +0.000 A 
ATOM     20  O   UNL     1      28.929  29.746  20.318  0.00  0.00    +0.000 OA
ATOM     21  C   UNL     1      29.064  28.126  22.087  0.00  0.00    +0.000 A 
ATOM     22  C   UNL     1      29.227  26.821  22.548  0.00  0.00    +0.000 A 
ENDBRANCH  15  16
ENDBRANCH   9  15
TORSDOF 2
ENDMDL
MODEL 7
REMARK VINA RESULT:      -6.6      3.020      6.327
REMARK  Name = 
REMARK  2 active torsions:
REMARK  status: ('A' for Active; 'I' for Inactive)
REMARK    1  A    between atoms: C_9  and  N_10
REMARK    2  A    between atoms: N_10  and  C_11
REMARK                            x       y       z     vdW  Elec       q    Type
REMARK                         _______ _______ _______ _____ _____    ______ ____
ROOT
ATOM      1  C   UNL     1      23.089  26.482  25.371  0.00  0.00    +0.000 C 
ATOM      2  C   UNL     1      24.303  25.694  25.776  0.00  0.00    +0.000 A 
ATOM      3  C   UNL     1      24.544  25.370  27.092  0.00  0.00    +0.000 A 
ATOM      4  C   UNL     1      25.640  24.652  27.499  0.00  0.00    +0.000 A 
ATOM      5  C   UNL     1      26.566  24.220  26.555  0.00  0.00    +0.000 A 
ATOM      6  N   UNL     1      27.652  23.517  26.903  0.00  0.00    +0.000 NA
ATOM      7  C   UNL     1      28.567  23.084  26.019  0.00  0.00    +0.000 A 
ATOM      8  C   UNL     1      28.372  23.384  24.680  0.00  0.00    +0.000 A 
ATOM      9  C   UNL     1      27.264  24.105  24.303  0.00  0.00    +0.000 A 
ATOM     10  C   UNL     1      26.346  24.532  25.239  0.00  0.00    +0.000 A 
ATOM     11  C   UNL     1      25.218  25.268  24.839  0.00  0.00    +0.000 A 
ATOM     12  C   UNL     1      29.485  22.821  23.877  0.00  0.00    +0.000 C 
ATOM     13  C   UNL     1      30.537  22.445  24.896  0.00  0.00    +0.000 C 
ATOM     14  C   UNL     1      29.812  22.307  26.199  0.00  0.00    +0.000 C 
ENDROOT
BRANCH   9  15
ATOM     15  N   UNL     1      27.007  24.446  22.949  0.00  0.00    +0.000 NA
BRANCH  15  16
ATOM     16  C   UNL     1      27.733  25.468  22.265  0.00  0.00    +0.000 A 
ATOM     17  C   UNL     1      28.723  25.150  21.359  0.00  0.00    +0.000 A 
ATOM     18  C   UNL     1      29.440  26.125  20.685  0.00  0.00    +0.000 A 
ATOM     19  C   UNL     1      29.191  27.464  20.891  0.00  0.00    +0.000 A 
ATOM     20  O   UNL     1      29.892  28.464  20.231  0.00  0.00    +0.000 OA
ATOM     21  C   UNL     1      28.201  27.784  21.796  0.00  0.00    +0.000 A 
ATOM     22  C   UNL     1      27.478  26.807  22.476  0.00  0.00    +0.000 A 
ENDBRANCH  15  16
ENDBRANCH   9  15
TORSDOF 2
ENDMDL
MODEL 8
REMARK VINA RESULT:      -6.6     15.610     17.949
REMARK  Name = 
REMARK  2 active torsions:
REMARK  status: ('A' for Active; 'I' for Inactive)
REMARK    1  A    between atoms: C_9  and  N_10
REMARK    2  A    between atoms: N_10  and  C_11
REMARK                            x       y       z     vdW  Elec       q    Type
REMARK                         _______ _______ _______ _____ _____    ______ ____
ROOT
ATOM      1  C   UNL     1      14.417  25.908  22.125  0.00  0.00    +0.000 C 
ATOM      2  C   UNL     1      13.922  24.573  21.645  0.00  0.00    +0.000 A 
ATOM      3  C   UNL     1      14.790  23.598  21.211  0.00  0.00    +0.000 A 
ATOM      4  C   UNL     1      14.375  22.367  20.766  0.00  0.00    +0.000 A 
ATOM      5  C   UNL     1      13.017  22.069  20.745  0.00  0.00    +0.000 A 
ATOM      6  N   UNL     1      12.563  20.882  20.320  0.00  0.00    +0.000 NA
ATOM      7  C   UNL     1      11.259  20.559  20.285  0.00  0.00    +0.000 A 
ATOM      8  C   UNL     1      10.342  21.506  20.711  0.00  0.00    +0.000 A 
ATOM      9  C   UNL     1      10.788  22.730  21.150  0.00  0.00    +0.000 A 
ATOM     10  C   UNL     1      12.134  23.025  21.172  0.00  0.00    +0.000 A 
ATOM     11  C   UNL     1      12.576  24.281  21.624  0.00  0.00    +0.000 A 
ATOM     12  C   UNL     1       8.969  20.957  20.593  0.00  0.00    +0.000 C 
ATOM     13  C   UNL     1       9.127  19.717  19.743  0.00  0.00    +0.000 C 
ATOM     14  C   UNL     1      10.567  19.325  19.858  0.00  0.00    +0.000 C 
ENDROOT
BRANCH   9  15
ATOM     15  N   UNL     1       9.901  23.743  21.600  0.00  0.00    +0.000 NA
BRANCH  15  16
ATOM     16  C   UNL     1       9.352  23.751  22.919  0.00  0.00    +0.000 A 
ATOM     17  C   UNL     1       8.113  23.202  23.175  0.00  0.00    +0.000 A 
ATOM     18  C   UNL     1       7.561  23.199  24.445  0.00  0.00    +0.000 A 
ATOM     19  C   UNL     1       8.232  23.748  25.516  0.00  0.00    +0.000 A 
ATOM     20  O   UNL     1       7.706  23.760  26.800  0.00  0.00    +0.000 OA
ATOM     21  C   UNL     1       9.471  24.297  25.262  0.00  0.00    +0.000 A 
ATOM     22  C   UNL     1      10.029  24.302  23.986  0.00  0.00    +0.000 A 
ENDBRANCH  15  16
ENDBRANCH   9  15
TORSDOF 2
ENDMDL
MODEL 9
REMARK VINA RESULT:      -6.6      3.134      6.683
REMARK  Name = 
REMARK  2 active torsions:
REMARK  status: ('A' for Active; 'I' for Inactive)
REMARK    1  A    between atoms: C_9  and  N_10
REMARK    2  A    between atoms: N_10  and  C_11
REMARK                            x       y       z     vdW  Elec       q    Type
REMARK                         _______ _______ _______ _____ _____    ______ ____
ROOT
ATOM      1  C   UNL     1      22.360  28.000  26.669  0.00  0.00    +0.000 C 
ATOM      2  C   UNL     1      23.340  27.021  27.252  0.00  0.00    +0.000 A 
ATOM      3  C   UNL     1      23.560  26.945  28.608  0.00  0.00    +0.000 A 
ATOM      4  C   UNL     1      24.446  26.065  29.177  0.00  0.00    +0.000 A 
ATOM      5  C   UNL     1      25.167  25.198  28.363  0.00  0.00    +0.000 A 
ATOM      6  N   UNL     1      26.044  24.320  28.871  0.00  0.00    +0.000 NA
ATOM      7  C   UNL     1      26.759  23.469  28.116  0.00  0.00    +0.000 A 
ATOM      8  C   UNL     1      26.575  23.504  26.743  0.00  0.00    +0.000 A 
ATOM      9  C   UNL     1      25.680  24.398  26.203  0.00  0.00    +0.000 A 
ATOM     10  C   UNL     1      24.965  25.256  27.010  0.00  0.00    +0.000 A 
ATOM     11  C   UNL     1      24.053  26.164  26.444  0.00  0.00    +0.000 A 
ATOM     12  C   UNL     1      27.450  22.494  26.098  0.00  0.00    +0.000 C 
ATOM     13  C   UNL     1      28.419  22.083  27.183  0.00  0.00    +0.000 C 
ATOM     14  C   UNL     1      27.759  22.442  28.477  0.00  0.00    +0.000 C 
ENDROOT
BRANCH   9  15
ATOM     15  N   UNL     1      25.446  24.485  24.805  0.00  0.00    +0.000 NA
BRANCH  15  16
ATOM     16  C   UNL     1      26.509  24.509  23.851  0.00  0.00    +0.000 A 
ATOM     17  C   UNL     1      27.516  25.448  23.933  0.00  0.00    +0.000 A 
ATOM     18  C   UNL     1      28.555  25.490  23.018  0.00  0.00    +0.000 A 
ATOM     19  C   UNL     1      28.628  24.587  21.979  0.00  0.00    +0.000 A 
ATOM     20  O   UNL     1      29.657  24.604  21.047  0.00  0.00    +0.000 OA
ATOM     21  C   UNL     1      27.622  23.648  21.895  0.00  0.00    +0.000 A 
ATOM     22  C   UNL     1      26.575  23.602  22.813  0.00  0.00    +0.000 A 
ENDBRANCH  15  16
ENDBRANCH   9  15
TORSDOF 2
ENDMDL
MODEL 10
REMARK VINA RESULT:      -6.6     16.862     18.567
REMARK  Name = 
REMARK  2 active torsions:
REMARK  status: ('A' for Active; 'I' for Inactive)
REMARK    1  A    between atoms: C_9  and  N_10
REMARK    2  A    between atoms: N_10  and  C_11
REMARK                            x       y       z     vdW  Elec       q    Type
REMARK                         _______ _______ _______ _____ _____    ______ ____
ROOT
ATOM      1  C   UNL     1      20.307  15.584  40.376  0.00  0.00    +0.000 C 
ATOM      2  C   UNL     1      21.338  14.782  39.634  0.00  0.00    +0.000 A 
ATOM      3  C   UNL     1      22.559  15.320  39.295  0.00  0.00    +0.000 A 
ATOM      4  C   UNL     1      23.526  14.619  38.619  0.00  0.00    +0.000 A 
ATOM      5  C   UNL     1      23.283  13.301  38.247  0.00  0.00    +0.000 A 
ATOM      6  N   UNL     1      24.195  12.576  37.585  0.00  0.00    +0.000 NA
ATOM      7  C   UNL     1      23.995  11.301  37.209  0.00  0.00    +0.000 A 
ATOM      8  C   UNL     1      22.781  10.712  37.525  0.00  0.00    +0.000 A 
ATOM      9  C   UNL     1      21.833  11.440  38.204  0.00  0.00    +0.000 A 
ATOM     10  C   UNL     1      22.074  12.746  38.573  0.00  0.00    +0.000 A 
ATOM     11  C   UNL     1      21.095  13.478  39.266  0.00  0.00    +0.000 A 
ATOM     12  C   UNL     1      22.761   9.315  37.026  0.00  0.00    +0.000 C 
ATOM     13  C   UNL     1      23.945   9.230  36.089  0.00  0.00    +0.000 C 
ATOM     14  C   UNL     1      24.860  10.346  36.485  0.00  0.00    +0.000 C 
ENDROOT
BRANCH   9  15
ATOM     15  N   UNL     1      20.570  10.896  38.557  0.00  0.00    +0.000 NA
BRANCH  15  16
ATOM     16  C   UNL     1      19.476  10.838  37.639  0.00  0.00    +0.000 A 
ATOM     17  C   UNL     1      18.525  11.837  37.605  0.00  0.00    +0.000 A 
ATOM     18  C   UNL     1      17.457  11.801  36.723  0.00  0.00    +0.000 A 
ATOM     19  C   UNL     1      17.298  10.758  35.836  0.00  0.00    +0.000 A 
ATOM     20  O   UNL     1      16.239  10.695  34.942  0.00  0.00    +0.000 OA
ATOM     21  C   UNL     1      18.248   9.759  35.869  0.00  0.00    +0.000 A 
ATOM     22  C   UNL     1      19.324   9.792  36.754  0.00  0.00    +0.000 A 
ENDBRANCH  15  16
ENDBRANCH   9  15
TORSDOF 2
ENDMDL
