MODEL 1
REMARK VINA RESULT:      -6.6      0.000      0.000
REMARK  Name = 
REMARK  3 active torsions:
REMARK  status: ('A' for Active; 'I' for Inactive)
REMARK    1  A    between atoms: C_8  and  C_9
REMARK    2  A    between atoms: N_11  and  N_12
REMARK    3  A    between atoms: C_13  and  C_14
REMARK                            x       y       z     vdW  Elec       q    Type
REMARK                         _______ _______ _______ _____ _____    ______ ____
ROOT
ATOM      1  C   UNL     1      18.295  10.155  37.231  0.00  0.00    +0.000 C 
ATOM      2  O   UNL     1      18.401  11.382  37.140  0.00  0.00    +0.000 OA
ATOM      3  N   UNL     1      17.454   9.457  36.360  0.00  0.00    +0.000 NA
ENDROOT
BRANCH   1  11
ATOM      4  C   UNL     1      16.719   9.864  39.490  0.00  0.00    +0.000 C 
ATOM      5  C   UNL     1      18.014   9.279  39.603  0.00  0.00    +0.000 C 
ATOM      6  C   UNL     1      18.417   8.328  40.627  0.00  0.00    +0.000 C 
ATOM      7  C   UNL     1      19.667   7.580  40.246  0.00  0.00    +0.000 C 
ATOM      8  C   UNL     1      20.768   8.629  40.207  0.00  0.00    +0.000 C 
ATOM      9  C   UNL     1      20.288   9.936  40.513  0.00  0.00    +0.000 C 
ATOM     10  C   UNL     1      19.147  10.541  39.537  0.00  0.00    +0.000 C 
ATOM     11  C   UNL     1      19.096   9.345  38.318  0.00  0.00    +0.000 C 
ENDBRANCH   1  11
BRANCH   3  12
ATOM     12  N   UNL     1      16.767  10.223  35.415  0.00  0.00    +0.000 NA
ATOM     13  C   UNL     1      16.928  10.048  34.135  0.00  0.00    +0.000 C 
BRANCH  13  14
ATOM     14  C   UNL     1      16.174  10.889  33.213  0.00  0.00    +0.000 A 
ATOM     15  C   UNL     1      16.221  10.791  31.839  0.00  0.00    +0.000 A 
ATOM     16  C   UNL     1      15.484  11.616  31.013  0.00  0.00    +0.000 A 
ATOM     17  C   UNL     1      14.660  12.580  31.534  0.00  0.00    +0.000 A 
ATOM     18  O   UNL     1      13.893  13.442  30.775  0.00  0.00    +0.000 OA
ATOM     19  C   UNL     1      14.590  12.704  32.900  0.00  0.00    +0.000 A 
ATOM     20  C   UNL     1      15.336  11.870  33.699  0.00  0.00    +0.000 A 
ENDBRANCH  13  14
ENDBRANCH   3  12
TORSDOF 3
ENDMDL
MODEL 2
REMARK VINA RESULT:      -6.5     18.096     19.397
REMARK  Name = 
REMARK  3 active torsions:
REMARK  status: ('A' for Active; 'I' for Inactive)
REMARK    1  A    between atoms: C_8  and  C_9
REMARK    2  A    between atoms: N_11  and  N_12
REMARK    3  A    between atoms: C_13  and  C_14
REMARK                            x       y       z     vdW  Elec       q    Type
REMARK                         _______ _______ _______ _____ _____    ______ ____
ROOT
ATOM      1  C   UNL     1      35.806   6.275  35.110  0.00  0.00    +0.000 C 
ATOM      2  O   UNL     1      36.796   5.536  35.124  0.00  0.00    +0.000 OA
ATOM      3  N   UNL     1      34.528   5.732  34.955  0.00  0.00    +0.000 NA
ENDROOT
BRANCH   1  11
ATOM      4  C   UNL     1      36.321   6.880  37.764  0.00  0.00    +0.000 C 
ATOM      5  C   UNL     1      36.237   8.019  36.911  0.00  0.00    +0.000 C 
ATOM      6  C   UNL     1      36.693   9.358  37.254  0.00  0.00    +0.000 C 
ATOM      7  C   UNL     1      36.869  10.226  36.036  0.00  0.00    +0.000 C 
ATOM      8  C   UNL     1      35.471  10.405  35.465  0.00  0.00    +0.000 C 
ATOM      9  C   UNL     1      34.479   9.710  36.218  0.00  0.00    +0.000 C 
ATOM     10  C   UNL     1      34.644   8.105  36.333  0.00  0.00    +0.000 C 
ATOM     11  C   UNL     1      35.950   7.835  35.264  0.00  0.00    +0.000 C 
ENDBRANCH   1  11
BRANCH   3  12
ATOM     12  N   UNL     1      34.456   4.343  34.822  0.00  0.00    +0.000 NA
ATOM     13  C   UNL     1      33.862   3.774  33.813  0.00  0.00    +0.000 C 
BRANCH  13  14
ATOM     14  C   UNL     1      33.830   2.318  33.749  0.00  0.00    +0.000 A 
ATOM     15  C   UNL     1      33.513   1.489  34.803  0.00  0.00    +0.000 A 
ATOM     16  C   UNL     1      33.498   0.114  34.684  0.00  0.00    +0.000 A 
ATOM     17  C   UNL     1      33.803  -0.493  33.492  0.00  0.00    +0.000 A 
ATOM     18  O   UNL     1      33.811  -1.860  33.294  0.00  0.00    +0.000 OA
ATOM     19  C   UNL     1      34.125   0.304  32.422  0.00  0.00    +0.000 A 
ATOM     20  C   UNL     1      34.132   1.672  32.569  0.00  0.00    +0.000 A 
ENDBRANCH  13  14
ENDBRANCH   3  12
TORSDOF 3
ENDMDL
MODEL 3
REMARK VINA RESULT:      -6.4     17.447     20.020
REMARK  Name = 
REMARK  3 active torsions:
REMARK  status: ('A' for Active; 'I' for Inactive)
REMARK    1  A    between atoms: C_8  and  C_9
REMARK    2  A    between atoms: N_11  and  N_12
REMARK    3  A    between atoms: C_13  and  C_14
REMARK                            x       y       z     vdW  Elec       q    Type
REMARK                         _______ _______ _______ _____ _____    ______ ____
ROOT
ATOM      1  C   UNL     1      34.037  -1.187  34.137  0.00  0.00    +0.000 C 
ATOM      2  O   UNL     1      34.738  -0.915  35.116  0.00  0.00    +0.000 OA
ATOM      3  N   UNL     1      33.271  -0.192  33.525  0.00  0.00    +0.000 NA
ENDROOT
BRANCH   1  11
ATOM      4  C   UNL     1      31.942  -2.562  35.318  0.00  0.00    +0.000 C 
ATOM      5  C   UNL     1      32.689  -3.331  34.378  0.00  0.00    +0.000 C 
ATOM      6  C   UNL     1      32.258  -4.594  33.798  0.00  0.00    +0.000 C 
ATOM      7  C   UNL     1      33.030  -4.939  32.552  0.00  0.00    +0.000 C 
ATOM      8  C   UNL     1      34.460  -5.171  33.017  0.00  0.00    +0.000 C 
ATOM      9  C   UNL     1      34.616  -4.978  34.422  0.00  0.00    +0.000 C 
ATOM     10  C   UNL     1      34.257  -3.511  35.001  0.00  0.00    +0.000 C 
ATOM     11  C   UNL     1      33.984  -2.648  33.551  0.00  0.00    +0.000 C 
ENDBRANCH   1  11
BRANCH   3  12
ATOM     12  N   UNL     1      33.354   1.086  34.083  0.00  0.00    +0.000 NA
ATOM     13  C   UNL     1      33.477   2.155  33.349  0.00  0.00    +0.000 C 
BRANCH  13  14
ATOM     14  C   UNL     1      33.558   3.452  34.009  0.00  0.00    +0.000 A 
ATOM     15  C   UNL     1      32.843   4.571  33.638  0.00  0.00    +0.000 A 
ATOM     16  C   UNL     1      32.960   5.776  34.300  0.00  0.00    +0.000 A 
ATOM     17  C   UNL     1      33.805   5.912  35.372  0.00  0.00    +0.000 A 
ATOM     18  O   UNL     1      33.977   7.083  36.084  0.00  0.00    +0.000 OA
ATOM     19  C   UNL     1      34.533   4.817  35.767  0.00  0.00    +0.000 A 
ATOM     20  C   UNL     1      34.397   3.628  35.088  0.00  0.00    +0.000 A 
ENDBRANCH  13  14
ENDBRANCH   3  12
TORSDOF 3
ENDMDL
MODEL 4
REMARK VINA RESULT:      -6.1     20.686     21.818
REMARK  Name = 
REMARK  3 active torsions:
REMARK  status: ('A' for Active; 'I' for Inactive)
REMARK    1  A    between atoms: C_8  and  C_9
REMARK    2  A    between atoms: N_11  and  N_12
REMARK    3  A    between atoms: C_13  and  C_14
REMARK                            x       y       z     vdW  Elec       q    Type
REMARK                         _______ _______ _______ _____ _____    ______ ____
ROOT
ATOM      1  C   UNL     1      25.140   4.948  16.746  0.00  0.00    +0.000 C 
ATOM      2  O   UNL     1      24.959   4.746  15.541  0.00  0.00    +0.000 OA
ATOM      3  N   UNL     1      24.295   4.361  17.691  0.00  0.00    +0.000 NA
ENDROOT
BRANCH   1  11
ATOM      4  C   UNL     1      27.521   3.540  16.584  0.00  0.00    +0.000 C 
ATOM      5  C   UNL     1      27.658   4.861  17.103  0.00  0.00    +0.000 C 
ATOM      6  C   UNL     1      28.914   5.582  17.238  0.00  0.00    +0.000 C 
ATOM      7  C   UNL     1      28.703   7.064  17.401  0.00  0.00    +0.000 C 
ATOM      8  C   UNL     1      27.996   7.224  18.738  0.00  0.00    +0.000 C 
ATOM      9  C   UNL     1      27.749   5.974  19.379  0.00  0.00    +0.000 C 
ATOM     10  C   UNL     1      26.824   4.915  18.579  0.00  0.00    +0.000 C 
ATOM     11  C   UNL     1      26.317   5.864  17.252  0.00  0.00    +0.000 C 
ENDBRANCH   1  11
BRANCH   3  12
ATOM     12  N   UNL     1      23.268   3.557  17.189  0.00  0.00    +0.000 NA
ATOM     13  C   UNL     1      22.306   3.112  17.945  0.00  0.00    +0.000 C 
BRANCH  13  14
ATOM     14  C   UNL     1      21.272   2.279  17.345  0.00  0.00    +0.000 A 
ATOM     15  C   UNL     1      21.487   1.347  16.353  0.00  0.00    +0.000 A 
ATOM     16  C   UNL     1      20.468   0.583  15.821  0.00  0.00    +0.000 A 
ATOM     17  C   UNL     1      19.178   0.723  16.265  0.00  0.00    +0.000 A 
ATOM     18  O   UNL     1      18.105  -0.002  15.783  0.00  0.00    +0.000 OA
ATOM     19  C   UNL     1      18.928   1.644  17.253  0.00  0.00    +0.000 A 
ATOM     20  C   UNL     1      19.963   2.391  17.765  0.00  0.00    +0.000 A 
ENDBRANCH  13  14
ENDBRANCH   3  12
TORSDOF 3
ENDMDL
MODEL 5
REMARK VINA RESULT:      -6.1      2.980      4.341
REMARK  Name = 
REMARK  3 active torsions:
REMARK  status: ('A' for Active; 'I' for Inactive)
REMARK    1  A    between atoms: C_8  and  C_9
REMARK    2  A    between atoms: N_11  and  N_12
REMARK    3  A    between atoms: C_13  and  C_14
REMARK                            x       y       z     vdW  Elec       q    Type
REMARK                         _______ _______ _______ _____ _____    ______ ____
ROOT
ATOM      1  C   UNL     1      16.479   9.273  41.026  0.00  0.00    +0.000 C 
ATOM      2  O   UNL     1      15.325   9.475  40.636  0.00  0.00    +0.000 OA
ATOM      3  N   UNL     1      17.555   9.442  40.151  0.00  0.00    +0.000 NA
ENDROOT
BRANCH   1  11
ATOM      4  C   UNL     1      17.299   6.627  41.026  0.00  0.00    +0.000 C 
ATOM      5  C   UNL     1      17.233   7.217  42.321  0.00  0.00    +0.000 C 
ATOM      6  C   UNL     1      17.835   6.665  43.525  0.00  0.00    +0.000 C 
ATOM      7  C   UNL     1      17.968   7.694  44.616  0.00  0.00    +0.000 C 
ATOM      8  C   UNL     1      16.542   8.056  45.003  0.00  0.00    +0.000 C 
ATOM      9  C   UNL     1      15.571   7.352  44.232  0.00  0.00    +0.000 C 
ATOM     10  C   UNL     1      15.605   7.583  42.631  0.00  0.00    +0.000 C 
ATOM     11  C   UNL     1      16.773   8.824  42.506  0.00  0.00    +0.000 C 
ENDBRANCH   1  11
BRANCH   3  12
ATOM     12  N   UNL     1      17.239   9.842  38.850  0.00  0.00    +0.000 NA
ATOM     13  C   UNL     1      18.100   9.769  37.876  0.00  0.00    +0.000 C 
BRANCH  13  14
ATOM     14  C   UNL     1      17.693  10.207  36.547  0.00  0.00    +0.000 A 
ATOM     15  C   UNL     1      18.013   9.561  35.372  0.00  0.00    +0.000 A 
ATOM     16  C   UNL     1      17.599  10.021  34.138  0.00  0.00    +0.000 A 
ATOM     17  C   UNL     1      16.840  11.158  34.029  0.00  0.00    +0.000 A 
ATOM     18  O   UNL     1      16.388  11.681  32.834  0.00  0.00    +0.000 OA
ATOM     19  C   UNL     1      16.503  11.826  35.181  0.00  0.00    +0.000 A 
ATOM     20  C   UNL     1      16.930  11.345  36.397  0.00  0.00    +0.000 A 
ENDBRANCH  13  14
ENDBRANCH   3  12
TORSDOF 3
ENDMDL
MODEL 6
REMARK VINA RESULT:      -6.0     18.299     20.498
REMARK  Name = 
REMARK  3 active torsions:
REMARK  status: ('A' for Active; 'I' for Inactive)
REMARK    1  A    between atoms: C_8  and  C_9
REMARK    2  A    between atoms: N_11  and  N_12
REMARK    3  A    between atoms: C_13  and  C_14
REMARK                            x       y       z     vdW  Elec       q    Type
REMARK                         _______ _______ _______ _____ _____    ______ ____
ROOT
ATOM      1  C   UNL     1      26.595  24.964  25.597  0.00  0.00    +0.000 C 
ATOM      2  O   UNL     1      26.641  24.254  26.606  0.00  0.00    +0.000 OA
ATOM      3  N   UNL     1      25.558  25.887  25.435  0.00  0.00    +0.000 NA
ENDROOT
BRANCH   1  11
ATOM      4  C   UNL     1      25.675  23.291  23.590  0.00  0.00    +0.000 C 
ATOM      5  C   UNL     1      26.984  23.808  23.364  0.00  0.00    +0.000 C 
ATOM      6  C   UNL     1      27.688  23.778  22.092  0.00  0.00    +0.000 C 
ATOM      7  C   UNL     1      28.834  24.754  22.055  0.00  0.00    +0.000 C 
ATOM      8  C   UNL     1      29.831  24.243  23.084  0.00  0.00    +0.000 C 
ATOM      9  C   UNL     1      29.378  23.063  23.744  0.00  0.00    +0.000 C 
ATOM     10  C   UNL     1      27.994  23.177  24.574  0.00  0.00    +0.000 C 
ATOM     11  C   UNL     1      27.692  24.856  24.472  0.00  0.00    +0.000 C 
ENDBRANCH   1  11
BRANCH   3  12
ATOM     12  N   UNL     1      24.613  25.943  26.462  0.00  0.00    +0.000 NA
ATOM     13  C   UNL     1      23.426  26.447  26.282  0.00  0.00    +0.000 C 
BRANCH  13  14
ATOM     14  C   UNL     1      22.496  26.469  27.405  0.00  0.00    +0.000 A 
ATOM     15  C   UNL     1      22.826  26.827  28.694  0.00  0.00    +0.000 A 
ATOM     16  C   UNL     1      21.902  26.830  29.720  0.00  0.00    +0.000 A 
ATOM     17  C   UNL     1      20.598  26.471  29.494  0.00  0.00    +0.000 A 
ATOM     18  O   UNL     1      19.617  26.448  30.466  0.00  0.00    +0.000 OA
ATOM     19  C   UNL     1      20.236  26.108  28.220  0.00  0.00    +0.000 A 
ATOM     20  C   UNL     1      21.177  26.114  27.217  0.00  0.00    +0.000 A 
ENDBRANCH  13  14
ENDBRANCH   3  12
TORSDOF 3
ENDMDL
MODEL 7
REMARK VINA RESULT:      -5.9     22.145     23.425
REMARK  Name = 
REMARK  3 active torsions:
REMARK  status: ('A' for Active; 'I' for Inactive)
REMARK    1  A    between atoms: C_8  and  C_9
REMARK    2  A    between atoms: N_11  and  N_12
REMARK    3  A    between atoms: C_13  and  C_14
REMARK                            x       y       z     vdW  Elec       q    Type
REMARK                         _______ _______ _______ _____ _____    ______ ____
ROOT
ATOM      1  C   UNL     1      23.992  -8.797  22.845  0.00  0.00    +0.000 C 
ATOM      2  O   UNL     1      23.190  -9.736  22.823  0.00  0.00    +0.000 OA
ATOM      3  N   UNL     1      23.661  -7.608  23.501  0.00  0.00    +0.000 NA
ENDROOT
BRANCH   1  11
ATOM      4  C   UNL     1      25.749 -10.112  24.535  0.00  0.00    +0.000 C 
ATOM      5  C   UNL     1      26.326  -9.702  23.298  0.00  0.00    +0.000 C 
ATOM      6  C   UNL     1      27.593 -10.179  22.765  0.00  0.00    +0.000 C 
ATOM      7  C   UNL     1      27.726  -9.909  21.290  0.00  0.00    +0.000 C 
ATOM      8  C   UNL     1      27.773  -8.394  21.161  0.00  0.00    +0.000 C 
ATOM      9  C   UNL     1      27.663  -7.734  22.421  0.00  0.00    +0.000 C 
ATOM     10  C   UNL     1      26.313  -8.006  23.270  0.00  0.00    +0.000 C 
ATOM     11  C   UNL     1      25.397  -8.907  22.144  0.00  0.00    +0.000 C 
ENDBRANCH   1  11
BRANCH   3  12
ATOM     12  N   UNL     1      22.403  -7.563  24.107  0.00  0.00    +0.000 NA
ATOM     13  C   UNL     1      22.046  -6.585  24.888  0.00  0.00    +0.000 C 
BRANCH  13  14
ATOM     14  C   UNL     1      20.715  -6.612  25.482  0.00  0.00    +0.000 A 
ATOM     15  C   UNL     1      19.995  -7.756  25.751  0.00  0.00    +0.000 A 
ATOM     16  C   UNL     1      18.737  -7.722  26.317  0.00  0.00    +0.000 A 
ATOM     17  C   UNL     1      18.141  -6.530  26.639  0.00  0.00    +0.000 A 
ATOM     18  O   UNL     1      16.887  -6.413  27.206  0.00  0.00    +0.000 OA
ATOM     19  C   UNL     1      18.831  -5.370  26.384  0.00  0.00    +0.000 A 
ATOM     20  C   UNL     1      20.084  -5.434  25.819  0.00  0.00    +0.000 A 
ENDBRANCH  13  14
ENDBRANCH   3  12
TORSDOF 3
ENDMDL
MODEL 8
REMARK VINA RESULT:      -5.8     20.881     22.559
REMARK  Name = 
REMARK  3 active torsions:
REMARK  status: ('A' for Active; 'I' for Inactive)
REMARK    1  A    between atoms: C_8  and  C_9
REMARK    2  A    between atoms: N_11  and  N_12
REMARK    3  A    between atoms: C_13  and  C_14
REMARK                            x       y       z     vdW  Elec       q    Type
REMARK                         _______ _______ _______ _____ _____    ______ ____
ROOT
ATOM      1  C   UNL     1      25.822   4.806  15.536  0.00  0.00    +0.000 C 
ATOM      2  O   UNL     1      25.159   4.911  14.499  0.00  0.00    +0.000 OA
ATOM      3  N   UNL     1      25.309   4.101  16.628  0.00  0.00    +0.000 NA
ENDROOT
BRANCH   1  11
ATOM      4  C   UNL     1      25.728   6.847  17.408  0.00  0.00    +0.000 C 
ATOM      5  C   UNL     1      27.007   6.665  16.806  0.00  0.00    +0.000 C 
ATOM      6  C   UNL     1      28.255   7.222  17.306  0.00  0.00    +0.000 C 
ATOM      7  C   UNL     1      29.458   6.524  16.730  0.00  0.00    +0.000 C 
ATOM      8  C   UNL     1      29.436   6.844  15.243  0.00  0.00    +0.000 C 
ATOM      9  C   UNL     1      28.321   7.654  14.875  0.00  0.00    +0.000 C 
ATOM     10  C   UNL     1      26.851   7.041  15.159  0.00  0.00    +0.000 C 
ATOM     11  C   UNL     1      27.250   5.457  15.661  0.00  0.00    +0.000 C 
ENDBRANCH   1  11
BRANCH   3  12
ATOM     12  N   UNL     1      24.039   3.543  16.465  0.00  0.00    +0.000 NA
ATOM     13  C   UNL     1      23.401   2.977  17.448  0.00  0.00    +0.000 C 
BRANCH  13  14
ATOM     14  C   UNL     1      22.078   2.418  17.196  0.00  0.00    +0.000 A 
ATOM     15  C   UNL     1      21.792   1.474  16.232  0.00  0.00    +0.000 A 
ATOM     16  C   UNL     1      20.518   0.979  16.038  0.00  0.00    +0.000 A 
ATOM     17  C   UNL     1      19.469   1.412  16.807  0.00  0.00    +0.000 A 
ATOM     18  O   UNL     1      18.169   0.966  16.673  0.00  0.00    +0.000 OA
ATOM     19  C   UNL     1      19.719   2.353  17.775  0.00  0.00    +0.000 A 
ATOM     20  C   UNL     1      20.998   2.829  17.948  0.00  0.00    +0.000 A 
ENDBRANCH  13  14
ENDBRANCH   3  12
TORSDOF 3
ENDMDL
MODEL 9
REMARK VINA RESULT:      -5.8     22.076     23.407
REMARK  Name = 
REMARK  3 active torsions:
REMARK  status: ('A' for Active; 'I' for Inactive)
REMARK    1  A    between atoms: C_8  and  C_9
REMARK    2  A    between atoms: N_11  and  N_12
REMARK    3  A    between atoms: C_13  and  C_14
REMARK                            x       y       z     vdW  Elec       q    Type
REMARK                         _______ _______ _______ _____ _____    ______ ____
ROOT
ATOM      1  C   UNL     1      23.499  -8.992  23.824  0.00  0.00    +0.000 C 
ATOM      2  O   UNL     1      22.579  -8.766  23.032  0.00  0.00    +0.000 OA
ATOM      3  N   UNL     1      23.349  -8.682  25.179  0.00  0.00    +0.000 NA
ENDROOT
BRANCH   1  11
ATOM      4  C   UNL     1      25.351  -6.977  23.400  0.00  0.00    +0.000 C 
ATOM      5  C   UNL     1      25.839  -8.286  23.119  0.00  0.00    +0.000 C 
ATOM      6  C   UNL     1      27.240  -8.640  22.950  0.00  0.00    +0.000 C 
ATOM      7  C   UNL     1      27.472 -10.121  23.092  0.00  0.00    +0.000 C 
ATOM      8  C   UNL     1      26.746 -10.756  21.916  0.00  0.00    +0.000 C 
ATOM      9  C   UNL     1      26.087  -9.794  21.096  0.00  0.00    +0.000 C 
ATOM     10  C   UNL     1      24.950  -8.888  21.805  0.00  0.00    +0.000 C 
ATOM     11  C   UNL     1      24.854  -9.631  23.341  0.00  0.00    +0.000 C 
ENDBRANCH   1  11
BRANCH   3  12
ATOM     12  N   UNL     1      22.128  -8.118  25.555  0.00  0.00    +0.000 NA
ATOM     13  C   UNL     1      21.192  -8.816  26.131  0.00  0.00    +0.000 C 
BRANCH  13  14
ATOM     14  C   UNL     1      19.945  -8.153  26.492  0.00  0.00    +0.000 A 
ATOM     15  C   UNL     1      19.014  -8.652  27.378  0.00  0.00    +0.000 A 
ATOM     16  C   UNL     1      17.849  -7.979  27.683  0.00  0.00    +0.000 A 
ATOM     17  C   UNL     1      17.564  -6.767  27.110  0.00  0.00    +0.000 A 
ATOM     18  O   UNL     1      16.422  -6.034  27.363  0.00  0.00    +0.000 OA
ATOM     19  C   UNL     1      18.471  -6.240  26.222  0.00  0.00    +0.000 A 
ATOM     20  C   UNL     1      19.624  -6.933  25.936  0.00  0.00    +0.000 A 
ENDBRANCH  13  14
ENDBRANCH   3  12
TORSDOF 3
ENDMDL
MODEL 10
REMARK VINA RESULT:      -5.7     21.074     22.261
REMARK  Name = 
REMARK  3 active torsions:
REMARK  status: ('A' for Active; 'I' for Inactive)
REMARK    1  A    between atoms: C_8  and  C_9
REMARK    2  A    between atoms: N_11  and  N_12
REMARK    3  A    between atoms: C_13  and  C_14
REMARK                            x       y       z     vdW  Elec       q    Type
REMARK                         _______ _______ _______ _____ _____    ______ ____
ROOT
ATOM      1  C   UNL     1      16.421  -9.040  25.384  0.00  0.00    +0.000 C 
ATOM      2  O   UNL     1      16.049 -10.215  25.470  0.00  0.00    +0.000 OA
ATOM      3  N   UNL     1      15.482  -8.016  25.232  0.00  0.00    +0.000 NA
ENDROOT
BRANCH   1  11
ATOM      4  C   UNL     1      17.293  -9.188  28.009  0.00  0.00    +0.000 C 
ATOM      5  C   UNL     1      18.298  -8.785  27.082  0.00  0.00    +0.000 C 
ATOM      6  C   UNL     1      19.728  -8.764  27.352  0.00  0.00    +0.000 C 
ATOM      7  C   UNL     1      20.544  -8.713  26.088  0.00  0.00    +0.000 C 
ATOM      8  C   UNL     1      20.227  -7.365  25.459  0.00  0.00    +0.000 C 
ATOM      9  C   UNL     1      19.285  -6.614  26.221  0.00  0.00    +0.000 C 
ATOM     10  C   UNL     1      17.830  -7.284  26.445  0.00  0.00    +0.000 C 
ATOM     11  C   UNL     1      17.948  -8.662  25.441  0.00  0.00    +0.000 C 
ENDBRANCH   1  11
BRANCH   3  12
ATOM     12  N   UNL     1      14.141  -8.406  25.187  0.00  0.00    +0.000 NA
ATOM     13  C   UNL     1      13.350  -8.280  26.213  0.00  0.00    +0.000 C 
BRANCH  13  14
ATOM     14  C   UNL     1      11.963  -8.711  26.085  0.00  0.00    +0.000 A 
ATOM     15  C   UNL     1      11.146  -9.062  27.138  0.00  0.00    +0.000 A 
ATOM     16  C   UNL     1       9.838  -9.463  26.958  0.00  0.00    +0.000 A 
ATOM     17  C   UNL     1       9.288  -9.530  25.703  0.00  0.00    +0.000 A 
ATOM     18  O   UNL     1       7.990  -9.922  25.442  0.00  0.00    +0.000 OA
ATOM     19  C   UNL     1      10.075  -9.188  24.631  0.00  0.00    +0.000 A 
ATOM     20  C   UNL     1      11.376  -8.792  24.840  0.00  0.00    +0.000 A 
ENDBRANCH  13  14
ENDBRANCH   3  12
TORSDOF 3
ENDMDL
