MODEL 1
REMARK VINA RESULT:      -6.5      0.000      0.000
REMARK  Name = 
REMARK  4 active torsions:
REMARK  status: ('A' for Active; 'I' for Inactive)
REMARK    1  A    between atoms: C_5  and  S_6
REMARK    2  A    between atoms: S_6  and  C_7
REMARK    3  A    between atoms: C_7  and  C_8
REMARK    4  A    between atoms: C_11  and  C_12
REMARK                            x       y       z     vdW  Elec       q    Type
REMARK                         _______ _______ _______ _____ _____    ______ ____
ROOT
ATOM      1  C   UNL     1      32.653  -3.468  34.559  0.00  0.00    +0.000 C 
ENDROOT
BRANCH   1   2
ATOM      2  C   UNL     1      32.924  -2.030  34.260  0.00  0.00    +0.000 A 
ATOM      3  C   UNL     1      33.914  -1.648  33.380  0.00  0.00    +0.000 A 
ATOM      4  C   UNL     1      34.172  -0.321  33.097  0.00  0.00    +0.000 A 
ATOM      5  C   UNL     1      33.447   0.698  33.685  0.00  0.00    +0.000 A 
ATOM      6  C   UNL     1      32.457   0.312  34.566  0.00  0.00    +0.000 A 
ATOM      7  C   UNL     1      32.198  -1.015  34.848  0.00  0.00    +0.000 A 
BRANCH   5   8
ATOM      8  C   UNL     1      33.724   2.097  33.382  0.00  0.00    +0.000 C 
ATOM      9  N   UNL     1      33.703   3.106  34.379  0.00  0.00    +0.000 NA
ATOM     10  O   UNL     1      33.995   2.465  32.213  0.00  0.00    +0.000 OA
ENDBRANCH   5   8
ENDBRANCH   1   2
BRANCH   1  11
ATOM     11  S   UNL     1      34.179  -4.435  34.319  0.00  0.00    +0.000 S 
BRANCH  11  16
ATOM     12  C   UNL     1      34.320  -6.599  28.635  0.00  0.00    +0.000 C 
ATOM     13  C   UNL     1      34.314  -6.088  30.027  0.00  0.00    +0.000 A 
ATOM     14  C   UNL     1      35.293  -6.406  30.935  0.00  0.00    +0.000 A 
ATOM     15  C   UNL     1      35.242  -5.904  32.218  0.00  0.00    +0.000 A 
ATOM     16  C   UNL     1      34.232  -5.076  32.654  0.00  0.00    +0.000 A 
ATOM     17  C   UNL     1      33.246  -4.757  31.739  0.00  0.00    +0.000 A 
ATOM     18  C   UNL     1      33.291  -5.261  30.440  0.00  0.00    +0.000 A 
ENDBRANCH  11  16
ENDBRANCH   1  11
TORSDOF 4
ENDMDL
MODEL 2
REMARK VINA RESULT:      -6.4      3.778      7.066
REMARK  Name = 
REMARK  4 active torsions:
REMARK  status: ('A' for Active; 'I' for Inactive)
REMARK    1  A    between atoms: C_5  and  S_6
REMARK    2  A    between atoms: S_6  and  C_7
REMARK    3  A    between atoms: C_7  and  C_8
REMARK    4  A    between atoms: C_11  and  C_12
REMARK                            x       y       z     vdW  Elec       q    Type
REMARK                         _______ _______ _______ _____ _____    ______ ____
ROOT
ATOM      1  C   UNL     1      34.447  -4.811  33.986  0.00  0.00    +0.000 C 
ENDROOT
BRANCH   1   2
ATOM      2  C   UNL     1      34.351  -5.272  32.568  0.00  0.00    +0.000 A 
ATOM      3  C   UNL     1      35.226  -6.202  32.049  0.00  0.00    +0.000 A 
ATOM      4  C   UNL     1      35.146  -6.634  30.740  0.00  0.00    +0.000 A 
ATOM      5  C   UNL     1      34.179  -6.153  29.878  0.00  0.00    +0.000 A 
ATOM      6  C   UNL     1      33.305  -5.221  30.401  0.00  0.00    +0.000 A 
ATOM      7  C   UNL     1      33.384  -4.790  31.710  0.00  0.00    +0.000 A 
BRANCH   5   8
ATOM      8  C   UNL     1      34.099  -6.613  28.497  0.00  0.00    +0.000 C 
ATOM      9  N   UNL     1      34.967  -7.608  27.980  0.00  0.00    +0.000 NA
ATOM     10  O   UNL     1      33.249  -6.139  27.705  0.00  0.00    +0.000 OA
ENDBRANCH   5   8
ENDBRANCH   1   2
BRANCH   1  11
ATOM     11  S   UNL     1      32.890  -3.992  34.464  0.00  0.00    +0.000 S 
BRANCH  11  16
ATOM     12  C   UNL     1      33.420   2.006  33.596  0.00  0.00    +0.000 C 
ATOM     13  C   UNL     1      33.266   0.550  33.830  0.00  0.00    +0.000 A 
ATOM     14  C   UNL     1      32.337   0.035  34.699  0.00  0.00    +0.000 A 
ATOM     15  C   UNL     1      32.234  -1.328  34.881  0.00  0.00    +0.000 A 
ATOM     16  C   UNL     1      33.036  -2.230  34.218  0.00  0.00    +0.000 A 
ATOM     17  C   UNL     1      33.971  -1.710  33.342  0.00  0.00    +0.000 A 
ATOM     18  C   UNL     1      34.082  -0.333  33.154  0.00  0.00    +0.000 A 
ENDBRANCH  11  16
ENDBRANCH   1  11
TORSDOF 4
ENDMDL
MODEL 3
REMARK VINA RESULT:      -6.4     18.671     21.191
REMARK  Name = 
REMARK  4 active torsions:
REMARK  status: ('A' for Active; 'I' for Inactive)
REMARK    1  A    between atoms: C_5  and  S_6
REMARK    2  A    between atoms: S_6  and  C_7
REMARK    3  A    between atoms: C_7  and  C_8
REMARK    4  A    between atoms: C_11  and  C_12
REMARK                            x       y       z     vdW  Elec       q    Type
REMARK                         _______ _______ _______ _____ _____    ______ ____
ROOT
ATOM      1  C   UNL     1      17.214  10.982  37.411  0.00  0.00    +0.000 C 
ENDROOT
BRANCH   1   2
ATOM      2  C   UNL     1      16.775  11.092  35.987  0.00  0.00    +0.000 A 
ATOM      3  C   UNL     1      17.387  10.371  34.984  0.00  0.00    +0.000 A 
ATOM      4  C   UNL     1      16.988  10.466  33.665  0.00  0.00    +0.000 A 
ATOM      5  C   UNL     1      15.950  11.294  33.281  0.00  0.00    +0.000 A 
ATOM      6  C   UNL     1      15.340  12.015  34.289  0.00  0.00    +0.000 A 
ATOM      7  C   UNL     1      15.739  11.919  35.607  0.00  0.00    +0.000 A 
BRANCH   5   8
ATOM      8  C   UNL     1      15.534  11.390  31.888  0.00  0.00    +0.000 C 
ATOM      9  N   UNL     1      14.442  10.646  31.371  0.00  0.00    +0.000 NA
ATOM     10  O   UNL     1      16.134  12.143  31.083  0.00  0.00    +0.000 OA
ENDBRANCH   5   8
ENDBRANCH   1   2
BRANCH   1  11
ATOM     11  S   UNL     1      18.388   9.598  37.578  0.00  0.00    +0.000 S 
BRANCH  11  16
ATOM     12  C   UNL     1      24.083  11.722  37.322  0.00  0.00    +0.000 C 
ATOM     13  C   UNL     1      22.702  11.181  37.361  0.00  0.00    +0.000 A 
ATOM     14  C   UNL     1      22.296  10.135  36.572  0.00  0.00    +0.000 A 
ATOM     15  C   UNL     1      21.001   9.669  36.645  0.00  0.00    +0.000 A 
ATOM     16  C   UNL     1      20.061  10.212  37.494  0.00  0.00    +0.000 A 
ATOM     17  C   UNL     1      20.472  11.266  38.289  0.00  0.00    +0.000 A 
ATOM     18  C   UNL     1      21.780  11.743  38.219  0.00  0.00    +0.000 A 
ENDBRANCH  11  16
ENDBRANCH   1  11
TORSDOF 4
ENDMDL
MODEL 4
REMARK VINA RESULT:      -6.3     32.434     33.823
REMARK  Name = 
REMARK  4 active torsions:
REMARK  status: ('A' for Active; 'I' for Inactive)
REMARK    1  A    between atoms: C_5  and  S_6
REMARK    2  A    between atoms: S_6  and  C_7
REMARK    3  A    between atoms: C_7  and  C_8
REMARK    4  A    between atoms: C_11  and  C_12
REMARK                            x       y       z     vdW  Elec       q    Type
REMARK                         _______ _______ _______ _____ _____    ______ ____
ROOT
ATOM      1  C   UNL     1      31.959  21.004  10.172  0.00  0.00    +0.000 C 
ENDROOT
BRANCH   1   2
ATOM      2  C   UNL     1      30.927  21.645  11.040  0.00  0.00    +0.000 A 
ATOM      3  C   UNL     1      31.222  22.080  12.315  0.00  0.00    +0.000 A 
ATOM      4  C   UNL     1      30.275  22.675  13.125  0.00  0.00    +0.000 A 
ATOM      5  C   UNL     1      28.974  22.865  12.697  0.00  0.00    +0.000 A 
ATOM      6  C   UNL     1      28.682  22.428  11.421  0.00  0.00    +0.000 A 
ATOM      7  C   UNL     1      29.629  21.834  10.610  0.00  0.00    +0.000 A 
BRANCH   5   8
ATOM      8  C   UNL     1      27.979  23.493  13.557  0.00  0.00    +0.000 C 
ATOM      9  N   UNL     1      28.264  24.651  14.324  0.00  0.00    +0.000 NA
ATOM     10  O   UNL     1      26.818  23.026  13.651  0.00  0.00    +0.000 OA
ENDBRANCH   5   8
ENDBRANCH   1   2
BRANCH   1  11
ATOM     11  S   UNL     1      32.125  21.953   8.625  0.00  0.00    +0.000 S 
BRANCH  11  16
ATOM     12  C   UNL     1      28.764  19.416   4.235  0.00  0.00    +0.000 C 
ATOM     13  C   UNL     1      29.578  20.007   5.325  0.00  0.00    +0.000 A 
ATOM     14  C   UNL     1      29.785  19.370   6.521  0.00  0.00    +0.000 A 
ATOM     15  C   UNL     1      30.550  19.963   7.503  0.00  0.00    +0.000 A 
ATOM     16  C   UNL     1      31.137  21.198   7.345  0.00  0.00    +0.000 A 
ATOM     17  C   UNL     1      30.928  21.840   6.138  0.00  0.00    +0.000 A 
ATOM     18  C   UNL     1      30.154  21.247   5.142  0.00  0.00    +0.000 A 
ENDBRANCH  11  16
ENDBRANCH   1  11
TORSDOF 4
ENDMDL
MODEL 5
REMARK VINA RESULT:      -6.3     14.001     15.376
REMARK  Name = 
REMARK  4 active torsions:
REMARK  status: ('A' for Active; 'I' for Inactive)
REMARK    1  A    between atoms: C_5  and  S_6
REMARK    2  A    between atoms: S_6  and  C_7
REMARK    3  A    between atoms: C_7  and  C_8
REMARK    4  A    between atoms: C_11  and  C_12
REMARK                            x       y       z     vdW  Elec       q    Type
REMARK                         _______ _______ _______ _____ _____    ______ ____
ROOT
ATOM      1  C   UNL     1      22.723  -9.246  25.234  0.00  0.00    +0.000 C 
ENDROOT
BRANCH   1   2
ATOM      2  C   UNL     1      21.574  -8.364  25.600  0.00  0.00    +0.000 A 
ATOM      3  C   UNL     1      21.523  -7.043  25.208  0.00  0.00    +0.000 A 
ATOM      4  C   UNL     1      20.465  -6.220  25.541  0.00  0.00    +0.000 A 
ATOM      5  C   UNL     1      19.398  -6.680  26.289  0.00  0.00    +0.000 A 
ATOM      6  C   UNL     1      19.453  -8.003  26.680  0.00  0.00    +0.000 A 
ATOM      7  C   UNL     1      20.510  -8.826  26.346  0.00  0.00    +0.000 A 
BRANCH   5   8
ATOM      8  C   UNL     1      18.285  -5.806  26.637  0.00  0.00    +0.000 C 
ATOM      9  N   UNL     1      17.062  -6.307  27.154  0.00  0.00    +0.000 NA
ATOM     10  O   UNL     1      18.367  -4.563  26.491  0.00  0.00    +0.000 OA
ENDBRANCH   5   8
ENDBRANCH   1   2
BRANCH   1  11
ATOM     11  S   UNL     1      22.926  -9.256  23.423  0.00  0.00    +0.000 S 
BRANCH  11  16
ATOM     12  C   UNL     1      28.405  -7.070  21.936  0.00  0.00    +0.000 C 
ATOM     13  C   UNL     1      27.063  -7.574  22.314  0.00  0.00    +0.000 A 
ATOM     14  C   UNL     1      26.166  -6.821  23.029  0.00  0.00    +0.000 A 
ATOM     15  C   UNL     1      24.929  -7.336  23.356  0.00  0.00    +0.000 A 
ATOM     16  C   UNL     1      24.531  -8.603  22.993  0.00  0.00    +0.000 A 
ATOM     17  C   UNL     1      25.435  -9.361  22.272  0.00  0.00    +0.000 A 
ATOM     18  C   UNL     1      26.688  -8.847  21.939  0.00  0.00    +0.000 A 
ENDBRANCH  11  16
ENDBRANCH   1  11
TORSDOF 4
ENDMDL
MODEL 6
REMARK VINA RESULT:      -6.2     17.101     20.117
REMARK  Name = 
REMARK  4 active torsions:
REMARK  status: ('A' for Active; 'I' for Inactive)
REMARK    1  A    between atoms: C_5  and  S_6
REMARK    2  A    between atoms: S_6  and  C_7
REMARK    3  A    between atoms: C_7  and  C_8
REMARK    4  A    between atoms: C_11  and  C_12
REMARK                            x       y       z     vdW  Elec       q    Type
REMARK                         _______ _______ _______ _____ _____    ______ ____
ROOT
ATOM      1  C   UNL     1      18.797  11.236  38.014  0.00  0.00    +0.000 C 
ENDROOT
BRANCH   1   2
ATOM      2  C   UNL     1      20.235  10.967  37.715  0.00  0.00    +0.000 A 
ATOM      3  C   UNL     1      20.623   9.912  36.918  0.00  0.00    +0.000 A 
ATOM      4  C   UNL     1      21.950   9.655  36.635  0.00  0.00    +0.000 A 
ATOM      5  C   UNL     1      22.964  10.447  37.140  0.00  0.00    +0.000 A 
ATOM      6  C   UNL     1      22.572  11.503  37.939  0.00  0.00    +0.000 A 
ATOM      7  C   UNL     1      21.244  11.761  38.220  0.00  0.00    +0.000 A 
BRANCH   5   8
ATOM      8  C   UNL     1      24.362  10.171  36.839  0.00  0.00    +0.000 C 
ATOM      9  N   UNL     1      25.266   9.682  37.817  0.00  0.00    +0.000 NA
ATOM     10  O   UNL     1      24.826  10.359  35.688  0.00  0.00    +0.000 OA
ENDBRANCH   5   8
ENDBRANCH   1   2
BRANCH   1  11
ATOM     11  S   UNL     1      17.769   9.918  37.288  0.00  0.00    +0.000 S 
BRANCH  11  16
ATOM     12  C   UNL     1      15.664  11.690  31.863  0.00  0.00    +0.000 C 
ATOM     13  C   UNL     1      16.154  11.277  33.200  0.00  0.00    +0.000 A 
ATOM     14  C   UNL     1      15.610  11.754  34.366  0.00  0.00    +0.000 A 
ATOM     15  C   UNL     1      16.102  11.339  35.585  0.00  0.00    +0.000 A 
ATOM     16  C   UNL     1      17.143  10.445  35.702  0.00  0.00    +0.000 A 
ATOM     17  C   UNL     1      17.691   9.965  34.527  0.00  0.00    +0.000 A 
ATOM     18  C   UNL     1      17.198  10.381  33.291  0.00  0.00    +0.000 A 
ENDBRANCH  11  16
ENDBRANCH   1  11
TORSDOF 4
ENDMDL
MODEL 7
REMARK VINA RESULT:      -6.2     18.414     20.913
REMARK  Name = 
REMARK  4 active torsions:
REMARK  status: ('A' for Active; 'I' for Inactive)
REMARK    1  A    between atoms: C_5  and  S_6
REMARK    2  A    between atoms: S_6  and  C_7
REMARK    3  A    between atoms: C_7  and  C_8
REMARK    4  A    between atoms: C_11  and  C_12
REMARK                            x       y       z     vdW  Elec       q    Type
REMARK                         _______ _______ _______ _____ _____    ______ ____
ROOT
ATOM      1  C   UNL     1      17.848   9.765  36.862  0.00  0.00    +0.000 C 
ENDROOT
BRANCH   1   2
ATOM      2  C   UNL     1      19.232  10.247  37.153  0.00  0.00    +0.000 A 
ATOM      3  C   UNL     1      20.337   9.676  36.558  0.00  0.00    +0.000 A 
ATOM      4  C   UNL     1      21.620  10.115  36.820  0.00  0.00    +0.000 A 
ATOM      5  C   UNL     1      21.863  11.155  37.697  0.00  0.00    +0.000 A 
ATOM      6  C   UNL     1      20.755  11.724  38.291  0.00  0.00    +0.000 A 
ATOM      7  C   UNL     1      19.472  11.286  38.028  0.00  0.00    +0.000 A 
BRANCH   5   8
ATOM      8  C   UNL     1      23.220  11.614  37.970  0.00  0.00    +0.000 C 
ATOM      9  N   UNL     1      23.499  12.934  38.408  0.00  0.00    +0.000 NA
ATOM     10  O   UNL     1      24.204  10.848  37.825  0.00  0.00    +0.000 OA
ENDBRANCH   5   8
ENDBRANCH   1   2
BRANCH   1  11
ATOM     11  S   UNL     1      17.748   9.224  35.124  0.00  0.00    +0.000 S 
BRANCH  11  16
ATOM     12  C   UNL     1      14.291  13.128  31.992  0.00  0.00    +0.000 C 
ATOM     13  C   UNL     1      15.145  12.164  32.727  0.00  0.00    +0.000 A 
ATOM     14  C   UNL     1      15.965  11.267  32.088  0.00  0.00    +0.000 A 
ATOM     15  C   UNL     1      16.740  10.391  32.818  0.00  0.00    +0.000 A 
ATOM     16  C   UNL     1      16.738  10.364  34.194  0.00  0.00    +0.000 A 
ATOM     17  C   UNL     1      15.912  11.268  34.837  0.00  0.00    +0.000 A 
ATOM     18  C   UNL     1      15.125  12.156  34.106  0.00  0.00    +0.000 A 
ENDBRANCH  11  16
ENDBRANCH   1  11
TORSDOF 4
ENDMDL
MODEL 8
REMARK VINA RESULT:      -6.1     20.203     21.860
REMARK  Name = 
REMARK  4 active torsions:
REMARK  status: ('A' for Active; 'I' for Inactive)
REMARK    1  A    between atoms: C_5  and  S_6
REMARK    2  A    between atoms: S_6  and  C_7
REMARK    3  A    between atoms: C_7  and  C_8
REMARK    4  A    between atoms: C_11  and  C_12
REMARK                            x       y       z     vdW  Elec       q    Type
REMARK                         _______ _______ _______ _____ _____    ______ ____
ROOT
ATOM      1  C   UNL     1      18.289   9.794  37.769  0.00  0.00    +0.000 C 
ENDROOT
BRANCH   1   2
ATOM      2  C   UNL     1      17.686  10.172  36.455  0.00  0.00    +0.000 A 
ATOM      3  C   UNL     1      16.635  11.060  36.370  0.00  0.00    +0.000 A 
ATOM      4  C   UNL     1      16.072  11.415  35.160  0.00  0.00    +0.000 A 
ATOM      5  C   UNL     1      16.535  10.895  33.966  0.00  0.00    +0.000 A 
ATOM      6  C   UNL     1      17.587  10.006  34.055  0.00  0.00    +0.000 A 
ATOM      7  C   UNL     1      18.151   9.651  35.265  0.00  0.00    +0.000 A 
BRANCH   5   8
ATOM      8  C   UNL     1      15.936  11.274  32.693  0.00  0.00    +0.000 C 
ATOM      9  N   UNL     1      14.949  12.288  32.592  0.00  0.00    +0.000 NA
ATOM     10  O   UNL     1      16.276  10.710  31.624  0.00  0.00    +0.000 OA
ENDBRANCH   5   8
ENDBRANCH   1   2
BRANCH   1  11
ATOM     11  S   UNL     1      20.100   9.980  37.681  0.00  0.00    +0.000 S 
BRANCH  11  16
ATOM     12  C   UNL     1      21.618  15.675  39.185  0.00  0.00    +0.000 C 
ATOM     13  C   UNL     1      21.280  14.278  38.819  0.00  0.00    +0.000 A 
ATOM     14  C   UNL     1      22.232  13.298  38.690  0.00  0.00    +0.000 A 
ATOM     15  C   UNL     1      21.866  12.014  38.348  0.00  0.00    +0.000 A 
ATOM     16  C   UNL     1      20.558  11.647  38.123  0.00  0.00    +0.000 A 
ATOM     17  C   UNL     1      19.600  12.635  38.253  0.00  0.00    +0.000 A 
ATOM     18  C   UNL     1      19.963  13.937  38.598  0.00  0.00    +0.000 A 
ENDBRANCH  11  16
ENDBRANCH   1  11
TORSDOF 4
ENDMDL
MODEL 9
REMARK VINA RESULT:      -6.0     24.506     26.746
REMARK  Name = 
REMARK  4 active torsions:
REMARK  status: ('A' for Active; 'I' for Inactive)
REMARK    1  A    between atoms: C_5  and  S_6
REMARK    2  A    between atoms: S_6  and  C_7
REMARK    3  A    between atoms: C_7  and  C_8
REMARK    4  A    between atoms: C_11  and  C_12
REMARK                            x       y       z     vdW  Elec       q    Type
REMARK                         _______ _______ _______ _____ _____    ______ ____
ROOT
ATOM      1  C   UNL     1      28.319  22.059  27.570  0.00  0.00    +0.000 C 
ENDROOT
BRANCH   1   2
ATOM      2  C   UNL     1      28.302  22.534  26.154  0.00  0.00    +0.000 A 
ATOM      3  C   UNL     1      27.132  22.920  25.534  0.00  0.00    +0.000 A 
ATOM      4  C   UNL     1      27.107  23.360  24.226  0.00  0.00    +0.000 A 
ATOM      5  C   UNL     1      28.259  23.438  23.466  0.00  0.00    +0.000 A 
ATOM      6  C   UNL     1      29.428  23.052  24.090  0.00  0.00    +0.000 A 
ATOM      7  C   UNL     1      29.454  22.612  25.399  0.00  0.00    +0.000 A 
BRANCH   5   8
ATOM      8  C   UNL     1      28.225  23.905  22.086  0.00  0.00    +0.000 C 
ATOM      9  N   UNL     1      29.407  24.141  21.338  0.00  0.00    +0.000 NA
ATOM     10  O   UNL     1      27.136  24.117  21.500  0.00  0.00    +0.000 OA
ENDBRANCH   5   8
ENDBRANCH   1   2
BRANCH   1  11
ATOM     11  S   UNL     1      29.126  23.311  28.620  0.00  0.00    +0.000 S 
BRANCH  11  16
ATOM     12  C   UNL     1      33.853  20.806  31.516  0.00  0.00    +0.000 C 
ATOM     13  C   UNL     1      32.685  21.420  30.839  0.00  0.00    +0.000 A 
ATOM     14  C   UNL     1      31.574  21.845  31.524  0.00  0.00    +0.000 A 
ATOM     15  C   UNL     1      30.514  22.410  30.848  0.00  0.00    +0.000 A 
ATOM     16  C   UNL     1      30.506  22.578  29.481  0.00  0.00    +0.000 A 
ATOM     17  C   UNL     1      31.626  22.150  28.792  0.00  0.00    +0.000 A 
ATOM     18  C   UNL     1      32.702  21.577  29.469  0.00  0.00    +0.000 A 
ENDBRANCH  11  16
ENDBRANCH   1  11
TORSDOF 4
ENDMDL
MODEL 10
REMARK VINA RESULT:      -5.9     26.623     28.032
REMARK  Name = 
REMARK  4 active torsions:
REMARK  status: ('A' for Active; 'I' for Inactive)
REMARK    1  A    between atoms: C_5  and  S_6
REMARK    2  A    between atoms: S_6  and  C_7
REMARK    3  A    between atoms: C_7  and  C_8
REMARK    4  A    between atoms: C_11  and  C_12
REMARK                            x       y       z     vdW  Elec       q    Type
REMARK                         _______ _______ _______ _____ _____    ______ ____
ROOT
ATOM      1  C   UNL     1      27.272  24.045  24.629  0.00  0.00    +0.000 C 
ENDROOT
BRANCH   1   2
ATOM      2  C   UNL     1      26.981  23.772  26.068  0.00  0.00    +0.000 A 
ATOM      3  C   UNL     1      27.737  22.884  26.804  0.00  0.00    +0.000 A 
ATOM      4  C   UNL     1      27.476  22.625  28.135  0.00  0.00    +0.000 A 
ATOM      5  C   UNL     1      26.438  23.246  28.802  0.00  0.00    +0.000 A 
ATOM      6  C   UNL     1      25.682  24.135  28.063  0.00  0.00    +0.000 A 
ATOM      7  C   UNL     1      25.944  24.394  26.732  0.00  0.00    +0.000 A 
BRANCH   5   8
ATOM      8  C   UNL     1      26.167  22.969  30.207  0.00  0.00    +0.000 C 
ATOM      9  N   UNL     1      25.959  21.652  30.693  0.00  0.00    +0.000 NA
ATOM     10  O   UNL     1      26.108  23.896  31.051  0.00  0.00    +0.000 OA
ENDBRANCH   5   8
ENDBRANCH   1   2
BRANCH   1  11
ATOM     11  S   UNL     1      28.696  23.040  24.097  0.00  0.00    +0.000 S 
BRANCH  11  16
ATOM     12  C   UNL     1      33.842  26.100  25.174  0.00  0.00    +0.000 C 
ATOM     13  C   UNL     1      32.605  25.325  24.911  0.00  0.00    +0.000 A 
ATOM     14  C   UNL     1      32.606  23.962  24.758  0.00  0.00    +0.000 A 
ATOM     15  C   UNL     1      31.428  23.288  24.514  0.00  0.00    +0.000 A 
ATOM     16  C   UNL     1      30.212  23.926  24.413  0.00  0.00    +0.000 A 
ATOM     17  C   UNL     1      30.212  25.300  24.567  0.00  0.00    +0.000 A 
ATOM     18  C   UNL     1      31.400  25.988  24.812  0.00  0.00    +0.000 A 
ENDBRANCH  11  16
ENDBRANCH   1  11
TORSDOF 4
ENDMDL
