MODEL 1
REMARK VINA RESULT:      -7.5      0.000      0.000
REMARK  Name = 
REMARK  5 active torsions:
REMARK  status: ('A' for Active; 'I' for Inactive)
REMARK    1  A    between atoms: C_6  and  N_7
REMARK    2  A    between atoms: C_10  and  N_11
REMARK    3  A    between atoms: N_11  and  C_12
REMARK    4  A    between atoms: C_12  and  C_13
REMARK    5  A    between atoms: C_16  and  N_17
REMARK                            x       y       z     vdW  Elec       q    Type
REMARK                         _______ _______ _______ _____ _____    ______ ____
ROOT
ATOM      1  N   UNL     1      15.227  11.329  33.540  0.00  0.00    +0.000 NA
ENDROOT
BRANCH   1   8
ATOM      2  C   UNL     1      14.077  12.733  35.847  0.00  0.00    +0.000 C 
ATOM      3  C   UNL     1      14.029  13.258  34.476  0.00  0.00    +0.000 A 
ATOM      4  C   UNL     1      13.394  14.467  34.243  0.00  0.00    +0.000 A 
ATOM      5  C   UNL     1      13.313  14.997  32.972  0.00  0.00    +0.000 A 
ATOM      6  C   UNL     1      13.871  14.350  31.869  0.00  0.00    +0.000 A 
ATOM      7  C   UNL     1      14.499  13.145  32.145  0.00  0.00    +0.000 A 
ATOM      8  C   UNL     1      14.575  12.610  33.412  0.00  0.00    +0.000 A 
BRANCH   7   9
ATOM      9  N   UNL     1      15.135  12.444  31.070  0.00  0.00    +0.000 N 
ATOM     10  O   UNL     1      14.494  11.479  30.552  0.00  0.00    +0.000 OA
ATOM     11  O   UNL     1      16.378  12.764  30.612  0.00  0.00    +0.000 OA
ENDBRANCH   7   9
ENDBRANCH   1   8
BRANCH   1  12
ATOM     12  C   UNL     1      16.662  11.446  33.704  0.00  0.00    +0.000 C 
BRANCH  12  13
ATOM     13  C   UNL     1      17.181  10.880  34.955  0.00  0.00    +0.000 A 
ATOM     14  C   UNL     1      17.618   9.596  35.155  0.00  0.00    +0.000 A 
ATOM     15  C   UNL     1      18.045   9.096  36.360  0.00  0.00    +0.000 A 
ATOM     16  C   UNL     1      18.053   9.907  37.489  0.00  0.00    +0.000 A 
ATOM     17  C   UNL     1      17.622  11.199  37.318  0.00  0.00    +0.000 A 
ATOM     18  C   UNL     1      17.199  11.686  36.102  0.00  0.00    +0.000 A 
BRANCH  16  19
ATOM     19  N   UNL     1      18.433   9.512  38.780  0.00  0.00    +0.000 N 
ATOM     20  C   UNL     1      19.828   9.179  39.099  0.00  0.00    +0.000 C 
ATOM     21  C   UNL     1      17.413   9.454  39.824  0.00  0.00    +0.000 C 
ENDBRANCH  16  19
ENDBRANCH  12  13
ENDBRANCH   1  12
TORSDOF 5
ENDMDL
MODEL 2
REMARK VINA RESULT:      -7.4      1.681      2.294
REMARK  Name = 
REMARK  5 active torsions:
REMARK  status: ('A' for Active; 'I' for Inactive)
REMARK    1  A    between atoms: C_6  and  N_7
REMARK    2  A    between atoms: C_10  and  N_11
REMARK    3  A    between atoms: N_11  and  C_12
REMARK    4  A    between atoms: C_12  and  C_13
REMARK    5  A    between atoms: C_16  and  N_17
REMARK                            x       y       z     vdW  Elec       q    Type
REMARK                         _______ _______ _______ _____ _____    ______ ____
ROOT
ATOM      1  N   UNL     1      14.412  12.426  34.875  0.00  0.00    +0.000 NA
ENDROOT
BRANCH   1   8
ATOM      2  C   UNL     1      13.046  14.972  34.358  0.00  0.00    +0.000 C 
ATOM      3  C   UNL     1      13.688  14.172  33.306  0.00  0.00    +0.000 A 
ATOM      4  C   UNL     1      13.636  14.621  31.997  0.00  0.00    +0.000 A 
ATOM      5  C   UNL     1      14.215  13.900  30.973  0.00  0.00    +0.000 A 
ATOM      6  C   UNL     1      14.883  12.698  31.206  0.00  0.00    +0.000 A 
ATOM      7  C   UNL     1      14.915  12.286  32.529  0.00  0.00    +0.000 A 
ATOM      8  C   UNL     1      14.332  12.999  33.554  0.00  0.00    +0.000 A 
BRANCH   7   9
ATOM      9  N   UNL     1      15.622  11.083  32.854  0.00  0.00    +0.000 N 
ATOM     10  O   UNL     1      14.990   9.990  32.726  0.00  0.00    +0.000 OA
ATOM     11  O   UNL     1      16.911  11.080  33.297  0.00  0.00    +0.000 OA
ENDBRANCH   7   9
ENDBRANCH   1   8
BRANCH   1  12
ATOM     12  C   UNL     1      15.420  13.062  35.700  0.00  0.00    +0.000 C 
BRANCH  12  13
ATOM     13  C   UNL     1      16.060  12.170  36.675  0.00  0.00    +0.000 A 
ATOM     14  C   UNL     1      17.403  11.931  36.810  0.00  0.00    +0.000 A 
ATOM     15  C   UNL     1      17.952  11.046  37.704  0.00  0.00    +0.000 A 
ATOM     16  C   UNL     1      17.131  10.313  38.554  0.00  0.00    +0.000 A 
ATOM     17  C   UNL     1      15.781  10.533  38.442  0.00  0.00    +0.000 A 
ATOM     18  C   UNL     1      15.246  11.426  37.542  0.00  0.00    +0.000 A 
BRANCH  16  19
ATOM     19  N   UNL     1      17.562   9.357  39.486  0.00  0.00    +0.000 N 
ATOM     20  C   UNL     1      16.908   9.214  40.794  0.00  0.00    +0.000 C 
ATOM     21  C   UNL     1      18.672   8.478  39.126  0.00  0.00    +0.000 C 
ENDBRANCH  16  19
ENDBRANCH  12  13
ENDBRANCH   1  12
TORSDOF 5
ENDMDL
MODEL 3
REMARK VINA RESULT:      -6.8      2.108      2.791
REMARK  Name = 
REMARK  5 active torsions:
REMARK  status: ('A' for Active; 'I' for Inactive)
REMARK    1  A    between atoms: C_6  and  N_7
REMARK    2  A    between atoms: C_10  and  N_11
REMARK    3  A    between atoms: N_11  and  C_12
REMARK    4  A    between atoms: C_12  and  C_13
REMARK    5  A    between atoms: C_16  and  N_17
REMARK                            x       y       z     vdW  Elec       q    Type
REMARK                         _______ _______ _______ _____ _____    ______ ____
ROOT
ATOM      1  N   UNL     1      15.182  11.635  34.198  0.00  0.00    +0.000 NA
ENDROOT
BRANCH   1   8
ATOM      2  C   UNL     1      15.981  10.532  31.598  0.00  0.00    +0.000 C 
ATOM      3  C   UNL     1      15.202  11.769  31.745  0.00  0.00    +0.000 A 
ATOM      4  C   UNL     1      14.837  12.470  30.608  0.00  0.00    +0.000 A 
ATOM      5  C   UNL     1      14.113  13.642  30.695  0.00  0.00    +0.000 A 
ATOM      6  C   UNL     1      13.711  14.168  31.923  0.00  0.00    +0.000 A 
ATOM      7  C   UNL     1      14.094  13.435  33.035  0.00  0.00    +0.000 A 
ATOM      8  C   UNL     1      14.822  12.268  32.952  0.00  0.00    +0.000 A 
BRANCH   7   9
ATOM      9  N   UNL     1      13.679  13.888  34.329  0.00  0.00    +0.000 N 
ATOM     10  O   UNL     1      13.348  15.109  34.434  0.00  0.00    +0.000 OA
ATOM     11  O   UNL     1      13.646  13.074  35.422  0.00  0.00    +0.000 OA
ENDBRANCH   7   9
ENDBRANCH   1   8
BRANCH   1  12
ATOM     12  C   UNL     1      16.604  11.698  34.467  0.00  0.00    +0.000 C 
BRANCH  12  13
ATOM     13  C   UNL     1      17.021  11.022  35.702  0.00  0.00    +0.000 A 
ATOM     14  C   UNL     1      17.989  10.059  35.824  0.00  0.00    +0.000 A 
ATOM     15  C   UNL     1      18.307   9.416  36.994  0.00  0.00    +0.000 A 
ATOM     16  C   UNL     1      17.628   9.726  38.167  0.00  0.00    +0.000 A 
ATOM     17  C   UNL     1      16.654  10.689  38.076  0.00  0.00    +0.000 A 
ATOM     18  C   UNL     1      16.348  11.325  36.895  0.00  0.00    +0.000 A 
BRANCH  16  19
ATOM     19  N   UNL     1      17.833   9.122  39.417  0.00  0.00    +0.000 N 
ATOM     20  C   UNL     1      16.950   9.402  40.557  0.00  0.00    +0.000 C 
ATOM     21  C   UNL     1      18.941   8.181  39.567  0.00  0.00    +0.000 C 
ENDBRANCH  16  19
ENDBRANCH  12  13
ENDBRANCH   1  12
TORSDOF 5
ENDMDL
MODEL 4
REMARK VINA RESULT:      -6.0      2.690      3.754
REMARK  Name = 
REMARK  5 active torsions:
REMARK  status: ('A' for Active; 'I' for Inactive)
REMARK    1  A    between atoms: C_6  and  N_7
REMARK    2  A    between atoms: C_10  and  N_11
REMARK    3  A    between atoms: N_11  and  C_12
REMARK    4  A    between atoms: C_12  and  C_13
REMARK    5  A    between atoms: C_16  and  N_17
REMARK                            x       y       z     vdW  Elec       q    Type
REMARK                         _______ _______ _______ _____ _____    ______ ____
ROOT
ATOM      1  N   UNL     1      16.008  11.548  36.153  0.00  0.00    +0.000 NA
ENDROOT
BRANCH   1   8
ATOM      2  C   UNL     1      14.144  13.387  34.826  0.00  0.00    +0.000 C 
ATOM      3  C   UNL     1      14.966  12.409  34.101  0.00  0.00    +0.000 A 
ATOM      4  C   UNL     1      14.851  12.326  32.724  0.00  0.00    +0.000 A 
ATOM      5  C   UNL     1      15.594  11.417  31.999  0.00  0.00    +0.000 A 
ATOM      6  C   UNL     1      16.497  10.549  32.614  0.00  0.00    +0.000 A 
ATOM      7  C   UNL     1      16.584  10.666  33.993  0.00  0.00    +0.000 A 
ATOM      8  C   UNL     1      15.838  11.568  34.720  0.00  0.00    +0.000 A 
BRANCH   7   9
ATOM      9  N   UNL     1      17.522   9.839  34.690  0.00  0.00    +0.000 N 
ATOM     10  O   UNL     1      18.744  10.181  34.639  0.00  0.00    +0.000 OA
ATOM     11  O   UNL     1      17.155   8.719  35.375  0.00  0.00    +0.000 OA
ENDBRANCH   7   9
ENDBRANCH   1   8
BRANCH   1  12
ATOM     12  C   UNL     1      16.899  12.589  36.625  0.00  0.00    +0.000 C 
BRANCH  12  13
ATOM     13  C   UNL     1      17.994  12.112  37.478  0.00  0.00    +0.000 A 
ATOM     14  C   UNL     1      18.073  10.898  38.110  0.00  0.00    +0.000 A 
ATOM     15  C   UNL     1      19.095  10.517  38.943  0.00  0.00    +0.000 A 
ATOM     16  C   UNL     1      20.149  11.387  39.197  0.00  0.00    +0.000 A 
ATOM     17  C   UNL     1      20.098  12.610  38.575  0.00  0.00    +0.000 A 
ATOM     18  C   UNL     1      19.067  12.976  37.742  0.00  0.00    +0.000 A 
BRANCH  16  19
ATOM     19  N   UNL     1      21.234  11.133  40.050  0.00  0.00    +0.000 N 
ATOM     20  C   UNL     1      21.263   9.950  40.920  0.00  0.00    +0.000 C 
ATOM     21  C   UNL     1      22.361  12.062  40.046  0.00  0.00    +0.000 C 
ENDBRANCH  16  19
ENDBRANCH  12  13
ENDBRANCH   1  12
TORSDOF 5
ENDMDL
MODEL 5
REMARK VINA RESULT:      -6.0      2.445      3.694
REMARK  Name = 
REMARK  5 active torsions:
REMARK  status: ('A' for Active; 'I' for Inactive)
REMARK    1  A    between atoms: C_6  and  N_7
REMARK    2  A    between atoms: C_10  and  N_11
REMARK    3  A    between atoms: N_11  and  C_12
REMARK    4  A    between atoms: C_12  and  C_13
REMARK    5  A    between atoms: C_16  and  N_17
REMARK                            x       y       z     vdW  Elec       q    Type
REMARK                         _______ _______ _______ _____ _____    ______ ____
ROOT
ATOM      1  N   UNL     1      15.947  11.154  36.277  0.00  0.00    +0.000 NA
ENDROOT
BRANCH   1   8
ATOM      2  C   UNL     1      17.750   9.559  34.597  0.00  0.00    +0.000 C 
ATOM      3  C   UNL     1      16.762  10.500  34.053  0.00  0.00    +0.000 A 
ATOM      4  C   UNL     1      16.680  10.669  32.681  0.00  0.00    +0.000 A 
ATOM      5  C   UNL     1      15.775  11.548  32.123  0.00  0.00    +0.000 A 
ATOM      6  C   UNL     1      14.900  12.299  32.908  0.00  0.00    +0.000 A 
ATOM      7  C   UNL     1      15.012  12.100  34.275  0.00  0.00    +0.000 A 
ATOM      8  C   UNL     1      15.919  11.227  34.836  0.00  0.00    +0.000 A 
BRANCH   7   9
ATOM      9  N   UNL     1      14.117  12.802  35.144  0.00  0.00    +0.000 N 
ATOM     10  O   UNL     1      14.023  14.058  34.984  0.00  0.00    +0.000 OA
ATOM     11  O   UNL     1      13.394  12.182  36.119  0.00  0.00    +0.000 OA
ENDBRANCH   7   9
ENDBRANCH   1   8
BRANCH   1  12
ATOM     12  C   UNL     1      16.971  11.997  36.860  0.00  0.00    +0.000 C 
BRANCH  12  13
ATOM     13  C   UNL     1      17.961  11.280  37.673  0.00  0.00    +0.000 A 
ATOM     14  C   UNL     1      19.228  11.701  37.982  0.00  0.00    +0.000 A 
ATOM     15  C   UNL     1      20.139  10.969  38.702  0.00  0.00    +0.000 A 
ATOM     16  C   UNL     1      19.803   9.705  39.173  0.00  0.00    +0.000 A 
ATOM     17  C   UNL     1      18.539   9.258  38.880  0.00  0.00    +0.000 A 
ATOM     18  C   UNL     1      17.637  10.004  38.158  0.00  0.00    +0.000 A 
BRANCH  16  19
ATOM     19  N   UNL     1      20.650   8.846  39.890  0.00  0.00    +0.000 N 
ATOM     20  C   UNL     1      22.111   8.991  39.838  0.00  0.00    +0.000 C 
ATOM     21  C   UNL     1      20.050   7.803  40.719  0.00  0.00    +0.000 C 
ENDBRANCH  16  19
ENDBRANCH  12  13
ENDBRANCH   1  12
TORSDOF 5
ENDMDL
MODEL 6
REMARK VINA RESULT:      -5.9     17.744     19.615
REMARK  Name = 
REMARK  5 active torsions:
REMARK  status: ('A' for Active; 'I' for Inactive)
REMARK    1  A    between atoms: C_6  and  N_7
REMARK    2  A    between atoms: C_10  and  N_11
REMARK    3  A    between atoms: N_11  and  C_12
REMARK    4  A    between atoms: C_12  and  C_13
REMARK    5  A    between atoms: C_16  and  N_17
REMARK                            x       y       z     vdW  Elec       q    Type
REMARK                         _______ _______ _______ _____ _____    ______ ____
ROOT
ATOM      1  N   UNL     1      26.307  23.423  25.856  0.00  0.00    +0.000 NA
ENDROOT
BRANCH   1   8
ATOM      2  C   UNL     1      28.265  22.314  27.741  0.00  0.00    +0.000 C 
ATOM      3  C   UNL     1      28.568  22.585  26.329  0.00  0.00    +0.000 A 
ATOM      4  C   UNL     1      29.843  22.329  25.855  0.00  0.00    +0.000 A 
ATOM      5  C   UNL     1      30.179  22.576  24.540  0.00  0.00    +0.000 A 
ATOM      6  C   UNL     1      29.254  23.086  23.629  0.00  0.00    +0.000 A 
ATOM      7  C   UNL     1      27.989  23.327  24.142  0.00  0.00    +0.000 A 
ATOM      8  C   UNL     1      27.652  23.087  25.457  0.00  0.00    +0.000 A 
BRANCH   7   9
ATOM      9  N   UNL     1      26.972  23.808  23.256  0.00  0.00    +0.000 N 
ATOM     10  O   UNL     1      26.988  25.046  22.977  0.00  0.00    +0.000 OA
ATOM     11  O   UNL     1      26.007  23.002  22.730  0.00  0.00    +0.000 OA
ENDBRANCH   7   9
ENDBRANCH   1   8
BRANCH   1  12
ATOM     12  C   UNL     1      26.213  24.742  26.448  0.00  0.00    +0.000 C 
BRANCH  12  13
ATOM     13  C   UNL     1      24.903  25.387  26.292  0.00  0.00    +0.000 A 
ATOM     14  C   UNL     1      24.398  25.951  25.149  0.00  0.00    +0.000 A 
ATOM     15  C   UNL     1      23.188  26.592  25.064  0.00  0.00    +0.000 A 
ATOM     16  C   UNL     1      22.378  26.706  26.189  0.00  0.00    +0.000 A 
ATOM     17  C   UNL     1      22.858  26.149  27.348  0.00  0.00    +0.000 A 
ATOM     18  C   UNL     1      24.073  25.508  27.416  0.00  0.00    +0.000 A 
BRANCH  16  19
ATOM     19  N   UNL     1      21.140  27.362  26.244  0.00  0.00    +0.000 N 
ATOM     20  C   UNL     1      20.332  27.576  25.035  0.00  0.00    +0.000 C 
ATOM     21  C   UNL     1      20.645  27.819  27.540  0.00  0.00    +0.000 C 
ENDBRANCH  16  19
ENDBRANCH  12  13
ENDBRANCH   1  12
TORSDOF 5
ENDMDL
MODEL 7
REMARK VINA RESULT:      -5.9      2.825      4.442
REMARK  Name = 
REMARK  5 active torsions:
REMARK  status: ('A' for Active; 'I' for Inactive)
REMARK    1  A    between atoms: C_6  and  N_7
REMARK    2  A    between atoms: C_10  and  N_11
REMARK    3  A    between atoms: N_11  and  C_12
REMARK    4  A    between atoms: C_12  and  C_13
REMARK    5  A    between atoms: C_16  and  N_17
REMARK                            x       y       z     vdW  Elec       q    Type
REMARK                         _______ _______ _______ _____ _____    ______ ____
ROOT
ATOM      1  N   UNL     1      15.856  10.451  37.362  0.00  0.00    +0.000 NA
ENDROOT
BRANCH   1   8
ATOM      2  C   UNL     1      13.212  10.686  38.614  0.00  0.00    +0.000 C 
ATOM      3  C   UNL     1      13.647  11.520  37.486  0.00  0.00    +0.000 A 
ATOM      4  C   UNL     1      12.769  12.455  36.965  0.00  0.00    +0.000 A 
ATOM      5  C   UNL     1      13.128  13.255  35.899  0.00  0.00    +0.000 A 
ATOM      6  C   UNL     1      14.388  13.167  35.306  0.00  0.00    +0.000 A 
ATOM      7  C   UNL     1      15.238  12.221  35.859  0.00  0.00    +0.000 A 
ATOM      8  C   UNL     1      14.879  11.416  36.918  0.00  0.00    +0.000 A 
BRANCH   7   9
ATOM      9  N   UNL     1      16.564  12.103  35.332  0.00  0.00    +0.000 N 
ATOM     10  O   UNL     1      17.468  12.804  35.882  0.00  0.00    +0.000 OA
ATOM     11  O   UNL     1      16.872  11.296  34.278  0.00  0.00    +0.000 OA
ENDBRANCH   7   9
ENDBRANCH   1   8
BRANCH   1  12
ATOM     12  C   UNL     1      16.570  10.882  38.546  0.00  0.00    +0.000 C 
BRANCH  12  13
ATOM     13  C   UNL     1      16.837   9.815  39.519  0.00  0.00    +0.000 A 
ATOM     14  C   UNL     1      16.094   9.514  40.631  0.00  0.00    +0.000 A 
ATOM     15  C   UNL     1      16.413   8.539  41.542  0.00  0.00    +0.000 A 
ATOM     16  C   UNL     1      17.562   7.775  41.373  0.00  0.00    +0.000 A 
ATOM     17  C   UNL     1      18.325   8.053  40.267  0.00  0.00    +0.000 A 
ATOM     18  C   UNL     1      17.990   9.033  39.361  0.00  0.00    +0.000 A 
BRANCH  16  19
ATOM     19  N   UNL     1      18.016   6.774  42.245  0.00  0.00    +0.000 N 
ATOM     20  C   UNL     1      17.696   5.358  42.018  0.00  0.00    +0.000 C 
ATOM     21  C   UNL     1      18.841   7.161  43.387  0.00  0.00    +0.000 C 
ENDBRANCH  16  19
ENDBRANCH  12  13
ENDBRANCH   1  12
TORSDOF 5
ENDMDL
MODEL 8
REMARK VINA RESULT:      -5.8     18.900     21.091
REMARK  Name = 
REMARK  5 active torsions:
REMARK  status: ('A' for Active; 'I' for Inactive)
REMARK    1  A    between atoms: C_6  and  N_7
REMARK    2  A    between atoms: C_10  and  N_11
REMARK    3  A    between atoms: N_11  and  C_12
REMARK    4  A    between atoms: C_12  and  C_13
REMARK    5  A    between atoms: C_16  and  N_17
REMARK                            x       y       z     vdW  Elec       q    Type
REMARK                         _______ _______ _______ _____ _____    ______ ____
ROOT
ATOM      1  N   UNL     1      34.683   2.048  35.895  0.00  0.00    +0.000 NA
ENDROOT
BRANCH   1   8
ATOM      2  C   UNL     1      33.626   1.981  33.157  0.00  0.00    +0.000 C 
ATOM      3  C   UNL     1      33.562   3.169  34.018  0.00  0.00    +0.000 A 
ATOM      4  C   UNL     1      32.994   4.329  33.519  0.00  0.00    +0.000 A 
ATOM      5  C   UNL     1      32.919   5.474  34.286  0.00  0.00    +0.000 A 
ATOM      6  C   UNL     1      33.400   5.515  35.594  0.00  0.00    +0.000 A 
ATOM      7  C   UNL     1      33.958   4.334  36.057  0.00  0.00    +0.000 A 
ATOM      8  C   UNL     1      34.041   3.191  35.292  0.00  0.00    +0.000 A 
BRANCH   7   9
ATOM      9  N   UNL     1      34.434   4.285  37.407  0.00  0.00    +0.000 N 
ATOM     10  O   UNL     1      35.675   4.481  37.590  0.00  0.00    +0.000 OA
ATOM     11  O   UNL     1      33.620   4.026  38.469  0.00  0.00    +0.000 OA
ENDBRANCH   7   9
ENDBRANCH   1   8
BRANCH   1  12
ATOM     12  C   UNL     1      33.742   1.155  36.542  0.00  0.00    +0.000 C 
BRANCH  12  13
ATOM     13  C   UNL     1      33.633  -0.170  35.919  0.00  0.00    +0.000 A 
ATOM     14  C   UNL     1      34.666  -1.003  35.577  0.00  0.00    +0.000 A 
ATOM     15  C   UNL     1      34.517  -2.213  34.946  0.00  0.00    +0.000 A 
ATOM     16  C   UNL     1      33.249  -2.671  34.606  0.00  0.00    +0.000 A 
ATOM     17  C   UNL     1      32.194  -1.857  34.938  0.00  0.00    +0.000 A 
ATOM     18  C   UNL     1      32.361  -0.648  35.572  0.00  0.00    +0.000 A 
BRANCH  16  19
ATOM     19  N   UNL     1      32.963  -3.868  33.933  0.00  0.00    +0.000 N 
ATOM     20  C   UNL     1      33.602  -4.197  32.652  0.00  0.00    +0.000 C 
ATOM     21  C   UNL     1      32.024  -4.807  34.542  0.00  0.00    +0.000 C 
ENDBRANCH  16  19
ENDBRANCH  12  13
ENDBRANCH   1  12
TORSDOF 5
ENDMDL
MODEL 9
REMARK VINA RESULT:      -5.7     20.363     22.615
REMARK  Name = 
REMARK  5 active torsions:
REMARK  status: ('A' for Active; 'I' for Inactive)
REMARK    1  A    between atoms: C_6  and  N_7
REMARK    2  A    between atoms: C_10  and  N_11
REMARK    3  A    between atoms: N_11  and  C_12
REMARK    4  A    between atoms: C_12  and  C_13
REMARK    5  A    between atoms: C_16  and  N_17
REMARK                            x       y       z     vdW  Elec       q    Type
REMARK                         _______ _______ _______ _____ _____    ______ ____
ROOT
ATOM      1  N   UNL     1      28.305  23.799  23.929  0.00  0.00    +0.000 NA
ENDROOT
BRANCH   1   8
ATOM      2  C   UNL     1      31.110  23.077  24.402  0.00  0.00    +0.000 C 
ATOM      3  C   UNL     1      30.037  22.824  25.372  0.00  0.00    +0.000 A 
ATOM      4  C   UNL     1      30.347  22.196  26.567  0.00  0.00    +0.000 A 
ATOM      5  C   UNL     1      29.373  21.928  27.506  0.00  0.00    +0.000 A 
ATOM      6  C   UNL     1      28.039  22.282  27.303  0.00  0.00    +0.000 A 
ATOM      7  C   UNL     1      27.770  22.910  26.097  0.00  0.00    +0.000 A 
ATOM      8  C   UNL     1      28.740  23.173  25.154  0.00  0.00    +0.000 A 
BRANCH   7   9
ATOM      9  N   UNL     1      26.431  23.344  25.835  0.00  0.00    +0.000 N 
ATOM     10  O   UNL     1      26.009  24.345  26.492  0.00  0.00    +0.000 OA
ATOM     11  O   UNL     1      25.614  22.722  24.939  0.00  0.00    +0.000 OA
ENDBRANCH   7   9
ENDBRANCH   1   8
BRANCH   1  12
ATOM     12  C   UNL     1      28.454  25.240  23.953  0.00  0.00    +0.000 C 
BRANCH  12  13
ATOM     13  C   UNL     1      28.793  25.839  22.657  0.00  0.00    +0.000 A 
ATOM     14  C   UNL     1      29.182  25.175  21.522  0.00  0.00    +0.000 A 
ATOM     15  C   UNL     1      29.542  25.783  20.346  0.00  0.00    +0.000 A 
ATOM     16  C   UNL     1      29.530  27.170  20.246  0.00  0.00    +0.000 A 
ATOM     17  C   UNL     1      29.144  27.862  21.366  0.00  0.00    +0.000 A 
ATOM     18  C   UNL     1      28.784  27.237  22.538  0.00  0.00    +0.000 A 
BRANCH  16  19
ATOM     19  N   UNL     1      29.905  27.912  19.116  0.00  0.00    +0.000 N 
ATOM     20  C   UNL     1      29.922  29.381  19.137  0.00  0.00    +0.000 C 
ATOM     21  C   UNL     1      30.303  27.196  17.907  0.00  0.00    +0.000 C 
ENDBRANCH  16  19
ENDBRANCH  12  13
ENDBRANCH   1  12
TORSDOF 5
ENDMDL
MODEL 10
REMARK VINA RESULT:      -5.7     20.454     22.075
REMARK  Name = 
REMARK  5 active torsions:
REMARK  status: ('A' for Active; 'I' for Inactive)
REMARK    1  A    between atoms: C_6  and  N_7
REMARK    2  A    between atoms: C_10  and  N_11
REMARK    3  A    between atoms: N_11  and  C_12
REMARK    4  A    between atoms: C_12  and  C_13
REMARK    5  A    between atoms: C_16  and  N_17
REMARK                            x       y       z     vdW  Elec       q    Type
REMARK                         _______ _______ _______ _____ _____    ______ ____
ROOT
ATOM      1  N   UNL     1      18.910  -9.199  26.224  0.00  0.00    +0.000 NA
ENDROOT
BRANCH   1   8
ATOM      2  C   UNL     1      16.957  -7.273  27.270  0.00  0.00    +0.000 C 
ATOM      3  C   UNL     1      18.231  -6.877  26.653  0.00  0.00    +0.000 A 
ATOM      4  C   UNL     1      18.529  -5.530  26.535  0.00  0.00    +0.000 A 
ATOM      5  C   UNL     1      19.707  -5.108  25.954  0.00  0.00    +0.000 A 
ATOM      6  C   UNL     1      20.652  -6.012  25.470  0.00  0.00    +0.000 A 
ATOM      7  C   UNL     1      20.318  -7.350  25.609  0.00  0.00    +0.000 A 
ATOM      8  C   UNL     1      19.138  -7.775  26.182  0.00  0.00    +0.000 A 
BRANCH   7   9
ATOM      9  N   UNL     1      21.258  -8.339  25.175  0.00  0.00    +0.000 N 
ATOM     10  O   UNL     1      21.081  -8.838  24.021  0.00  0.00    +0.000 OA
ATOM     11  O   UNL     1      22.299  -8.760  25.949  0.00  0.00    +0.000 OA
ENDBRANCH   7   9
ENDBRANCH   1   8
BRANCH   1  12
ATOM     12  C   UNL     1      19.516  -9.829  27.380  0.00  0.00    +0.000 C 
BRANCH  12  13
ATOM     13  C   UNL     1      18.611 -10.002  28.523  0.00  0.00    +0.000 A 
ATOM     14  C   UNL     1      18.801  -9.536  29.798  0.00  0.00    +0.000 A 
ATOM     15  C   UNL     1      17.950  -9.770  30.849  0.00  0.00    +0.000 A 
ATOM     16  C   UNL     1      16.800 -10.529  30.661  0.00  0.00    +0.000 A 
ATOM     17  C   UNL     1      16.583 -11.008  29.393  0.00  0.00    +0.000 A 
ATOM     18  C   UNL     1      17.445 -10.763  28.349  0.00  0.00    +0.000 A 
BRANCH  16  19
ATOM     19  N   UNL     1      15.870 -10.867  31.655  0.00  0.00    +0.000 N 
ATOM     20  C   UNL     1      14.461 -11.127  31.328  0.00  0.00    +0.000 C 
ATOM     21  C   UNL     1      16.330 -10.979  33.037  0.00  0.00    +0.000 C 
ENDBRANCH  16  19
ENDBRANCH  12  13
ENDBRANCH   1  12
TORSDOF 5
ENDMDL
