MODEL 1
REMARK VINA RESULT:      -6.2      0.000      0.000
REMARK  Name = 
REMARK  3 active torsions:
REMARK  status: ('A' for Active; 'I' for Inactive)
REMARK    1  A    between atoms: C_7  and  N_8
REMARK    2  A    between atoms: C_9  and  C_11
REMARK    3  A    between atoms: C_14  and  N_15
REMARK                            x       y       z     vdW  Elec       q    Type
REMARK                         _______ _______ _______ _____ _____    ______ ____
ROOT
ATOM      1  N   UNL     1      28.135  24.103  24.191  0.00  0.00    +0.000 NA
ATOM      2  C   UNL     1      28.551  23.145  25.126  0.00  0.00    +0.000 C 
ATOM      3  O   UNL     1      29.471  22.304  24.847  0.00  0.00    +0.000 OA
ENDROOT
BRANCH   1  10
ATOM      4  C   UNL     1      26.704  23.866  21.815  0.00  0.00    +0.000 C 
ATOM      5  C   UNL     1      27.910  24.990  21.847  0.00  0.00    +0.000 C 
ATOM      6  C   UNL     1      27.168  25.900  22.954  0.00  0.00    +0.000 C 
ATOM      7  C   UNL     1      28.171  26.834  23.543  0.00  0.00    +0.000 C 
ATOM      8  C   UNL     1      29.512  26.482  23.007  0.00  0.00    +0.000 C 
ATOM      9  C   UNL     1      30.006  25.146  23.204  0.00  0.00    +0.000 C 
ATOM     10  C   UNL     1      28.901  24.007  22.821  0.00  0.00    +0.000 C 
ENDBRANCH   1  10
BRANCH   2  11
ATOM     11  C   UNL     1      27.947  23.063  26.466  0.00  0.00    +0.000 A 
ATOM     12  C   UNL     1      28.516  22.286  27.461  0.00  0.00    +0.000 A 
ATOM     13  C   UNL     1      27.923  22.238  28.701  0.00  0.00    +0.000 A 
ATOM     14  C   UNL     1      26.758  22.945  28.993  0.00  0.00    +0.000 A 
ATOM     15  C   UNL     1      26.198  23.710  28.001  0.00  0.00    +0.000 A 
ATOM     16  C   UNL     1      26.800  23.748  26.777  0.00  0.00    +0.000 A 
BRANCH  14  17
ATOM     17  N   UNL     1      26.134  22.896  30.261  0.00  0.00    +0.000 N 
ATOM     18  O   UNL     1      25.822  23.941  30.855  0.00  0.00    +0.000 OA
ATOM     19  O   UNL     1      25.868  21.690  30.835  0.00  0.00    +0.000 OA
ENDBRANCH  14  17
ENDBRANCH   2  11
TORSDOF 3
ENDMDL
MODEL 2
REMARK VINA RESULT:      -6.1     19.698     22.552
REMARK  Name = 
REMARK  3 active torsions:
REMARK  status: ('A' for Active; 'I' for Inactive)
REMARK    1  A    between atoms: C_7  and  N_8
REMARK    2  A    between atoms: C_9  and  C_11
REMARK    3  A    between atoms: C_14  and  N_15
REMARK                            x       y       z     vdW  Elec       q    Type
REMARK                         _______ _______ _______ _____ _____    ______ ____
ROOT
ATOM      1  N   UNL     1      18.092   8.661  39.534  0.00  0.00    +0.000 NA
ATOM      2  C   UNL     1      18.522   9.334  38.383  0.00  0.00    +0.000 C 
ATOM      3  O   UNL     1      19.752   9.333  38.037  0.00  0.00    +0.000 OA
ENDROOT
BRANCH   1  10
ATOM      4  C   UNL     1      19.026   9.739  41.925  0.00  0.00    +0.000 C 
ATOM      5  C   UNL     1      18.709   8.121  41.913  0.00  0.00    +0.000 C 
ATOM      6  C   UNL     1      17.124   8.331  41.692  0.00  0.00    +0.000 C 
ATOM      7  C   UNL     1      16.540   7.041  41.223  0.00  0.00    +0.000 C 
ATOM      8  C   UNL     1      17.650   6.081  40.986  0.00  0.00    +0.000 C 
ATOM      9  C   UNL     1      18.689   6.441  40.060  0.00  0.00    +0.000 C 
ATOM     10  C   UNL     1      19.259   7.950  40.311  0.00  0.00    +0.000 C 
ENDBRANCH   1  10
BRANCH   2  11
ATOM     11  C   UNL     1      17.582  10.072  37.524  0.00  0.00    +0.000 A 
ATOM     12  C   UNL     1      16.475  10.710  38.059  0.00  0.00    +0.000 A 
ATOM     13  C   UNL     1      15.622  11.393  37.224  0.00  0.00    +0.000 A 
ATOM     14  C   UNL     1      15.830  11.463  35.848  0.00  0.00    +0.000 A 
ATOM     15  C   UNL     1      16.927  10.825  35.325  0.00  0.00    +0.000 A 
ATOM     16  C   UNL     1      17.765  10.154  36.168  0.00  0.00    +0.000 A 
BRANCH  14  17
ATOM     17  N   UNL     1      14.955  12.154  34.978  0.00  0.00    +0.000 N 
ATOM     18  O   UNL     1      14.094  12.927  35.427  0.00  0.00    +0.000 OA
ATOM     19  O   UNL     1      15.061  11.971  33.632  0.00  0.00    +0.000 OA
ENDBRANCH  14  17
ENDBRANCH   2  11
TORSDOF 3
ENDMDL
MODEL 3
REMARK VINA RESULT:      -6.0      2.770      6.753
REMARK  Name = 
REMARK  3 active torsions:
REMARK  status: ('A' for Active; 'I' for Inactive)
REMARK    1  A    between atoms: C_7  and  N_8
REMARK    2  A    between atoms: C_9  and  C_11
REMARK    3  A    between atoms: C_14  and  N_15
REMARK                            x       y       z     vdW  Elec       q    Type
REMARK                         _______ _______ _______ _____ _____    ______ ____
ROOT
ATOM      1  N   UNL     1      28.504  23.333  28.459  0.00  0.00    +0.000 NA
ATOM      2  C   UNL     1      29.380  22.762  27.526  0.00  0.00    +0.000 C 
ATOM      3  O   UNL     1      30.346  22.014  27.898  0.00  0.00    +0.000 OA
ENDROOT
BRANCH   1  10
ATOM      4  C   UNL     1      29.402  25.306  30.207  0.00  0.00    +0.000 C 
ATOM      5  C   UNL     1      28.207  24.312  30.758  0.00  0.00    +0.000 C 
ATOM      6  C   UNL     1      27.128  24.851  29.685  0.00  0.00    +0.000 C 
ATOM      7  C   UNL     1      26.005  23.873  29.617  0.00  0.00    +0.000 C 
ATOM      8  C   UNL     1      26.360  22.690  30.445  0.00  0.00    +0.000 C 
ATOM      9  C   UNL     1      27.569  21.973  30.143  0.00  0.00    +0.000 C 
ATOM     10  C   UNL     1      28.852  22.963  29.946  0.00  0.00    +0.000 C 
ENDBRANCH   1  10
BRANCH   2  11
ATOM     11  C   UNL     1      29.230  23.000  26.081  0.00  0.00    +0.000 A 
ATOM     12  C   UNL     1      30.333  23.043  25.245  0.00  0.00    +0.000 A 
ATOM     13  C   UNL     1      30.150  23.263  23.900  0.00  0.00    +0.000 A 
ATOM     14  C   UNL     1      28.886  23.451  23.344  0.00  0.00    +0.000 A 
ATOM     15  C   UNL     1      27.798  23.410  24.180  0.00  0.00    +0.000 A 
ATOM     16  C   UNL     1      27.996  23.188  25.512  0.00  0.00    +0.000 A 
BRANCH  14  17
ATOM     17  N   UNL     1      28.686  23.688  21.964  0.00  0.00    +0.000 N 
ATOM     18  O   UNL     1      27.597  23.430  21.428  0.00  0.00    +0.000 OA
ATOM     19  O   UNL     1      29.699  24.209  21.217  0.00  0.00    +0.000 OA
ENDBRANCH  14  17
ENDBRANCH   2  11
TORSDOF 3
ENDMDL
MODEL 4
REMARK VINA RESULT:      -6.0     18.387     21.150
REMARK  Name = 
REMARK  3 active torsions:
REMARK  status: ('A' for Active; 'I' for Inactive)
REMARK    1  A    between atoms: C_7  and  N_8
REMARK    2  A    between atoms: C_9  and  C_11
REMARK    3  A    between atoms: C_14  and  N_15
REMARK                            x       y       z     vdW  Elec       q    Type
REMARK                         _______ _______ _______ _____ _____    ______ ____
ROOT
ATOM      1  N   UNL     1      34.803   8.567  36.276  0.00  0.00    +0.000 NA
ATOM      2  C   UNL     1      34.233   7.377  36.749  0.00  0.00    +0.000 C 
ATOM      3  O   UNL     1      33.813   7.277  37.951  0.00  0.00    +0.000 OA
ENDROOT
BRANCH   1  10
ATOM      4  C   UNL     1      37.230   9.195  37.487  0.00  0.00    +0.000 C 
ATOM      5  C   UNL     1      36.327  10.459  36.932  0.00  0.00    +0.000 C 
ATOM      6  C   UNL     1      36.479  10.016  35.387  0.00  0.00    +0.000 C 
ATOM      7  C   UNL     1      35.433  10.723  34.592  0.00  0.00    +0.000 C 
ATOM      8  C   UNL     1      34.542  11.454  35.531  0.00  0.00    +0.000 C 
ATOM      9  C   UNL     1      33.867  10.713  36.561  0.00  0.00    +0.000 C 
ATOM     10  C   UNL     1      34.866   9.701  37.363  0.00  0.00    +0.000 C 
ENDBRANCH   1  10
BRANCH   2  11
ATOM     11  C   UNL     1      34.095   6.192  35.886  0.00  0.00    +0.000 A 
ATOM     12  C   UNL     1      34.849   5.053  36.110  0.00  0.00    +0.000 A 
ATOM     13  C   UNL     1      34.688   3.965  35.284  0.00  0.00    +0.000 A 
ATOM     14  C   UNL     1      33.791   3.970  34.218  0.00  0.00    +0.000 A 
ATOM     15  C   UNL     1      33.049   5.104  34.001  0.00  0.00    +0.000 A 
ATOM     16  C   UNL     1      33.219   6.174  34.831  0.00  0.00    +0.000 A 
BRANCH  14  17
ATOM     17  N   UNL     1      33.623   2.861  33.356  0.00  0.00    +0.000 N 
ATOM     18  O   UNL     1      33.741   2.990  32.127  0.00  0.00    +0.000 OA
ATOM     19  O   UNL     1      33.335   1.638  33.881  0.00  0.00    +0.000 OA
ENDBRANCH  14  17
ENDBRANCH   2  11
TORSDOF 3
ENDMDL
MODEL 5
REMARK VINA RESULT:      -5.7     27.067     29.333
REMARK  Name = 
REMARK  3 active torsions:
REMARK  status: ('A' for Active; 'I' for Inactive)
REMARK    1  A    between atoms: C_7  and  N_8
REMARK    2  A    between atoms: C_9  and  C_11
REMARK    3  A    between atoms: C_14  and  N_15
REMARK                            x       y       z     vdW  Elec       q    Type
REMARK                         _______ _______ _______ _____ _____    ______ ____
ROOT
ATOM      1  N   UNL     1      32.955  -5.342  32.305  0.00  0.00    +0.000 NA
ATOM      2  C   UNL     1      32.805  -4.875  33.618  0.00  0.00    +0.000 C 
ATOM      3  O   UNL     1      32.579  -5.680  34.584  0.00  0.00    +0.000 OA
ENDROOT
BRANCH   1  10
ATOM      4  C   UNL     1      30.805  -6.421  30.904  0.00  0.00    +0.000 C 
ATOM      5  C   UNL     1      32.298  -7.031  30.560  0.00  0.00    +0.000 C 
ATOM      6  C   UNL     1      32.833  -5.640  29.940  0.00  0.00    +0.000 C 
ATOM      7  C   UNL     1      34.322  -5.695  29.879  0.00  0.00    +0.000 C 
ATOM      8  C   UNL     1      34.774  -6.943  30.549  0.00  0.00    +0.000 C 
ATOM      9  C   UNL     1      34.394  -7.169  31.917  0.00  0.00    +0.000 C 
ATOM     10  C   UNL     1      32.805  -6.902  32.179  0.00  0.00    +0.000 C 
ENDBRANCH   1  10
BRANCH   2  11
ATOM     11  C   UNL     1      32.899  -3.443  33.943  0.00  0.00    +0.000 A 
ATOM     12  C   UNL     1      32.134  -2.887  34.954  0.00  0.00    +0.000 A 
ATOM     13  C   UNL     1      32.252  -1.545  35.230  0.00  0.00    +0.000 A 
ATOM     14  C   UNL     1      33.118  -0.716  34.518  0.00  0.00    +0.000 A 
ATOM     15  C   UNL     1      33.870  -1.273  33.515  0.00  0.00    +0.000 A 
ATOM     16  C   UNL     1      33.742  -2.607  33.256  0.00  0.00    +0.000 A 
BRANCH  14  17
ATOM     17  N   UNL     1      33.242   0.667  34.785  0.00  0.00    +0.000 N 
ATOM     18  O   UNL     1      33.652   1.066  35.887  0.00  0.00    +0.000 OA
ATOM     19  O   UNL     1      32.912   1.571  33.821  0.00  0.00    +0.000 OA
ENDBRANCH  14  17
ENDBRANCH   2  11
TORSDOF 3
ENDMDL
MODEL 6
REMARK VINA RESULT:      -5.7     27.557     29.986
REMARK  Name = 
REMARK  3 active torsions:
REMARK  status: ('A' for Active; 'I' for Inactive)
REMARK    1  A    between atoms: C_7  and  N_8
REMARK    2  A    between atoms: C_9  and  C_11
REMARK    3  A    between atoms: C_14  and  N_15
REMARK                            x       y       z     vdW  Elec       q    Type
REMARK                         _______ _______ _______ _____ _____    ______ ____
ROOT
ATOM      1  N   UNL     1      33.780  -3.152  34.152  0.00  0.00    +0.000 NA
ATOM      2  C   UNL     1      33.648  -4.522  33.891  0.00  0.00    +0.000 C 
ATOM      3  O   UNL     1      33.390  -5.352  34.827  0.00  0.00    +0.000 OA
ENDROOT
BRANCH   1  10
ATOM      4  C   UNL     1      35.940  -2.207  35.633  0.00  0.00    +0.000 C 
ATOM      5  C   UNL     1      34.526  -1.368  35.762  0.00  0.00    +0.000 C 
ATOM      6  C   UNL     1      34.551  -0.893  34.220  0.00  0.00    +0.000 C 
ATOM      7  C   UNL     1      33.184  -0.425  33.851  0.00  0.00    +0.000 C 
ATOM      8  C   UNL     1      32.267  -0.708  34.987  0.00  0.00    +0.000 C 
ATOM      9  C   UNL     1      32.143  -2.062  35.453  0.00  0.00    +0.000 C 
ATOM     10  C   UNL     1      33.590  -2.786  35.669  0.00  0.00    +0.000 C 
ENDBRANCH   1  10
BRANCH   2  11
ATOM     11  C   UNL     1      33.803  -5.067  32.532  0.00  0.00    +0.000 A 
ATOM     12  C   UNL     1      34.969  -5.706  32.147  0.00  0.00    +0.000 A 
ATOM     13  C   UNL     1      35.074  -6.205  30.870  0.00  0.00    +0.000 A 
ATOM     14  C   UNL     1      34.042  -6.086  29.940  0.00  0.00    +0.000 A 
ATOM     15  C   UNL     1      32.890  -5.448  30.329  0.00  0.00    +0.000 A 
ATOM     16  C   UNL     1      32.802  -4.961  31.601  0.00  0.00    +0.000 A 
BRANCH  14  17
ATOM     17  N   UNL     1      34.141  -6.586  28.621  0.00  0.00    +0.000 N 
ATOM     18  O   UNL     1      33.380  -6.178  27.730  0.00  0.00    +0.000 OA
ATOM     19  O   UNL     1      35.086  -7.522  28.325  0.00  0.00    +0.000 OA
ENDBRANCH  14  17
ENDBRANCH   2  11
TORSDOF 3
ENDMDL
MODEL 7
REMARK VINA RESULT:      -5.7     26.021     28.486
REMARK  Name = 
REMARK  3 active torsions:
REMARK  status: ('A' for Active; 'I' for Inactive)
REMARK    1  A    between atoms: C_7  and  N_8
REMARK    2  A    between atoms: C_9  and  C_11
REMARK    3  A    between atoms: C_14  and  N_15
REMARK                            x       y       z     vdW  Elec       q    Type
REMARK                         _______ _______ _______ _____ _____    ______ ____
ROOT
ATOM      1  N   UNL     1      33.868  -4.061  33.695  0.00  0.00    +0.000 NA
ATOM      2  C   UNL     1      33.932  -3.113  34.725  0.00  0.00    +0.000 C 
ATOM      3  O   UNL     1      34.047  -3.470  35.946  0.00  0.00    +0.000 OA
ENDROOT
BRANCH   1  10
ATOM      4  C   UNL     1      31.627  -5.704  33.514  0.00  0.00    +0.000 C 
ATOM      5  C   UNL     1      33.057  -6.336  32.989  0.00  0.00    +0.000 C 
ATOM      6  C   UNL     1      33.185  -5.291  31.766  0.00  0.00    +0.000 C 
ATOM      7  C   UNL     1      34.596  -5.302  31.284  0.00  0.00    +0.000 C 
ATOM      8  C   UNL     1      35.399  -6.154  32.200  0.00  0.00    +0.000 C 
ATOM      9  C   UNL     1      35.428  -5.827  33.600  0.00  0.00    +0.000 C 
ATOM     10  C   UNL     1      33.940  -5.544  34.209  0.00  0.00    +0.000 C 
ENDBRANCH   1  10
BRANCH   2  11
ATOM     11  C   UNL     1      33.868  -1.669  34.448  0.00  0.00    +0.000 A 
ATOM     12  C   UNL     1      33.999  -1.180  33.159  0.00  0.00    +0.000 A 
ATOM     13  C   UNL     1      33.929   0.176  32.942  0.00  0.00    +0.000 A 
ATOM     14  C   UNL     1      33.735   1.084  33.981  0.00  0.00    +0.000 A 
ATOM     15  C   UNL     1      33.609   0.593  35.256  0.00  0.00    +0.000 A 
ATOM     16  C   UNL     1      33.678  -0.756  35.454  0.00  0.00    +0.000 A 
BRANCH  14  17
ATOM     17  N   UNL     1      33.671   2.481  33.771  0.00  0.00    +0.000 N 
ATOM     18  O   UNL     1      33.639   3.266  34.732  0.00  0.00    +0.000 OA
ATOM     19  O   UNL     1      33.650   2.971  32.500  0.00  0.00    +0.000 OA
ENDBRANCH  14  17
ENDBRANCH   2  11
TORSDOF 3
ENDMDL
MODEL 8
REMARK VINA RESULT:      -5.7     31.357     32.791
REMARK  Name = 
REMARK  3 active torsions:
REMARK  status: ('A' for Active; 'I' for Inactive)
REMARK    1  A    between atoms: C_7  and  N_8
REMARK    2  A    between atoms: C_9  and  C_11
REMARK    3  A    between atoms: C_14  and  N_15
REMARK                            x       y       z     vdW  Elec       q    Type
REMARK                         _______ _______ _______ _____ _____    ______ ____
ROOT
ATOM      1  N   UNL     1      23.269  -9.143  24.224  0.00  0.00    +0.000 NA
ATOM      2  C   UNL     1      22.305  -9.425  25.202  0.00  0.00    +0.000 C 
ATOM      3  O   UNL     1      22.283 -10.551  25.804  0.00  0.00    +0.000 OA
ENDROOT
BRANCH   1  10
ATOM      4  C   UNL     1      23.188 -10.524  21.808  0.00  0.00    +0.000 C 
ATOM      5  C   UNL     1      24.673 -10.049  22.343  0.00  0.00    +0.000 C 
ATOM      6  C   UNL     1      24.334  -8.478  22.194  0.00  0.00    +0.000 C 
ATOM      7  C   UNL     1      25.336  -7.704  22.983  0.00  0.00    +0.000 C 
ATOM      8  C   UNL     1      26.183  -8.665  23.738  0.00  0.00    +0.000 C 
ATOM      9  C   UNL     1      25.547  -9.587  24.640  0.00  0.00    +0.000 C 
ATOM     10  C   UNL     1      24.261 -10.335  23.969  0.00  0.00    +0.000 C 
ENDBRANCH   1  10
BRANCH   2  11
ATOM     11  C   UNL     1      21.277  -8.440  25.576  0.00  0.00    +0.000 A 
ATOM     12  C   UNL     1      21.370  -7.119  25.172  0.00  0.00    +0.000 A 
ATOM     13  C   UNL     1      20.387  -6.231  25.539  0.00  0.00    +0.000 A 
ATOM     14  C   UNL     1      19.294  -6.614  26.314  0.00  0.00    +0.000 A 
ATOM     15  C   UNL     1      19.209  -7.924  26.714  0.00  0.00    +0.000 A 
ATOM     16  C   UNL     1      20.193  -8.793  26.338  0.00  0.00    +0.000 A 
BRANCH  14  17
ATOM     17  N   UNL     1      18.281  -5.708  26.706  0.00  0.00    +0.000 N 
ATOM     18  O   UNL     1      18.426  -4.486  26.544  0.00  0.00    +0.000 OA
ATOM     19  O   UNL     1      17.132  -6.182  27.263  0.00  0.00    +0.000 OA
ENDBRANCH  14  17
ENDBRANCH   2  11
TORSDOF 3
ENDMDL
MODEL 9
REMARK VINA RESULT:      -5.6     31.404     32.865
REMARK  Name = 
REMARK  3 active torsions:
REMARK  status: ('A' for Active; 'I' for Inactive)
REMARK    1  A    between atoms: C_7  and  N_8
REMARK    2  A    between atoms: C_9  and  C_11
REMARK    3  A    between atoms: C_14  and  N_15
REMARK                            x       y       z     vdW  Elec       q    Type
REMARK                         _______ _______ _______ _____ _____    ______ ____
ROOT
ATOM      1  N   UNL     1      23.045  -8.578  24.300  0.00  0.00    +0.000 NA
ATOM      2  C   UNL     1      22.545  -7.421  24.912  0.00  0.00    +0.000 C 
ATOM      3  O   UNL     1      23.302  -6.422  25.157  0.00  0.00    +0.000 OA
ENDROOT
BRANCH   1  10
ATOM      4  C   UNL     1      24.785 -10.481  25.350  0.00  0.00    +0.000 C 
ATOM      5  C   UNL     1      24.933 -10.145  23.742  0.00  0.00    +0.000 C 
ATOM      6  C   UNL     1      23.476 -10.740  23.383  0.00  0.00    +0.000 C 
ATOM      7  C   UNL     1      23.083 -10.237  22.035  0.00  0.00    +0.000 C 
ATOM      8  C   UNL     1      24.104  -9.255  21.584  0.00  0.00    +0.000 C 
ATOM      9  C   UNL     1      24.370  -8.107  22.407  0.00  0.00    +0.000 C 
ATOM     10  C   UNL     1      24.581  -8.497  23.978  0.00  0.00    +0.000 C 
ENDBRANCH   1  10
BRANCH   2  11
ATOM     11  C   UNL     1      21.131  -7.306  25.304  0.00  0.00    +0.000 A 
ATOM     12  C   UNL     1      20.586  -6.085  25.666  0.00  0.00    +0.000 A 
ATOM     13  C   UNL     1      19.259  -6.017  26.022  0.00  0.00    +0.000 A 
ATOM     14  C   UNL     1      18.438  -7.143  26.036  0.00  0.00    +0.000 A 
ATOM     15  C   UNL     1      18.985  -8.350  25.679  0.00  0.00    +0.000 A 
ATOM     16  C   UNL     1      20.303  -8.399  25.326  0.00  0.00    +0.000 A 
BRANCH  14  17
ATOM     17  N   UNL     1      17.075  -7.088  26.409  0.00  0.00    +0.000 N 
ATOM     18  O   UNL     1      16.703  -6.369  27.350  0.00  0.00    +0.000 OA
ATOM     19  O   UNL     1      16.159  -7.829  25.725  0.00  0.00    +0.000 OA
ENDBRANCH  14  17
ENDBRANCH   2  11
TORSDOF 3
ENDMDL
MODEL 10
REMARK VINA RESULT:      -5.6      1.519      2.458
REMARK  Name = 
REMARK  3 active torsions:
REMARK  status: ('A' for Active; 'I' for Inactive)
REMARK    1  A    between atoms: C_7  and  N_8
REMARK    2  A    between atoms: C_9  and  C_11
REMARK    3  A    between atoms: C_14  and  N_15
REMARK                            x       y       z     vdW  Elec       q    Type
REMARK                         _______ _______ _______ _____ _____    ______ ____
ROOT
ATOM      1  N   UNL     1      27.393  25.114  24.266  0.00  0.00    +0.000 NA
ATOM      2  C   UNL     1      26.286  24.468  24.830  0.00  0.00    +0.000 C 
ATOM      3  O   UNL     1      25.301  24.092  24.110  0.00  0.00    +0.000 OA
ENDROOT
BRANCH   1  10
ATOM      4  C   UNL     1      27.547  27.675  23.184  0.00  0.00    +0.000 C 
ATOM      5  C   UNL     1      28.460  26.507  22.461  0.00  0.00    +0.000 C 
ATOM      6  C   UNL     1      29.401  26.302  23.756  0.00  0.00    +0.000 C 
ATOM      7  C   UNL     1      30.121  25.003  23.611  0.00  0.00    +0.000 C 
ATOM      8  C   UNL     1      29.596  24.306  22.408  0.00  0.00    +0.000 C 
ATOM      9  C   UNL     1      28.189  24.024  22.332  0.00  0.00    +0.000 C 
ATOM     10  C   UNL     1      27.268  25.318  22.712  0.00  0.00    +0.000 C 
ENDBRANCH   1  10
BRANCH   2  11
ATOM     11  C   UNL     1      26.206  24.195  26.275  0.00  0.00    +0.000 A 
ATOM     12  C   UNL     1      25.313  24.878  27.084  0.00  0.00    +0.000 A 
ATOM     13  C   UNL     1      25.266  24.592  28.428  0.00  0.00    +0.000 A 
ATOM     14  C   UNL     1      26.096  23.636  29.011  0.00  0.00    +0.000 A 
ATOM     15  C   UNL     1      26.981  22.966  28.204  0.00  0.00    +0.000 A 
ATOM     16  C   UNL     1      27.013  23.260  26.872  0.00  0.00    +0.000 A 
BRANCH  14  17
ATOM     17  N   UNL     1      26.064  23.339  30.394  0.00  0.00    +0.000 N 
ATOM     18  O   UNL     1      26.099  24.248  31.238  0.00  0.00    +0.000 OA
ATOM     19  O   UNL     1      25.989  22.042  30.803  0.00  0.00    +0.000 OA
ENDBRANCH  14  17
ENDBRANCH   2  11
TORSDOF 3
ENDMDL
