MODEL 1
REMARK VINA RESULT:      -5.3      0.000      0.000
REMARK  Name = 
REMARK  5 active torsions:
REMARK  status: ('A' for Active; 'I' for Inactive)
REMARK    1  A    between atoms: N_4  and  C_5
REMARK    2  A    between atoms: C_11  and  N_12
REMARK    3  A    between atoms: N_12  and  C_13
REMARK    4  A    between atoms: C_13  and  C_14
REMARK    5  A    between atoms: C_16  and  N_17
REMARK                            x       y       z     vdW  Elec       q    Type
REMARK                         _______ _______ _______ _____ _____    ______ ____
ROOT
ATOM      1  C   UNL     1      29.420  22.496  31.528  0.00  0.00    +0.000 C 
ATOM      2  C   UNL     1      28.972  22.746  30.105  0.00  0.00    +0.000 A 
ATOM      3  N   UNL     1      29.736  22.899  29.027  0.00  0.00    +0.000 NA
ATOM      4  N   UNL     1      28.978  23.101  27.942  0.00  0.00    +0.000 N 
ATOM      5  C   UNL     1      27.690  23.083  28.303  0.00  0.00    +0.000 A 
ATOM      6  C   UNL     1      27.683  22.855  29.691  0.00  0.00    +0.000 A 
ENDROOT
BRANCH   4   7
ATOM      7  C   UNL     1      29.537  23.281  26.624  0.00  0.00    +0.000 A 
ATOM      8  C   UNL     1      29.900  22.235  25.814  0.00  0.00    +0.000 A 
ATOM      9  C   UNL     1      30.411  22.474  24.568  0.00  0.00    +0.000 A 
ATOM     10  C   UNL     1      30.574  23.758  24.099  0.00  0.00    +0.000 A 
ATOM     11  C   UNL     1      30.212  24.817  24.907  0.00  0.00    +0.000 A 
ATOM     12  C   UNL     1      29.691  24.572  26.174  0.00  0.00    +0.000 A 
ENDBRANCH   4   7
BRANCH   6  13
ATOM     13  N   UNL     1      26.507  22.772  30.447  0.00  0.00    +0.000 N 
ATOM     14  O   UNL     1      26.062  21.661  30.787  0.00  0.00    +0.000 OA
ATOM     15  O   UNL     1      25.816  23.890  30.834  0.00  0.00    +0.000 OA
ENDBRANCH   6  13
BRANCH   5  16
ATOM     16  N   UNL     1      26.526  23.268  27.507  0.00  0.00    +0.000 NA
BRANCH  16  17
ATOM     17  C   UNL     1      26.114  24.553  27.043  0.00  0.00    +0.000 C 
BRANCH  17  18
ATOM     18  C   UNL     1      25.889  24.612  25.557  0.00  0.00    +0.000 C 
ATOM     19 CL   UNL     1      26.366  23.021  24.884  0.00  0.00    +0.000 Cl
ENDBRANCH  17  18
ENDBRANCH  16  17
ENDBRANCH   5  16
TORSDOF 5
ENDMDL
MODEL 2
REMARK VINA RESULT:      -5.0     31.221     32.034
REMARK  Name = 
REMARK  5 active torsions:
REMARK  status: ('A' for Active; 'I' for Inactive)
REMARK    1  A    between atoms: N_4  and  C_5
REMARK    2  A    between atoms: C_11  and  N_12
REMARK    3  A    between atoms: N_12  and  C_13
REMARK    4  A    between atoms: C_13  and  C_14
REMARK    5  A    between atoms: C_16  and  N_17
REMARK                            x       y       z     vdW  Elec       q    Type
REMARK                         _______ _______ _______ _____ _____    ______ ____
ROOT
ATOM      1  C   UNL     1      18.816  -4.714  26.657  0.00  0.00    +0.000 C 
ATOM      2  C   UNL     1      19.564  -5.850  25.994  0.00  0.00    +0.000 A 
ATOM      3  N   UNL     1      20.721  -5.789  25.341  0.00  0.00    +0.000 NA
ATOM      4  N   UNL     1      21.069  -7.002  24.895  0.00  0.00    +0.000 N 
ATOM      5  C   UNL     1      20.130  -7.884  25.256  0.00  0.00    +0.000 A 
ATOM      6  C   UNL     1      19.163  -7.147  25.962  0.00  0.00    +0.000 A 
ENDROOT
BRANCH   4   7
ATOM      7  C   UNL     1      22.291  -7.243  24.165  0.00  0.00    +0.000 A 
ATOM      8  C   UNL     1      22.364  -8.082  23.082  0.00  0.00    +0.000 A 
ATOM      9  C   UNL     1      23.550  -8.255  22.424  0.00  0.00    +0.000 A 
ATOM     10  C   UNL     1      24.692  -7.599  22.827  0.00  0.00    +0.000 A 
ATOM     11  C   UNL     1      24.628  -6.753  23.916  0.00  0.00    +0.000 A 
ATOM     12  C   UNL     1      23.419  -6.577  24.584  0.00  0.00    +0.000 A 
ENDBRANCH   4   7
BRANCH   6  13
ATOM     13  N   UNL     1      18.008  -7.723  26.506  0.00  0.00    +0.000 N 
ATOM     14  O   UNL     1      16.936  -7.683  25.877  0.00  0.00    +0.000 OA
ATOM     15  O   UNL     1      18.015  -8.339  27.730  0.00  0.00    +0.000 OA
ENDBRANCH   6  13
BRANCH   5  16
ATOM     16  N   UNL     1      20.055  -9.281  24.997  0.00  0.00    +0.000 NA
BRANCH  16  17
ATOM     17  C   UNL     1      20.500 -10.258  25.937  0.00  0.00    +0.000 C 
BRANCH  17  18
ATOM     18  C   UNL     1      21.609  -9.772  26.828  0.00  0.00    +0.000 C 
ATOM     19 CL   UNL     1      23.155 -10.118  25.991  0.00  0.00    +0.000 Cl
ENDBRANCH  17  18
ENDBRANCH  16  17
ENDBRANCH   5  16
TORSDOF 5
ENDMDL
MODEL 3
REMARK VINA RESULT:      -4.9      2.061      3.624
REMARK  Name = 
REMARK  5 active torsions:
REMARK  status: ('A' for Active; 'I' for Inactive)
REMARK    1  A    between atoms: N_4  and  C_5
REMARK    2  A    between atoms: C_11  and  N_12
REMARK    3  A    between atoms: N_12  and  C_13
REMARK    4  A    between atoms: C_13  and  C_14
REMARK    5  A    between atoms: C_16  and  N_17
REMARK                            x       y       z     vdW  Elec       q    Type
REMARK                         _______ _______ _______ _____ _____    ______ ____
ROOT
ATOM      1  C   UNL     1      24.768  25.785  29.648  0.00  0.00    +0.000 C 
ATOM      2  C   UNL     1      25.527  24.964  28.629  0.00  0.00    +0.000 A 
ATOM      3  N   UNL     1      25.540  25.118  27.307  0.00  0.00    +0.000 NA
ATOM      4  N   UNL     1      26.332  24.200  26.739  0.00  0.00    +0.000 N 
ATOM      5  C   UNL     1      26.854  23.424  27.695  0.00  0.00    +0.000 A 
ATOM      6  C   UNL     1      26.339  23.911  28.910  0.00  0.00    +0.000 A 
ENDROOT
BRANCH   4   7
ATOM      7  C   UNL     1      26.553  24.137  25.314  0.00  0.00    +0.000 A 
ATOM      8  C   UNL     1      27.553  24.829  24.679  0.00  0.00    +0.000 A 
ATOM      9  C   UNL     1      27.718  24.714  23.326  0.00  0.00    +0.000 A 
ATOM     10  C   UNL     1      26.892  23.911  22.573  0.00  0.00    +0.000 A 
ATOM     11  C   UNL     1      25.882  23.211  23.203  0.00  0.00    +0.000 A 
ATOM     12  C   UNL     1      25.716  23.329  24.581  0.00  0.00    +0.000 A 
ENDBRANCH   4   7
BRANCH   6  13
ATOM     13  N   UNL     1      26.653  23.352  30.155  0.00  0.00    +0.000 N 
ATOM     14  O   UNL     1      25.937  22.455  30.634  0.00  0.00    +0.000 OA
ATOM     15  O   UNL     1      27.740  23.766  30.879  0.00  0.00    +0.000 OA
ENDBRANCH   6  13
BRANCH   5  16
ATOM     16  N   UNL     1      27.733  22.312  27.577  0.00  0.00    +0.000 NA
BRANCH  16  17
ATOM     17  C   UNL     1      29.122  22.398  27.894  0.00  0.00    +0.000 C 
BRANCH  17  18
ATOM     18  C   UNL     1      29.909  23.231  26.920  0.00  0.00    +0.000 C 
ATOM     19 CL   UNL     1      30.060  22.282  25.408  0.00  0.00    +0.000 Cl
ENDBRANCH  17  18
ENDBRANCH  16  17
ENDBRANCH   5  16
TORSDOF 5
ENDMDL
MODEL 4
REMARK VINA RESULT:      -4.8     16.653     18.796
REMARK  Name = 
REMARK  5 active torsions:
REMARK  status: ('A' for Active; 'I' for Inactive)
REMARK    1  A    between atoms: N_4  and  C_5
REMARK    2  A    between atoms: C_11  and  N_12
REMARK    3  A    between atoms: N_12  and  C_13
REMARK    4  A    between atoms: C_13  and  C_14
REMARK    5  A    between atoms: C_16  and  N_17
REMARK                            x       y       z     vdW  Elec       q    Type
REMARK                         _______ _______ _______ _____ _____    ______ ____
ROOT
ATOM      1  C   UNL     1      32.253  21.715   6.490  0.00  0.00    +0.000 C 
ATOM      2  C   UNL     1      31.979  21.559   7.970  0.00  0.00    +0.000 A 
ATOM      3  N   UNL     1      31.034  22.160   8.689  0.00  0.00    +0.000 NA
ATOM      4  N   UNL     1      31.101  21.768   9.967  0.00  0.00    +0.000 N 
ATOM      5  C   UNL     1      32.105  20.894  10.102  0.00  0.00    +0.000 A 
ATOM      6  C   UNL     1      32.670  20.758   8.821  0.00  0.00    +0.000 A 
ENDROOT
BRANCH   4   7
ATOM      7  C   UNL     1      30.186  22.245  10.977  0.00  0.00    +0.000 A 
ATOM      8  C   UNL     1      30.583  22.995  12.054  0.00  0.00    +0.000 A 
ATOM      9  C   UNL     1      29.663  23.428  12.968  0.00  0.00    +0.000 A 
ATOM     10  C   UNL     1      28.326  23.125  12.833  0.00  0.00    +0.000 A 
ATOM     11  C   UNL     1      27.918  22.369  11.752  0.00  0.00    +0.000 A 
ATOM     12  C   UNL     1      28.856  21.930  10.822  0.00  0.00    +0.000 A 
ENDBRANCH   4   7
BRANCH   6  13
ATOM     13  N   UNL     1      33.760  19.922   8.550  0.00  0.00    +0.000 N 
ATOM     14  O   UNL     1      34.909  20.396   8.490  0.00  0.00    +0.000 OA
ATOM     15  O   UNL     1      33.605  18.577   8.343  0.00  0.00    +0.000 OA
ENDBRANCH   6  13
BRANCH   5  16
ATOM     16  N   UNL     1      32.569  20.224  11.267  0.00  0.00    +0.000 NA
BRANCH  16  17
ATOM     17  C   UNL     1      33.612  20.750  12.088  0.00  0.00    +0.000 C 
BRANCH  17  18
ATOM     18  C   UNL     1      34.858  19.908  12.089  0.00  0.00    +0.000 C 
ATOM     19 CL   UNL     1      36.213  20.963  11.580  0.00  0.00    +0.000 Cl
ENDBRANCH  17  18
ENDBRANCH  16  17
ENDBRANCH   5  16
TORSDOF 5
ENDMDL
MODEL 5
REMARK VINA RESULT:      -4.7     31.741     32.660
REMARK  Name = 
REMARK  5 active torsions:
REMARK  status: ('A' for Active; 'I' for Inactive)
REMARK    1  A    between atoms: N_4  and  C_5
REMARK    2  A    between atoms: C_11  and  N_12
REMARK    3  A    between atoms: N_12  and  C_13
REMARK    4  A    between atoms: C_13  and  C_14
REMARK    5  A    between atoms: C_16  and  N_17
REMARK                            x       y       z     vdW  Elec       q    Type
REMARK                         _______ _______ _______ _____ _____    ______ ____
ROOT
ATOM      1  C   UNL     1      24.666  -6.581  24.108  0.00  0.00    +0.000 C 
ATOM      2  C   UNL     1      23.250  -7.072  24.312  0.00  0.00    +0.000 A 
ATOM      3  N   UNL     1      22.345  -6.611  25.171  0.00  0.00    +0.000 NA
ATOM      4  N   UNL     1      21.202  -7.298  25.057  0.00  0.00    +0.000 N 
ATOM      5  C   UNL     1      21.348  -8.231  24.110  0.00  0.00    +0.000 A 
ATOM      6  C   UNL     1      22.662  -8.088  23.629  0.00  0.00    +0.000 A 
ENDROOT
BRANCH   4   7
ATOM      7  C   UNL     1      20.035  -7.006  25.855  0.00  0.00    +0.000 A 
ATOM      8  C   UNL     1      19.340  -7.965  26.546  0.00  0.00    +0.000 A 
ATOM      9  C   UNL     1      18.250  -7.619  27.296  0.00  0.00    +0.000 A 
ATOM     10  C   UNL     1      17.825  -6.311  27.375  0.00  0.00    +0.000 A 
ATOM     11  C   UNL     1      18.518  -5.339  26.682  0.00  0.00    +0.000 A 
ATOM     12  C   UNL     1      19.628  -5.693  25.920  0.00  0.00    +0.000 A 
ENDBRANCH   4   7
BRANCH   6  13
ATOM     13  N   UNL     1      23.200  -8.896  22.619  0.00  0.00    +0.000 N 
ATOM     14  O   UNL     1      23.976  -9.823  22.911  0.00  0.00    +0.000 OA
ATOM     15  O   UNL     1      22.899  -8.697  21.297  0.00  0.00    +0.000 OA
ENDBRANCH   6  13
BRANCH   5  16
ATOM     16  N   UNL     1      20.419  -9.206  23.650  0.00  0.00    +0.000 NA
BRANCH  16  17
ATOM     17  C   UNL     1      20.251 -10.466  24.298  0.00  0.00    +0.000 C 
BRANCH  17  18
ATOM     18  C   UNL     1      21.413 -10.852  25.171  0.00  0.00    +0.000 C 
ATOM     19 CL   UNL     1      20.750 -11.290  26.777  0.00  0.00    +0.000 Cl
ENDBRANCH  17  18
ENDBRANCH  16  17
ENDBRANCH   5  16
TORSDOF 5
ENDMDL
MODEL 6
REMARK VINA RESULT:      -4.6     33.347     34.071
REMARK  Name = 
REMARK  5 active torsions:
REMARK  status: ('A' for Active; 'I' for Inactive)
REMARK    1  A    between atoms: N_4  and  C_5
REMARK    2  A    between atoms: C_11  and  N_12
REMARK    3  A    between atoms: N_12  and  C_13
REMARK    4  A    between atoms: C_13  and  C_14
REMARK    5  A    between atoms: C_16  and  N_17
REMARK                            x       y       z     vdW  Elec       q    Type
REMARK                         _______ _______ _______ _____ _____    ______ ____
ROOT
ATOM      1  C   UNL     1      17.477 -10.825  30.539  0.00  0.00    +0.000 C 
ATOM      2  C   UNL     1      17.456 -10.044  29.244  0.00  0.00    +0.000 A 
ATOM      3  N   UNL     1      18.201  -8.991  28.917  0.00  0.00    +0.000 NA
ATOM      4  N   UNL     1      17.900  -8.572  27.682  0.00  0.00    +0.000 N 
ATOM      5  C   UNL     1      16.941  -9.357  27.178  0.00  0.00    +0.000 A 
ATOM      6  C   UNL     1      16.654 -10.303  28.179  0.00  0.00    +0.000 A 
ENDROOT
BRANCH   4   7
ATOM      7  C   UNL     1      18.564  -7.455  27.055  0.00  0.00    +0.000 A 
ATOM      8  C   UNL     1      19.684  -7.591  26.274  0.00  0.00    +0.000 A 
ATOM      9  C   UNL     1      20.257  -6.492  25.696  0.00  0.00    +0.000 A 
ATOM     10  C   UNL     1      19.732  -5.233  25.881  0.00  0.00    +0.000 A 
ATOM     11  C   UNL     1      18.606  -5.086  26.666  0.00  0.00    +0.000 A 
ATOM     12  C   UNL     1      18.023  -6.206  27.253  0.00  0.00    +0.000 A 
ENDBRANCH   4   7
BRANCH   6  13
ATOM     13  N   UNL     1      15.690 -11.308  28.030  0.00  0.00    +0.000 N 
ATOM     14  O   UNL     1      16.008 -12.411  27.552  0.00  0.00    +0.000 OA
ATOM     15  O   UNL     1      14.384 -11.116  28.397  0.00  0.00    +0.000 OA
ENDBRANCH   6  13
BRANCH   5  16
ATOM     16  N   UNL     1      16.290  -9.293  25.915  0.00  0.00    +0.000 NA
BRANCH  16  17
ATOM     17  C   UNL     1      15.162  -8.451  25.679  0.00  0.00    +0.000 C 
BRANCH  17  18
ATOM     18  C   UNL     1      14.207  -9.000  24.655  0.00  0.00    +0.000 C 
ATOM     19 CL   UNL     1      14.583 -10.740  24.456  0.00  0.00    +0.000 Cl
ENDBRANCH  17  18
ENDBRANCH  16  17
ENDBRANCH   5  16
TORSDOF 5
ENDMDL
MODEL 7
REMARK VINA RESULT:      -4.6     18.393     20.681
REMARK  Name = 
REMARK  5 active torsions:
REMARK  status: ('A' for Active; 'I' for Inactive)
REMARK    1  A    between atoms: N_4  and  C_5
REMARK    2  A    between atoms: C_11  and  N_12
REMARK    3  A    between atoms: N_12  and  C_13
REMARK    4  A    between atoms: C_13  and  C_14
REMARK    5  A    between atoms: C_16  and  N_17
REMARK                            x       y       z     vdW  Elec       q    Type
REMARK                         _______ _______ _______ _____ _____    ______ ____
ROOT
ATOM      1  C   UNL     1      22.944   8.869  39.772  0.00  0.00    +0.000 C 
ATOM      2  C   UNL     1      21.458   9.039  39.545  0.00  0.00    +0.000 A 
ATOM      3  N   UNL     1      20.462   8.545  40.276  0.00  0.00    +0.000 NA
ATOM      4  N   UNL     1      19.281   8.912  39.763  0.00  0.00    +0.000 N 
ATOM      5  C   UNL     1      19.493   9.661  38.676  0.00  0.00    +0.000 A 
ATOM      6  C   UNL     1      20.890   9.744  38.533  0.00  0.00    +0.000 A 
ENDROOT
BRANCH   4   7
ATOM      7  C   UNL     1      18.022   8.535  40.361  0.00  0.00    +0.000 A 
ATOM      8  C   UNL     1      17.699   7.239  40.672  0.00  0.00    +0.000 A 
ATOM      9  C   UNL     1      16.494   6.950  41.251  0.00  0.00    +0.000 A 
ATOM     10  C   UNL     1      15.582   7.942  41.532  0.00  0.00    +0.000 A 
ATOM     11  C   UNL     1      15.899   9.249  41.222  0.00  0.00    +0.000 A 
ATOM     12  C   UNL     1      17.126   9.542  40.634  0.00  0.00    +0.000 A 
ENDBRANCH   4   7
BRANCH   6  13
ATOM     13  N   UNL     1      21.513  10.450  37.496  0.00  0.00    +0.000 N 
ATOM     14  O   UNL     1      21.832  11.641  37.656  0.00  0.00    +0.000 OA
ATOM     15  O   UNL     1      21.789   9.865  36.288  0.00  0.00    +0.000 OA
ENDBRANCH   6  13
BRANCH   5  16
ATOM     16  N   UNL     1      18.552  10.260  37.793  0.00  0.00    +0.000 NA
BRANCH  16  17
ATOM     17  C   UNL     1      18.083   9.604  36.616  0.00  0.00    +0.000 C 
BRANCH  17  18
ATOM     18  C   UNL     1      17.238  10.481  35.735  0.00  0.00    +0.000 C 
ATOM     19 CL   UNL     1      17.585  10.023  34.038  0.00  0.00    +0.000 Cl
ENDBRANCH  17  18
ENDBRANCH  16  17
ENDBRANCH   5  16
TORSDOF 5
ENDMDL
MODEL 8
REMARK VINA RESULT:      -4.5      2.791      3.855
REMARK  Name = 
REMARK  5 active torsions:
REMARK  status: ('A' for Active; 'I' for Inactive)
REMARK    1  A    between atoms: N_4  and  C_5
REMARK    2  A    between atoms: C_11  and  N_12
REMARK    3  A    between atoms: N_12  and  C_13
REMARK    4  A    between atoms: C_13  and  C_14
REMARK    5  A    between atoms: C_16  and  N_17
REMARK                            x       y       z     vdW  Elec       q    Type
REMARK                         _______ _______ _______ _____ _____    ______ ____
ROOT
ATOM      1  C   UNL     1      26.565  21.664  30.417  0.00  0.00    +0.000 C 
ATOM      2  C   UNL     1      27.626  22.280  29.533  0.00  0.00    +0.000 A 
ATOM      3  N   UNL     1      27.677  22.282  28.203  0.00  0.00    +0.000 NA
ATOM      4  N   UNL     1      28.770  22.930  27.780  0.00  0.00    +0.000 N 
ATOM      5  C   UNL     1      29.457  23.365  28.842  0.00  0.00    +0.000 A 
ATOM      6  C   UNL     1      28.725  22.950  29.969  0.00  0.00    +0.000 A 
ENDROOT
BRANCH   4   7
ATOM      7  C   UNL     1      29.077  23.105  26.380  0.00  0.00    +0.000 A 
ATOM      8  C   UNL     1      28.418  23.999  25.575  0.00  0.00    +0.000 A 
ATOM      9  C   UNL     1      28.768  24.127  24.259  0.00  0.00    +0.000 A 
ATOM     10  C   UNL     1      29.780  23.370  23.713  0.00  0.00    +0.000 A 
ATOM     11  C   UNL     1      30.449  22.468  24.516  0.00  0.00    +0.000 A 
ATOM     12  C   UNL     1      30.092  22.339  25.856  0.00  0.00    +0.000 A 
ENDBRANCH   4   7
BRANCH   6  13
ATOM     13  N   UNL     1      29.127  23.216  31.284  0.00  0.00    +0.000 N 
ATOM     14  O   UNL     1      28.816  24.291  31.825  0.00  0.00    +0.000 OA
ATOM     15  O   UNL     1      29.865  22.317  32.009  0.00  0.00    +0.000 OA
ENDBRANCH   6  13
BRANCH   5  16
ATOM     16  N   UNL     1      30.684  24.083  28.892  0.00  0.00    +0.000 NA
BRANCH  16  17
ATOM     17  C   UNL     1      31.890  23.501  29.384  0.00  0.00    +0.000 C 
BRANCH  17  18
ATOM     18  C   UNL     1      32.134  22.106  28.878  0.00  0.00    +0.000 C 
ATOM     19 CL   UNL     1      33.307  21.334  29.991  0.00  0.00    +0.000 Cl
ENDBRANCH  17  18
ENDBRANCH  16  17
ENDBRANCH   5  16
TORSDOF 5
ENDMDL
MODEL 9
REMARK VINA RESULT:      -4.4      2.470      3.788
REMARK  Name = 
REMARK  5 active torsions:
REMARK  status: ('A' for Active; 'I' for Inactive)
REMARK    1  A    between atoms: N_4  and  C_5
REMARK    2  A    between atoms: C_11  and  N_12
REMARK    3  A    between atoms: N_12  and  C_13
REMARK    4  A    between atoms: C_13  and  C_14
REMARK    5  A    between atoms: C_16  and  N_17
REMARK                            x       y       z     vdW  Elec       q    Type
REMARK                         _______ _______ _______ _____ _____    ______ ____
ROOT
ATOM      1  C   UNL     1      25.607  24.800  30.106  0.00  0.00    +0.000 C 
ATOM      2  C   UNL     1      26.256  24.191  28.883  0.00  0.00    +0.000 A 
ATOM      3  N   UNL     1      25.938  24.394  27.607  0.00  0.00    +0.000 NA
ATOM      4  N   UNL     1      26.741  23.681  26.807  0.00  0.00    +0.000 N 
ATOM      5  C   UNL     1      27.606  22.993  27.561  0.00  0.00    +0.000 A 
ATOM      6  C   UNL     1      27.298  23.318  28.894  0.00  0.00    +0.000 A 
ENDROOT
BRANCH   4   7
ATOM      7  C   UNL     1      26.639  23.719  25.368  0.00  0.00    +0.000 A 
ATOM      8  C   UNL     1      25.674  23.040  24.667  0.00  0.00    +0.000 A 
ATOM      9  C   UNL     1      25.623  23.129  23.304  0.00  0.00    +0.000 A 
ATOM     10  C   UNL     1      26.529  23.894  22.604  0.00  0.00    +0.000 A 
ATOM     11  C   UNL     1      27.504  24.580  23.301  0.00  0.00    +0.000 A 
ATOM     12  C   UNL     1      27.554  24.489  24.689  0.00  0.00    +0.000 A 
ENDBRANCH   4   7
BRANCH   6  13
ATOM     13  N   UNL     1      27.988  22.790  29.991  0.00  0.00    +0.000 N 
ATOM     14  O   UNL     1      27.568  21.766  30.558  0.00  0.00    +0.000 OA
ATOM     15  O   UNL     1      29.132  23.371  30.473  0.00  0.00    +0.000 OA
ENDBRANCH   6  13
BRANCH   5  16
ATOM     16  N   UNL     1      28.632  22.091  27.164  0.00  0.00    +0.000 NA
BRANCH  16  17
ATOM     17  C   UNL     1      29.955  22.527  26.856  0.00  0.00    +0.000 C 
BRANCH  17  18
ATOM     18  C   UNL     1      30.984  22.078  27.857  0.00  0.00    +0.000 C 
ATOM     19 CL   UNL     1      32.274  23.321  27.887  0.00  0.00    +0.000 Cl
ENDBRANCH  17  18
ENDBRANCH  16  17
ENDBRANCH   5  16
TORSDOF 5
ENDMDL
MODEL 10
REMARK VINA RESULT:      -4.4     33.383     34.232
REMARK  Name = 
REMARK  5 active torsions:
REMARK  status: ('A' for Active; 'I' for Inactive)
REMARK    1  A    between atoms: N_4  and  C_5
REMARK    2  A    between atoms: C_11  and  N_12
REMARK    3  A    between atoms: N_12  and  C_13
REMARK    4  A    between atoms: C_13  and  C_14
REMARK    5  A    between atoms: C_16  and  N_17
REMARK                            x       y       z     vdW  Elec       q    Type
REMARK                         _______ _______ _______ _____ _____    ______ ____
ROOT
ATOM      1  C   UNL     1      14.775 -10.838  25.435  0.00  0.00    +0.000 C 
ATOM      2  C   UNL     1      15.849 -10.057  26.160  0.00  0.00    +0.000 A 
ATOM      3  N   UNL     1      16.527  -9.002  25.716  0.00  0.00    +0.000 NA
ATOM      4  N   UNL     1      17.394  -8.581  26.645  0.00  0.00    +0.000 N 
ATOM      5  C   UNL     1      17.293  -9.367  27.722  0.00  0.00    +0.000 A 
ATOM      6  C   UNL     1      16.302 -10.316  27.414  0.00  0.00    +0.000 A 
ENDROOT
BRANCH   4   7
ATOM      7  C   UNL     1      18.255  -7.439  26.446  0.00  0.00    +0.000 A 
ATOM      8  C   UNL     1      19.458  -7.513  25.791  0.00  0.00    +0.000 A 
ATOM      9  C   UNL     1      20.219  -6.389  25.623  0.00  0.00    +0.000 A 
ATOM     10  C   UNL     1      19.804  -5.168  26.102  0.00  0.00    +0.000 A 
ATOM     11  C   UNL     1      18.595  -5.084  26.763  0.00  0.00    +0.000 A 
ATOM     12  C   UNL     1      17.820  -6.229  26.932  0.00  0.00    +0.000 A 
ENDBRANCH   4   7
BRANCH   6  13
ATOM     13  N   UNL     1      15.906 -11.326  28.300  0.00  0.00    +0.000 N 
ATOM     14  O   UNL     1      14.830 -11.229  28.915  0.00  0.00    +0.000 OA
ATOM     15  O   UNL     1      16.676 -12.438  28.518  0.00  0.00    +0.000 OA
ENDBRANCH   6  13
BRANCH   5  16
ATOM     16  N   UNL     1      18.018  -9.322  28.945  0.00  0.00    +0.000 NA
BRANCH  16  17
ATOM     17  C   UNL     1      19.385  -9.722  29.039  0.00  0.00    +0.000 C 
BRANCH  17  18
ATOM     18  C   UNL     1      19.612 -10.867  29.987  0.00  0.00    +0.000 C 
ATOM     19 CL   UNL     1      18.481 -10.652  31.360  0.00  0.00    +0.000 Cl
ENDBRANCH  17  18
ENDBRANCH  16  17
ENDBRANCH   5  16
TORSDOF 5
ENDMDL
