MODEL 1
REMARK VINA RESULT:      -7.1      0.000      0.000
REMARK  Name = 
REMARK  2 active torsions:
REMARK  status: ('A' for Active; 'I' for Inactive)
REMARK    1  A    between atoms: C_12  and  C_13
REMARK    2  A    between atoms: C_16  and  N_17
REMARK                            x       y       z     vdW  Elec       q    Type
REMARK                         _______ _______ _______ _____ _____    ______ ____
ROOT
ATOM      1  C   UNL     1      31.093  20.392  12.184  0.00  0.00    +0.000 C 
ATOM      2  C   UNL     1      30.723  21.538  12.561  0.00  0.00    +0.000 C 
ATOM      3  N   UNL     1      30.488  22.066  13.859  0.00  0.00    +0.000 NA
ATOM      4  N   UNL     1      29.446  22.959  14.161  0.00  0.00    +0.000 NA
ATOM      5  C   UNL     1      28.694  23.281  13.158  0.00  0.00    +0.000 C 
ATOM      6  C   UNL     1      27.595  24.225  13.491  0.00  0.00    +0.000 C 
ATOM      7  C   UNL     1      26.386  23.998  12.602  0.00  0.00    +0.000 C 
ATOM      8  C   UNL     1      26.214  22.507  12.466  0.00  0.00    +0.000 C 
ATOM      9  C   UNL     1      26.674  21.969  11.132  0.00  0.00    +0.000 C 
ATOM     10  C   UNL     1      28.074  22.335  10.816  0.00  0.00    +0.000 C 
ATOM     11  N   UNL     1      28.888  22.782  11.842  0.00  0.00    +0.000 N 
ATOM     12  C   UNL     1      30.421  22.735  11.511  0.00  0.00    +0.000 C 
ENDROOT
BRANCH  12  13
ATOM     13  C   UNL     1      30.455  21.973  10.145  0.00  0.00    +0.000 A 
ATOM     14  C   UNL     1      29.916  20.737   9.992  0.00  0.00    +0.000 A 
ATOM     15  C   UNL     1      29.982  20.070   8.766  0.00  0.00    +0.000 A 
ATOM     16  C   UNL     1      30.592  20.654   7.698  0.00  0.00    +0.000 A 
ATOM     17  C   UNL     1      31.145  21.910   7.836  0.00  0.00    +0.000 A 
ATOM     18  C   UNL     1      31.069  22.567   9.084  0.00  0.00    +0.000 A 
BRANCH  16  19
ATOM     19  N   UNL     1      30.679  19.994   6.417  0.00  0.00    +0.000 N 
ATOM     20  O   UNL     1      31.658  19.310   6.133  0.00  0.00    +0.000 OA
ATOM     21  O   UNL     1      29.648  20.148   5.532  0.00  0.00    +0.000 OA
ENDBRANCH  16  19
ENDBRANCH  12  13
TORSDOF 2
ENDMDL
MODEL 2
REMARK VINA RESULT:      -6.5     12.592     14.871
REMARK  Name = 
REMARK  2 active torsions:
REMARK  status: ('A' for Active; 'I' for Inactive)
REMARK    1  A    between atoms: C_12  and  C_13
REMARK    2  A    between atoms: C_16  and  N_17
REMARK                            x       y       z     vdW  Elec       q    Type
REMARK                         _______ _______ _______ _____ _____    ______ ____
ROOT
ATOM      1  C   UNL     1      29.422  24.772  21.777  0.00  0.00    +0.000 C 
ATOM      2  C   UNL     1      28.671  23.912  22.313  0.00  0.00    +0.000 C 
ATOM      3  N   UNL     1      27.399  23.409  21.927  0.00  0.00    +0.000 NA
ATOM      4  N   UNL     1      26.371  23.103  22.835  0.00  0.00    +0.000 NA
ATOM      5  C   UNL     1      26.662  23.312  24.079  0.00  0.00    +0.000 C 
ATOM      6  C   UNL     1      25.567  22.986  25.030  0.00  0.00    +0.000 C 
ATOM      7  C   UNL     1      25.620  23.878  26.257  0.00  0.00    +0.000 C 
ATOM      8  C   UNL     1      25.941  25.269  25.776  0.00  0.00    +0.000 C 
ATOM      9  C   UNL     1      27.373  25.676  26.032  0.00  0.00    +0.000 C 
ATOM     10  C   UNL     1      28.353  24.720  25.467  0.00  0.00    +0.000 C 
ATOM     11  N   UNL     1      27.918  23.812  24.517  0.00  0.00    +0.000 N 
ATOM     12  C   UNL     1      29.073  23.151  23.687  0.00  0.00    +0.000 C 
ENDROOT
BRANCH  12  13
ATOM     13  C   UNL     1      30.332  23.963  24.140  0.00  0.00    +0.000 A 
ATOM     14  C   UNL     1      30.337  25.318  24.194  0.00  0.00    +0.000 A 
ATOM     15  C   UNL     1      31.483  26.018  24.581  0.00  0.00    +0.000 A 
ATOM     16  C   UNL     1      32.620  25.346  24.911  0.00  0.00    +0.000 A 
ATOM     17  C   UNL     1      32.632  23.968  24.861  0.00  0.00    +0.000 A 
ATOM     18  C   UNL     1      31.463  23.279  24.467  0.00  0.00    +0.000 A 
BRANCH  16  19
ATOM     19  N   UNL     1      33.823  26.037  25.315  0.00  0.00    +0.000 N 
ATOM     20  O   UNL     1      33.834  26.728  26.329  0.00  0.00    +0.000 OA
ATOM     21  O   UNL     1      34.942  25.901  24.543  0.00  0.00    +0.000 OA
ENDBRANCH  16  19
ENDBRANCH  12  13
TORSDOF 2
ENDMDL
MODEL 3
REMARK VINA RESULT:      -6.3     14.357     17.211
REMARK  Name = 
REMARK  2 active torsions:
REMARK  status: ('A' for Active; 'I' for Inactive)
REMARK    1  A    between atoms: C_12  and  C_13
REMARK    2  A    between atoms: C_16  and  N_17
REMARK                            x       y       z     vdW  Elec       q    Type
REMARK                         _______ _______ _______ _____ _____    ______ ____
ROOT
ATOM      1  C   UNL     1      25.300  22.955  24.887  0.00  0.00    +0.000 C 
ATOM      2  C   UNL     1      26.165  23.565  24.201  0.00  0.00    +0.000 C 
ATOM      3  N   UNL     1      26.640  23.341  22.881  0.00  0.00    +0.000 NA
ATOM      4  N   UNL     1      27.983  23.502  22.497  0.00  0.00    +0.000 NA
ATOM      5  C   UNL     1      28.781  23.878  23.444  0.00  0.00    +0.000 C 
ATOM      6  C   UNL     1      30.198  24.043  23.025  0.00  0.00    +0.000 C 
ATOM      7  C   UNL     1      31.148  23.739  24.169  0.00  0.00    +0.000 C 
ATOM      8  C   UNL     1      30.608  22.525  24.879  0.00  0.00    +0.000 C 
ATOM      9  C   UNL     1      29.928  22.848  26.188  0.00  0.00    +0.000 C 
ATOM     10  C   UNL     1      28.851  23.856  26.044  0.00  0.00    +0.000 C 
ATOM     11  N   UNL     1      28.355  24.115  24.779  0.00  0.00    +0.000 N 
ATOM     12  C   UNL     1      26.969  24.851  24.773  0.00  0.00    +0.000 C 
ENDROOT
BRANCH  12  13
ATOM     13  C   UNL     1      26.562  24.832  26.283  0.00  0.00    +0.000 A 
ATOM     14  C   UNL     1      26.447  23.677  26.986  0.00  0.00    +0.000 A 
ATOM     15  C   UNL     1      26.059  23.688  28.329  0.00  0.00    +0.000 A 
ATOM     16  C   UNL     1      25.789  24.866  28.956  0.00  0.00    +0.000 A 
ATOM     17  C   UNL     1      25.901  26.049  28.256  0.00  0.00    +0.000 A 
ATOM     18  C   UNL     1      26.294  26.016  26.900  0.00  0.00    +0.000 A 
BRANCH  16  19
ATOM     19  N   UNL     1      25.385  24.915  30.342  0.00  0.00    +0.000 N 
ATOM     20  O   UNL     1      24.488  25.671  30.703  0.00  0.00    +0.000 OA
ATOM     21  O   UNL     1      26.024  24.103  31.237  0.00  0.00    +0.000 OA
ENDBRANCH  16  19
ENDBRANCH  12  13
TORSDOF 2
ENDMDL
MODEL 4
REMARK VINA RESULT:      -6.3     14.221     16.835
REMARK  Name = 
REMARK  2 active torsions:
REMARK  status: ('A' for Active; 'I' for Inactive)
REMARK    1  A    between atoms: C_12  and  C_13
REMARK    2  A    between atoms: C_16  and  N_17
REMARK                            x       y       z     vdW  Elec       q    Type
REMARK                         _______ _______ _______ _____ _____    ______ ____
ROOT
ATOM      1  C   UNL     1      30.476  24.787  26.846  0.00  0.00    +0.000 C 
ATOM      2  C   UNL     1      30.394  24.184  25.741  0.00  0.00    +0.000 C 
ATOM      3  N   UNL     1      31.098  24.367  24.520  0.00  0.00    +0.000 NA
ATOM      4  N   UNL     1      30.505  24.247  23.252  0.00  0.00    +0.000 NA
ATOM      5  C   UNL     1      29.246  23.951  23.263  0.00  0.00    +0.000 C 
ATOM      6  C   UNL     1      28.630  23.828  21.915  0.00  0.00    +0.000 C 
ATOM      7  C   UNL     1      27.166  24.226  21.941  0.00  0.00    +0.000 C 
ATOM      8  C   UNL     1      27.056  25.447  22.817  0.00  0.00    +0.000 C 
ATOM      9  C   UNL     1      26.487  25.155  24.185  0.00  0.00    +0.000 C 
ATOM     10  C   UNL     1      27.233  24.096  24.904  0.00  0.00    +0.000 C 
ATOM     11  N   UNL     1      28.498  23.757  24.455  0.00  0.00    +0.000 N 
ATOM     12  C   UNL     1      29.357  22.963  25.500  0.00  0.00    +0.000 C 
ENDROOT
BRANCH  12  13
ATOM     13  C   UNL     1      28.479  23.033  26.794  0.00  0.00    +0.000 A 
ATOM     14  C   UNL     1      27.969  24.202  27.258  0.00  0.00    +0.000 A 
ATOM     15  C   UNL     1      27.208  24.239  28.429  0.00  0.00    +0.000 A 
ATOM     16  C   UNL     1      26.964  23.096  29.127  0.00  0.00    +0.000 A 
ATOM     17  C   UNL     1      27.475  21.900  28.669  0.00  0.00    +0.000 A 
ATOM     18  C   UNL     1      28.243  21.884  27.483  0.00  0.00    +0.000 A 
BRANCH  16  19
ATOM     19  N   UNL     1      26.182  23.097  30.341  0.00  0.00    +0.000 N 
ATOM     20  O   UNL     1      25.836  24.155  30.858  0.00  0.00    +0.000 OA
ATOM     21  O   UNL     1      25.839  21.897  30.897  0.00  0.00    +0.000 OA
ENDBRANCH  16  19
ENDBRANCH  12  13
TORSDOF 2
ENDMDL
MODEL 5
REMARK VINA RESULT:      -6.1     14.175     16.362
REMARK  Name = 
REMARK  2 active torsions:
REMARK  status: ('A' for Active; 'I' for Inactive)
REMARK    1  A    between atoms: C_12  and  C_13
REMARK    2  A    between atoms: C_16  and  N_17
REMARK                            x       y       z     vdW  Elec       q    Type
REMARK                         _______ _______ _______ _____ _____    ______ ____
ROOT
ATOM      1  C   UNL     1      30.670  22.189  27.218  0.00  0.00    +0.000 C 
ATOM      2  C   UNL     1      30.428  23.087  28.070  0.00  0.00    +0.000 C 
ATOM      3  N   UNL     1      30.554  23.093  29.485  0.00  0.00    +0.000 NA
ATOM      4  N   UNL     1      29.641  23.724  30.347  0.00  0.00    +0.000 NA
ATOM      5  C   UNL     1      28.653  24.317  29.758  0.00  0.00    +0.000 C 
ATOM      6  C   UNL     1      27.693  24.979  30.680  0.00  0.00    +0.000 C 
ATOM      7  C   UNL     1      26.289  24.979  30.106  0.00  0.00    +0.000 C 
ATOM      8  C   UNL     1      26.069  23.627  29.480  0.00  0.00    +0.000 C 
ATOM      9  C   UNL     1      26.149  23.644  27.972  0.00  0.00    +0.000 C 
ATOM     10  C   UNL     1      27.419  24.220  27.470  0.00  0.00    +0.000 C 
ATOM     11  N   UNL     1      28.483  24.340  28.347  0.00  0.00    +0.000 N 
ATOM     12  C   UNL     1      29.870  24.549  27.646  0.00  0.00    +0.000 C 
ENDROOT
BRANCH  12  13
ATOM     13  C   UNL     1      29.530  24.331  26.135  0.00  0.00    +0.000 A 
ATOM     14  C   UNL     1      29.015  23.165  25.670  0.00  0.00    +0.000 A 
ATOM     15  C   UNL     1      28.742  22.990  24.311  0.00  0.00    +0.000 A 
ATOM     16  C   UNL     1      28.989  23.994  23.426  0.00  0.00    +0.000 A 
ATOM     17  C   UNL     1      29.512  25.187  23.881  0.00  0.00    +0.000 A 
ATOM     18  C   UNL     1      29.782  25.343  25.259  0.00  0.00    +0.000 A 
BRANCH  16  19
ATOM     19  N   UNL     1      28.720  23.849  22.014  0.00  0.00    +0.000 N 
ATOM     20  O   UNL     1      27.652  23.382  21.628  0.00  0.00    +0.000 OA
ATOM     21  O   UNL     1      29.679  24.242  21.123  0.00  0.00    +0.000 OA
ENDBRANCH  16  19
ENDBRANCH  12  13
TORSDOF 2
ENDMDL
MODEL 6
REMARK VINA RESULT:      -6.0      3.662      6.519
REMARK  Name = 
REMARK  2 active torsions:
REMARK  status: ('A' for Active; 'I' for Inactive)
REMARK    1  A    between atoms: C_12  and  C_13
REMARK    2  A    between atoms: C_16  and  N_17
REMARK                            x       y       z     vdW  Elec       q    Type
REMARK                         _______ _______ _______ _____ _____    ______ ____
ROOT
ATOM      1  C   UNL     1      33.915  23.038  10.236  0.00  0.00    +0.000 C 
ATOM      2  C   UNL     1      34.178  21.856   9.883  0.00  0.00    +0.000 C 
ATOM      3  N   UNL     1      35.219  21.331   9.071  0.00  0.00    +0.000 NA
ATOM      4  N   UNL     1      35.042  20.276   8.160  0.00  0.00    +0.000 NA
ATOM      5  C   UNL     1      33.841  19.796   8.106  0.00  0.00    +0.000 C 
ATOM      6  C   UNL     1      33.666  18.681   7.138  0.00  0.00    +0.000 C 
ATOM      7  C   UNL     1      32.260  18.665   6.567  0.00  0.00    +0.000 C 
ATOM      8  C   UNL     1      31.880  20.096   6.291  0.00  0.00    +0.000 C 
ATOM      9  C   UNL     1      30.923  20.670   7.309  0.00  0.00    +0.000 C 
ATOM     10  C   UNL     1      31.423  20.551   8.699  0.00  0.00    +0.000 C 
ATOM     11  N   UNL     1      32.766  20.285   8.898  0.00  0.00    +0.000 N 
ATOM     12  C   UNL     1      33.272  20.595  10.350  0.00  0.00    +0.000 C 
ENDROOT
BRANCH  12  13
ATOM     13  C   UNL     1      32.042  21.313  10.998  0.00  0.00    +0.000 A 
ATOM     14  C   UNL     1      31.352  22.287  10.355  0.00  0.00    +0.000 A 
ATOM     15  C   UNL     1      30.271  22.928  10.967  0.00  0.00    +0.000 A 
ATOM     16  C   UNL     1      29.891  22.580  12.227  0.00  0.00    +0.000 A 
ATOM     17  C   UNL     1      30.582  21.591  12.896  0.00  0.00    +0.000 A 
ATOM     18  C   UNL     1      31.672  20.957  12.259  0.00  0.00    +0.000 A 
BRANCH  16  19
ATOM     19  N   UNL     1      28.780  23.220  12.891  0.00  0.00    +0.000 N 
ATOM     20  O   UNL     1      28.666  23.163  14.111  0.00  0.00    +0.000 OA
ATOM     21  O   UNL     1      27.862  23.888  12.129  0.00  0.00    +0.000 OA
ENDBRANCH  16  19
ENDBRANCH  12  13
TORSDOF 2
ENDMDL
MODEL 7
REMARK VINA RESULT:      -5.9      3.569      6.178
REMARK  Name = 
REMARK  2 active torsions:
REMARK  status: ('A' for Active; 'I' for Inactive)
REMARK    1  A    between atoms: C_12  and  C_13
REMARK    2  A    between atoms: C_16  and  N_17
REMARK                            x       y       z     vdW  Elec       q    Type
REMARK                         _______ _______ _______ _____ _____    ______ ____
ROOT
ATOM      1  C   UNL     1      32.975  21.112  12.245  0.00  0.00    +0.000 C 
ATOM      2  C   UNL     1      32.818  20.385  11.225  0.00  0.00    +0.000 C 
ATOM      3  N   UNL     1      33.751  19.645  10.451  0.00  0.00    +0.000 NA
ATOM      4  N   UNL     1      33.684  19.526   9.052  0.00  0.00    +0.000 NA
ATOM      5  C   UNL     1      32.693  20.147   8.497  0.00  0.00    +0.000 C 
ATOM      6  C   UNL     1      32.635  20.016   7.018  0.00  0.00    +0.000 C 
ATOM      7  C   UNL     1      32.023  21.248   6.379  0.00  0.00    +0.000 C 
ATOM      8  C   UNL     1      32.584  22.444   7.104  0.00  0.00    +0.000 C 
ATOM      9  C   UNL     1      31.609  23.072   8.071  0.00  0.00    +0.000 C 
ATOM     10  C   UNL     1      31.074  22.104   9.057  0.00  0.00    +0.000 C 
ATOM     11  N   UNL     1      31.734  20.900   9.227  0.00  0.00    +0.000 N 
ATOM     12  C   UNL     1      31.363  20.148  10.553  0.00  0.00    +0.000 C 
ENDROOT
BRANCH  12  13
ATOM     13  C   UNL     1      30.487  21.199  11.313  0.00  0.00    +0.000 A 
ATOM     14  C   UNL     1      30.929  21.838  12.425  0.00  0.00    +0.000 A 
ATOM     15  C   UNL     1      30.116  22.755  13.097  0.00  0.00    +0.000 A 
ATOM     16  C   UNL     1      28.862  23.024  12.643  0.00  0.00    +0.000 A 
ATOM     17  C   UNL     1      28.397  22.382  11.514  0.00  0.00    +0.000 A 
ATOM     18  C   UNL     1      29.234  21.458  10.849  0.00  0.00    +0.000 A 
BRANCH  16  19
ATOM     19  N   UNL     1      27.995  23.965  13.312  0.00  0.00    +0.000 N 
ATOM     20  O   UNL     1      28.453  24.770  14.118  0.00  0.00    +0.000 OA
ATOM     21  O   UNL     1      26.658  23.937  13.028  0.00  0.00    +0.000 OA
ENDBRANCH  16  19
ENDBRANCH  12  13
TORSDOF 2
ENDMDL
MODEL 8
REMARK VINA RESULT:      -5.9     12.963     15.518
REMARK  Name = 
REMARK  2 active torsions:
REMARK  status: ('A' for Active; 'I' for Inactive)
REMARK    1  A    between atoms: C_12  and  C_13
REMARK    2  A    between atoms: C_16  and  N_17
REMARK                            x       y       z     vdW  Elec       q    Type
REMARK                         _______ _______ _______ _____ _____    ______ ____
ROOT
ATOM      1  C   UNL     1      25.503  26.021  25.541  0.00  0.00    +0.000 C 
ATOM      2  C   UNL     1      25.561  24.975  26.245  0.00  0.00    +0.000 C 
ATOM      3  N   UNL     1      25.020  24.677  27.524  0.00  0.00    +0.000 NA
ATOM      4  N   UNL     1      25.689  23.911  28.495  0.00  0.00    +0.000 NA
ATOM      5  C   UNL     1      26.858  23.481  28.142  0.00  0.00    +0.000 C 
ATOM      6  C   UNL     1      27.555  22.673  29.177  0.00  0.00    +0.000 C 
ATOM      7  C   UNL     1      29.060  22.832  29.077  0.00  0.00    +0.000 C 
ATOM      8  C   UNL     1      29.333  24.290  28.810  0.00  0.00    +0.000 C 
ATOM      9  C   UNL     1      29.707  24.578  27.376  0.00  0.00    +0.000 C 
ATOM     10  C   UNL     1      28.702  24.079  26.408  0.00  0.00    +0.000 C 
ATOM     11  N   UNL     1      27.441  23.751  26.874  0.00  0.00    +0.000 N 
ATOM     12  C   UNL     1      26.350  23.648  25.752  0.00  0.00    +0.000 C 
ENDROOT
BRANCH  12  13
ATOM     13  C   UNL     1      27.104  24.180  24.488  0.00  0.00    +0.000 A 
ATOM     14  C   UNL     1      27.736  25.380  24.475  0.00  0.00    +0.000 A 
ATOM     15  C   UNL     1      28.383  25.840  23.324  0.00  0.00    +0.000 A 
ATOM     16  C   UNL     1      28.388  25.085  22.191  0.00  0.00    +0.000 A 
ATOM     17  C   UNL     1      27.749  23.863  22.187  0.00  0.00    +0.000 A 
ATOM     18  C   UNL     1      27.102  23.416  23.361  0.00  0.00    +0.000 A 
BRANCH  16  19
ATOM     19  N   UNL     1      29.045  25.529  20.984  0.00  0.00    +0.000 N 
ATOM     20  O   UNL     1      29.775  24.769  20.357  0.00  0.00    +0.000 OA
ATOM     21  O   UNL     1      28.833  26.811  20.560  0.00  0.00    +0.000 OA
ENDBRANCH  16  19
ENDBRANCH  12  13
TORSDOF 2
ENDMDL
MODEL 9
REMARK VINA RESULT:      -5.8     11.783     14.268
REMARK  Name = 
REMARK  2 active torsions:
REMARK  status: ('A' for Active; 'I' for Inactive)
REMARK    1  A    between atoms: C_12  and  C_13
REMARK    2  A    between atoms: C_16  and  N_17
REMARK                            x       y       z     vdW  Elec       q    Type
REMARK                         _______ _______ _______ _____ _____    ______ ____
ROOT
ATOM      1  C   UNL     1      26.441  25.016  24.329  0.00  0.00    +0.000 C 
ATOM      2  C   UNL     1      26.969  23.932  24.702  0.00  0.00    +0.000 C 
ATOM      3  N   UNL     1      26.649  23.055  25.773  0.00  0.00    +0.000 NA
ATOM      4  N   UNL     1      27.612  22.386  26.548  0.00  0.00    +0.000 NA
ATOM      5  C   UNL     1      28.841  22.621  26.216  0.00  0.00    +0.000 C 
ATOM      6  C   UNL     1      29.849  21.909  27.044  0.00  0.00    +0.000 C 
ATOM      7  C   UNL     1      31.132  22.711  27.160  0.00  0.00    +0.000 C 
ATOM      8  C   UNL     1      30.735  24.150  27.358  0.00  0.00    +0.000 C 
ATOM      9  C   UNL     1      30.905  24.996  26.119  0.00  0.00    +0.000 C 
ATOM     10  C   UNL     1      30.191  24.445  24.944  0.00  0.00    +0.000 C 
ATOM     11  N   UNL     1      29.212  23.489  25.153  0.00  0.00    +0.000 N 
ATOM     12  C   UNL     1      28.243  23.286  23.937  0.00  0.00    +0.000 C 
ENDROOT
BRANCH  12  13
ATOM     13  C   UNL     1      28.654  24.447  22.971  0.00  0.00    +0.000 A 
ATOM     14  C   UNL     1      28.653  25.746  23.361  0.00  0.00    +0.000 A 
ATOM     15  C   UNL     1      29.003  26.765  22.471  0.00  0.00    +0.000 A 
ATOM     16  C   UNL     1      29.352  26.467  21.189  0.00  0.00    +0.000 A 
ATOM     17  C   UNL     1      29.359  25.151  20.776  0.00  0.00    +0.000 A 
ATOM     18  C   UNL     1      29.002  24.136  21.692  0.00  0.00    +0.000 A 
BRANCH  16  19
ATOM     19  N   UNL     1      29.719  27.493  20.242  0.00  0.00    +0.000 N 
ATOM     20  O   UNL     1      30.447  27.231  19.289  0.00  0.00    +0.000 OA
ATOM     21  O   UNL     1      29.237  28.758  20.432  0.00  0.00    +0.000 OA
ENDBRANCH  16  19
ENDBRANCH  12  13
TORSDOF 2
ENDMDL
MODEL 10
REMARK VINA RESULT:      -5.8     35.194     36.332
REMARK  Name = 
REMARK  2 active torsions:
REMARK  status: ('A' for Active; 'I' for Inactive)
REMARK    1  A    between atoms: C_12  and  C_13
REMARK    2  A    between atoms: C_16  and  N_17
REMARK                            x       y       z     vdW  Elec       q    Type
REMARK                         _______ _______ _______ _____ _____    ______ ____
ROOT
ATOM      1  C   UNL     1      19.763  -9.619  28.723  0.00  0.00    +0.000 C 
ATOM      2  C   UNL     1      18.509  -9.532  28.617  0.00  0.00    +0.000 C 
ATOM      3  N   UNL     1      17.464 -10.251  29.258  0.00  0.00    +0.000 NA
ATOM      4  N   UNL     1      16.277 -10.641  28.614  0.00  0.00    +0.000 NA
ATOM      5  C   UNL     1      16.191 -10.297  27.369  0.00  0.00    +0.000 C 
ATOM      6  C   UNL     1      14.932 -10.717  26.700  0.00  0.00    +0.000 C 
ATOM      7  C   UNL     1      15.157 -10.984  25.223  0.00  0.00    +0.000 C 
ATOM      8  C   UNL     1      16.468 -11.715  25.102  0.00  0.00    +0.000 C 
ATOM      9  C   UNL     1      17.598 -10.844  24.607  0.00  0.00    +0.000 C 
ATOM     10  C   UNL     1      17.787  -9.625  25.428  0.00  0.00    +0.000 C 
ATOM     11  N   UNL     1      17.207  -9.578  26.684  0.00  0.00    +0.000 N 
ATOM     12  C   UNL     1      17.800  -8.468  27.621  0.00  0.00    +0.000 C 
ENDROOT
BRANCH  12  13
ATOM     13  C   UNL     1      19.022  -7.940  26.800  0.00  0.00    +0.000 A 
ATOM     14  C   UNL     1      20.071  -8.735  26.473  0.00  0.00    +0.000 A 
ATOM     15  C   UNL     1      21.161  -8.230  25.759  0.00  0.00    +0.000 A 
ATOM     16  C   UNL     1      21.187  -6.924  25.377  0.00  0.00    +0.000 A 
ATOM     17  C   UNL     1      20.129  -6.101  25.701  0.00  0.00    +0.000 A 
ATOM     18  C   UNL     1      19.037  -6.631  26.425  0.00  0.00    +0.000 A 
BRANCH  16  19
ATOM     19  N   UNL     1      22.297  -6.368  24.639  0.00  0.00    +0.000 N 
ATOM     20  O   UNL     1      23.452  -6.571  25.002  0.00  0.00    +0.000 OA
ATOM     21  O   UNL     1      22.031  -5.614  23.530  0.00  0.00    +0.000 OA
ENDBRANCH  16  19
ENDBRANCH  12  13
TORSDOF 2
ENDMDL
