MODEL 1
REMARK VINA RESULT:      -7.2      0.000      0.000
REMARK  Name = 
REMARK  3 active torsions:
REMARK  status: ('A' for Active; 'I' for Inactive)
REMARK    1  A    between atoms: C_4  and  N_5
REMARK    2  A    between atoms: N_5  and  N_6
REMARK    3  A    between atoms: C_7  and  C_9
REMARK                            x       y       z     vdW  Elec       q    Type
REMARK                         _______ _______ _______ _____ _____    ______ ____
ROOT
ATOM      1  N   UNL     1      16.843  11.162  33.689  0.00  0.00    +0.000 NA
ATOM      2  C   UNL     1      15.558  11.118  33.099  0.00  0.00    +0.000 C 
ATOM      3  O   UNL     1      14.993   9.997  32.983  0.00  0.00    +0.000 OA
ENDROOT
BRANCH   2   4
ATOM      4  C   UNL     1      14.915  12.340  32.641  0.00  0.00    +0.000 A 
ATOM      5  C   UNL     1      14.952  12.664  31.277  0.00  0.00    +0.000 A 
ATOM      6  C   UNL     1      14.353  13.815  30.815  0.00  0.00    +0.000 A 
ATOM      7  C   UNL     1      13.706  14.663  31.701  0.00  0.00    +0.000 A 
ATOM      8  C   UNL     1      13.656  14.366  33.037  0.00  0.00    +0.000 A 
ATOM      9  C   UNL     1      14.261  13.209  33.483  0.00  0.00    +0.000 A 
ATOM     10 BR   UNL     1      14.225  12.744  35.348  0.00  0.00    +0.000 Br
ENDBRANCH   2   4
BRANCH   1  11
ATOM     11  N   UNL     1      17.504  10.025  34.149  0.00  0.00    +0.000 NA
BRANCH  11  15
ATOM     12  C   UNL     1      20.827   9.994  37.455  0.00  0.00    +0.000 C 
ATOM     13  C   UNL     1      19.207   9.589  37.526  0.00  0.00    +0.000 C 
ATOM     14  C   UNL     1      19.086   9.628  35.883  0.00  0.00    +0.000 C 
ATOM     15  C   UNL     1      17.845   9.932  35.518  0.00  0.00    +0.000 C 
ATOM     16  C   UNL     1      16.775  10.183  36.506  0.00  0.00    +0.000 C 
ATOM     17  C   UNL     1      17.249  11.068  37.629  0.00  0.00    +0.000 C 
ATOM     18  C   UNL     1      18.752  11.197  37.628  0.00  0.00    +0.000 C 
ENDBRANCH  11  15
ENDBRANCH   1  11
TORSDOF 3
ENDMDL
MODEL 2
REMARK VINA RESULT:      -6.9      1.951      2.479
REMARK  Name = 
REMARK  3 active torsions:
REMARK  status: ('A' for Active; 'I' for Inactive)
REMARK    1  A    between atoms: C_4  and  N_5
REMARK    2  A    between atoms: N_5  and  N_6
REMARK    3  A    between atoms: C_7  and  C_9
REMARK                            x       y       z     vdW  Elec       q    Type
REMARK                         _______ _______ _______ _____ _____    ______ ____
ROOT
ATOM      1  N   UNL     1      15.844  12.757  36.058  0.00  0.00    +0.000 NA
ATOM      2  C   UNL     1      14.620  12.497  35.397  0.00  0.00    +0.000 C 
ATOM      3  O   UNL     1      13.744  11.826  36.006  0.00  0.00    +0.000 OA
ENDROOT
BRANCH   2   4
ATOM      4  C   UNL     1      14.390  12.996  34.049  0.00  0.00    +0.000 A 
ATOM      5  C   UNL     1      13.654  14.177  33.873  0.00  0.00    +0.000 A 
ATOM      6  C   UNL     1      13.420  14.671  32.609  0.00  0.00    +0.000 A 
ATOM      7  C   UNL     1      13.916  14.002  31.500  0.00  0.00    +0.000 A 
ATOM      8  C   UNL     1      14.638  12.849  31.649  0.00  0.00    +0.000 A 
ATOM      9  C   UNL     1      14.863  12.367  32.922  0.00  0.00    +0.000 A 
ATOM     10 BR   UNL     1      15.868  10.750  33.191  0.00  0.00    +0.000 Br
ENDBRANCH   2   4
BRANCH   1  11
ATOM     11  N   UNL     1      16.117  12.309  37.349  0.00  0.00    +0.000 NA
BRANCH  11  15
ATOM     12  C   UNL     1      19.907   9.715  36.411  0.00  0.00    +0.000 C 
ATOM     13  C   UNL     1      18.446   9.306  37.113  0.00  0.00    +0.000 C 
ATOM     14  C   UNL     1      17.788  10.753  36.676  0.00  0.00    +0.000 C 
ATOM     15  C   UNL     1      16.826  11.098  37.524  0.00  0.00    +0.000 C 
ATOM     16  C   UNL     1      16.451  10.249  38.674  0.00  0.00    +0.000 C 
ATOM     17  C   UNL     1      17.664   9.729  39.402  0.00  0.00    +0.000 C 
ATOM     18  C   UNL     1      18.918   9.934  38.592  0.00  0.00    +0.000 C 
ENDBRANCH  11  15
ENDBRANCH   1  11
TORSDOF 3
ENDMDL
MODEL 3
REMARK VINA RESULT:      -6.7      2.021      6.802
REMARK  Name = 
REMARK  3 active torsions:
REMARK  status: ('A' for Active; 'I' for Inactive)
REMARK    1  A    between atoms: C_4  and  N_5
REMARK    2  A    between atoms: N_5  and  N_6
REMARK    3  A    between atoms: C_7  and  C_9
REMARK                            x       y       z     vdW  Elec       q    Type
REMARK                         _______ _______ _______ _____ _____    ______ ____
ROOT
ATOM      1  N   UNL     1      16.448  11.769  35.288  0.00  0.00    +0.000 NA
ATOM      2  C   UNL     1      16.735  11.328  36.602  0.00  0.00    +0.000 C 
ATOM      3  O   UNL     1      15.772  11.146  37.394  0.00  0.00    +0.000 OA
ENDROOT
BRANCH   2   4
ATOM      4  C   UNL     1      18.111  11.097  37.017  0.00  0.00    +0.000 A 
ATOM      5  C   UNL     1      18.719  11.997  37.905  0.00  0.00    +0.000 A 
ATOM      6  C   UNL     1      20.019  11.804  38.314  0.00  0.00    +0.000 A 
ATOM      7  C   UNL     1      20.737  10.713  37.849  0.00  0.00    +0.000 A 
ATOM      8  C   UNL     1      20.164   9.820  36.983  0.00  0.00    +0.000 A 
ATOM      9  C   UNL     1      18.859  10.029  36.583  0.00  0.00    +0.000 A 
ATOM     10 BR   UNL     1      18.005   8.811  35.367  0.00  0.00    +0.000 Br
ENDBRANCH   2   4
BRANCH   1  11
ATOM     11  N   UNL     1      15.151  12.001  34.835  0.00  0.00    +0.000 NA
BRANCH  11  15
ATOM     12  C   UNL     1      14.405  14.475  30.925  0.00  0.00    +0.000 C 
ATOM     13  C   UNL     1      14.210  12.846  31.244  0.00  0.00    +0.000 C 
ATOM     14  C   UNL     1      14.405  13.102  32.861  0.00  0.00    +0.000 C 
ATOM     15  C   UNL     1      14.898  12.015  33.444  0.00  0.00    +0.000 C 
ATOM     16  C   UNL     1      15.200  10.784  32.685  0.00  0.00    +0.000 C 
ATOM     17  C   UNL     1      15.918  11.088  31.394  0.00  0.00    +0.000 C 
ATOM     18  C   UNL     1      15.849  12.557  31.063  0.00  0.00    +0.000 C 
ENDBRANCH  11  15
ENDBRANCH   1  11
TORSDOF 3
ENDMDL
MODEL 4
REMARK VINA RESULT:      -6.2      1.692      2.347
REMARK  Name = 
REMARK  3 active torsions:
REMARK  status: ('A' for Active; 'I' for Inactive)
REMARK    1  A    between atoms: C_4  and  N_5
REMARK    2  A    between atoms: N_5  and  N_6
REMARK    3  A    between atoms: C_7  and  C_9
REMARK                            x       y       z     vdW  Elec       q    Type
REMARK                         _______ _______ _______ _____ _____    ______ ____
ROOT
ATOM      1  N   UNL     1      16.444  11.547  35.385  0.00  0.00    +0.000 NA
ATOM      2  C   UNL     1      15.614  11.395  34.248  0.00  0.00    +0.000 C 
ATOM      3  O   UNL     1      15.568  10.267  33.690  0.00  0.00    +0.000 OA
ENDROOT
BRANCH   2   4
ATOM      4  C   UNL     1      14.841  12.521  33.745  0.00  0.00    +0.000 A 
ATOM      5  C   UNL     1      14.157  13.342  34.653  0.00  0.00    +0.000 A 
ATOM      6  C   UNL     1      13.417  14.414  34.206  0.00  0.00    +0.000 A 
ATOM      7  C   UNL     1      13.346  14.688  32.848  0.00  0.00    +0.000 A 
ATOM      8  C   UNL     1      14.007  13.901  31.944  0.00  0.00    +0.000 A 
ATOM      9  C   UNL     1      14.744  12.832  32.410  0.00  0.00    +0.000 A 
ATOM     10 BR   UNL     1      15.689  11.691  31.185  0.00  0.00    +0.000 Br
ENDBRANCH   2   4
BRANCH   1  11
ATOM     11  N   UNL     1      17.201  10.503  35.913  0.00  0.00    +0.000 NA
BRANCH  11  15
ATOM     12  C   UNL     1      19.280   8.537  39.625  0.00  0.00    +0.000 C 
ATOM     13  C   UNL     1      18.645  10.068  39.409  0.00  0.00    +0.000 C 
ATOM     14  C   UNL     1      17.927   9.611  37.997  0.00  0.00    +0.000 C 
ATOM     15  C   UNL     1      17.792  10.656  37.188  0.00  0.00    +0.000 C 
ATOM     16  C   UNL     1      18.243  12.010  37.572  0.00  0.00    +0.000 C 
ATOM     17  C   UNL     1      19.608  11.983  38.211  0.00  0.00    +0.000 C 
ATOM     18  C   UNL     1      20.010  10.578  38.584  0.00  0.00    +0.000 C 
ENDBRANCH  11  15
ENDBRANCH   1  11
TORSDOF 3
ENDMDL
MODEL 5
REMARK VINA RESULT:      -6.2     27.477     29.421
REMARK  Name = 
REMARK  3 active torsions:
REMARK  status: ('A' for Active; 'I' for Inactive)
REMARK    1  A    between atoms: C_4  and  N_5
REMARK    2  A    between atoms: N_5  and  N_6
REMARK    3  A    between atoms: C_7  and  C_9
REMARK                            x       y       z     vdW  Elec       q    Type
REMARK                         _______ _______ _______ _____ _____    ______ ____
ROOT
ATOM      1  N   UNL     1      30.845  22.966  11.520  0.00  0.00    +0.000 NA
ATOM      2  C   UNL     1      29.880  22.457  12.421  0.00  0.00    +0.000 C 
ATOM      3  O   UNL     1      30.276  21.730  13.371  0.00  0.00    +0.000 OA
ENDROOT
BRANCH   2   4
ATOM      4  C   UNL     1      28.469  22.770  12.245  0.00  0.00    +0.000 A 
ATOM      5  C   UNL     1      27.732  22.082  11.269  0.00  0.00    +0.000 A 
ATOM      6  C   UNL     1      26.396  22.358  11.080  0.00  0.00    +0.000 A 
ATOM      7  C   UNL     1      25.770  23.321  11.857  0.00  0.00    +0.000 A 
ATOM      8  C   UNL     1      26.470  24.004  12.816  0.00  0.00    +0.000 A 
ATOM      9  C   UNL     1      27.808  23.715  12.993  0.00  0.00    +0.000 A 
ATOM     10 BR   UNL     1      28.839  24.644  14.322  0.00  0.00    +0.000 Br
ENDBRANCH   2   4
BRANCH   1  11
ATOM     11  N   UNL     1      32.207  22.704  11.643  0.00  0.00    +0.000 NA
BRANCH  11  15
ATOM     12  C   UNL     1      35.543  19.753  10.182  0.00  0.00    +0.000 C 
ATOM     13  C   UNL     1      34.649  20.895   9.350  0.00  0.00    +0.000 C 
ATOM     14  C   UNL     1      34.082  21.533  10.760  0.00  0.00    +0.000 C 
ATOM     15  C   UNL     1      32.892  22.091  10.568  0.00  0.00    +0.000 C 
ATOM     16  C   UNL     1      32.234  22.103   9.246  0.00  0.00    +0.000 C 
ATOM     17  C   UNL     1      32.326  20.762   8.564  0.00  0.00    +0.000 C 
ATOM     18  C   UNL     1      33.330  19.869   9.249  0.00  0.00    +0.000 C 
ENDBRANCH  11  15
ENDBRANCH   1  11
TORSDOF 3
ENDMDL
MODEL 6
REMARK VINA RESULT:      -6.1      3.818      7.622
REMARK  Name = 
REMARK  3 active torsions:
REMARK  status: ('A' for Active; 'I' for Inactive)
REMARK    1  A    between atoms: C_4  and  N_5
REMARK    2  A    between atoms: N_5  and  N_6
REMARK    3  A    between atoms: C_7  and  C_9
REMARK                            x       y       z     vdW  Elec       q    Type
REMARK                         _______ _______ _______ _____ _____    ______ ____
ROOT
ATOM      1  N   UNL     1      19.801  10.081  36.832  0.00  0.00    +0.000 NA
ATOM      2  C   UNL     1      20.885   9.884  37.719  0.00  0.00    +0.000 C 
ATOM      3  O   UNL     1      20.641   9.431  38.869  0.00  0.00    +0.000 OA
ENDROOT
BRANCH   2   4
ATOM      4  C   UNL     1      22.244  10.203  37.304  0.00  0.00    +0.000 A 
ATOM      5  C   UNL     1      22.954   9.282  36.520  0.00  0.00    +0.000 A 
ATOM      6  C   UNL     1      24.240   9.556  36.113  0.00  0.00    +0.000 A 
ATOM      7  C   UNL     1      24.843  10.751  36.478  0.00  0.00    +0.000 A 
ATOM      8  C   UNL     1      24.168  11.665  37.242  0.00  0.00    +0.000 A 
ATOM      9  C   UNL     1      22.879  11.374  37.641  0.00  0.00    +0.000 A 
ATOM     10 BR   UNL     1      21.886  12.619  38.717  0.00  0.00    +0.000 Br
ENDBRANCH   2   4
BRANCH   1  11
ATOM     11  N   UNL     1      18.482   9.789  37.174  0.00  0.00    +0.000 NA
BRANCH  11  15
ATOM     12  C   UNL     1      15.159  12.773  35.751  0.00  0.00    +0.000 C 
ATOM     13  C   UNL     1      15.457  11.183  35.330  0.00  0.00    +0.000 C 
ATOM     14  C   UNL     1      16.538  11.019  36.563  0.00  0.00    +0.000 C 
ATOM     15  C   UNL     1      17.447  10.100  36.261  0.00  0.00    +0.000 C 
ATOM     16  C   UNL     1      17.426   9.364  34.980  0.00  0.00    +0.000 C 
ATOM     17  C   UNL     1      17.167  10.283  33.814  0.00  0.00    +0.000 C 
ATOM     18  C   UNL     1      16.680  11.633  34.278  0.00  0.00    +0.000 C 
ENDBRANCH  11  15
ENDBRANCH   1  11
TORSDOF 3
ENDMDL
MODEL 7
REMARK VINA RESULT:      -6.1     20.946     22.835
REMARK  Name = 
REMARK  3 active torsions:
REMARK  status: ('A' for Active; 'I' for Inactive)
REMARK    1  A    between atoms: C_4  and  N_5
REMARK    2  A    between atoms: N_5  and  N_6
REMARK    3  A    between atoms: C_7  and  C_9
REMARK                            x       y       z     vdW  Elec       q    Type
REMARK                         _______ _______ _______ _____ _____    ______ ____
ROOT
ATOM      1  N   UNL     1      29.669  24.478  22.132  0.00  0.00    +0.000 NA
ATOM      2  C   UNL     1      28.749  23.550  22.676  0.00  0.00    +0.000 C 
ATOM      3  O   UNL     1      27.837  23.106  21.928  0.00  0.00    +0.000 OA
ENDROOT
BRANCH   2   4
ATOM      4  C   UNL     1      28.861  23.130  24.065  0.00  0.00    +0.000 A 
ATOM      5  C   UNL     1      30.077  22.601  24.524  0.00  0.00    +0.000 A 
ATOM      6  C   UNL     1      30.212  22.194  25.832  0.00  0.00    +0.000 A 
ATOM      7  C   UNL     1      29.142  22.307  26.707  0.00  0.00    +0.000 A 
ATOM      8  C   UNL     1      27.946  22.822  26.282  0.00  0.00    +0.000 A 
ATOM      9  C   UNL     1      27.828  23.225  24.967  0.00  0.00    +0.000 A 
ATOM     10 BR   UNL     1      26.173  23.952  24.314  0.00  0.00    +0.000 Br
ENDBRANCH   2   4
BRANCH   1  11
ATOM     11  N   UNL     1      29.612  24.912  20.809  0.00  0.00    +0.000 NA
BRANCH  11  15
ATOM     12  C   UNL     1      29.599  28.380  17.656  0.00  0.00    +0.000 C 
ATOM     13  C   UNL     1      29.801  28.409  19.315  0.00  0.00    +0.000 C 
ATOM     14  C   UNL     1      29.961  26.768  19.362  0.00  0.00    +0.000 C 
ATOM     15  C   UNL     1      29.565  26.299  20.539  0.00  0.00    +0.000 C 
ATOM     16  C   UNL     1      29.065  27.185  21.610  0.00  0.00    +0.000 C 
ATOM     17  C   UNL     1      28.103  28.215  21.078  0.00  0.00    +0.000 C 
ATOM     18  C   UNL     1      28.151  28.284  19.573  0.00  0.00    +0.000 C 
ENDBRANCH  11  15
ENDBRANCH   1  11
TORSDOF 3
ENDMDL
MODEL 8
REMARK VINA RESULT:      -6.0     21.197     23.829
REMARK  Name = 
REMARK  3 active torsions:
REMARK  status: ('A' for Active; 'I' for Inactive)
REMARK    1  A    between atoms: C_4  and  N_5
REMARK    2  A    between atoms: N_5  and  N_6
REMARK    3  A    between atoms: C_7  and  C_9
REMARK                            x       y       z     vdW  Elec       q    Type
REMARK                         _______ _______ _______ _____ _____    ______ ____
ROOT
ATOM      1  N   UNL     1      33.377  -4.544  32.652  0.00  0.00    +0.000 NA
ATOM      2  C   UNL     1      32.769  -5.607  31.944  0.00  0.00    +0.000 C 
ATOM      3  O   UNL     1      31.710  -6.106  32.411  0.00  0.00    +0.000 OA
ENDROOT
BRANCH   2   4
ATOM      4  C   UNL     1      33.360  -6.105  30.710  0.00  0.00    +0.000 A 
ATOM      5  C   UNL     1      32.944  -5.564  29.485  0.00  0.00    +0.000 A 
ATOM      6  C   UNL     1      33.485  -6.016  28.302  0.00  0.00    +0.000 A 
ATOM      7  C   UNL     1      34.449  -7.012  28.317  0.00  0.00    +0.000 A 
ATOM      8  C   UNL     1      34.872  -7.554  29.502  0.00  0.00    +0.000 A 
ATOM      9  C   UNL     1      34.319  -7.089  30.678  0.00  0.00    +0.000 A 
ATOM     10 BR   UNL     1      34.871  -7.815  32.370  0.00  0.00    +0.000 Br
ENDBRANCH   2   4
BRANCH   1  11
ATOM     11  N   UNL     1      32.854  -4.024  33.834  0.00  0.00    +0.000 NA
BRANCH  11  15
ATOM     12  C   UNL     1      34.161   0.317  32.643  0.00  0.00    +0.000 C 
ATOM     13  C   UNL     1      34.167  -0.462  34.122  0.00  0.00    +0.000 C 
ATOM     14  C   UNL     1      33.865  -1.914  33.401  0.00  0.00    +0.000 C 
ATOM     15  C   UNL     1      33.221  -2.720  34.237  0.00  0.00    +0.000 C 
ATOM     16  C   UNL     1      32.861  -2.304  35.608  0.00  0.00    +0.000 C 
ATOM     17  C   UNL     1      32.286  -0.911  35.636  0.00  0.00    +0.000 C 
ATOM     18  C   UNL     1      32.528  -0.193  34.332  0.00  0.00    +0.000 C 
ENDBRANCH  11  15
ENDBRANCH   1  11
TORSDOF 3
ENDMDL
MODEL 9
REMARK VINA RESULT:      -5.9      3.307      4.602
REMARK  Name = 
REMARK  3 active torsions:
REMARK  status: ('A' for Active; 'I' for Inactive)
REMARK    1  A    between atoms: C_4  and  N_5
REMARK    2  A    between atoms: N_5  and  N_6
REMARK    3  A    between atoms: C_7  and  C_9
REMARK                            x       y       z     vdW  Elec       q    Type
REMARK                         _______ _______ _______ _____ _____    ______ ____
ROOT
ATOM      1  N   UNL     1      18.066   9.351  37.213  0.00  0.00    +0.000 NA
ATOM      2  C   UNL     1      17.911  10.693  36.789  0.00  0.00    +0.000 C 
ATOM      3  O   UNL     1      18.590  11.583  37.367  0.00  0.00    +0.000 OA
ENDROOT
BRANCH   2   4
ATOM      4  C   UNL     1      16.987  11.023  35.714  0.00  0.00    +0.000 A 
ATOM      5  C   UNL     1      17.437  10.979  34.386  0.00  0.00    +0.000 A 
ATOM      6  C   UNL     1      16.585  11.288  33.349  0.00  0.00    +0.000 A 
ATOM      7  C   UNL     1      15.272  11.644  33.614  0.00  0.00    +0.000 A 
ATOM      8  C   UNL     1      14.810  11.692  34.902  0.00  0.00    +0.000 A 
ATOM      9  C   UNL     1      15.677  11.380  35.929  0.00  0.00    +0.000 A 
ATOM     10 BR   UNL     1      15.084  11.434  37.757  0.00  0.00    +0.000 Br
ENDBRANCH   2   4
BRANCH   1  11
ATOM     11  N   UNL     1      18.939   8.976  38.232  0.00  0.00    +0.000 NA
BRANCH  11  15
ATOM     12  C   UNL     1      15.356   9.204  41.245  0.00  0.00    +0.000 C 
ATOM     13  C   UNL     1      16.962   8.808  41.481  0.00  0.00    +0.000 C 
ATOM     14  C   UNL     1      17.354   9.339  39.970  0.00  0.00    +0.000 C 
ATOM     15  C   UNL     1      18.419   8.688  39.515  0.00  0.00    +0.000 C 
ATOM     16  C   UNL     1      19.105   7.650  40.311  0.00  0.00    +0.000 C 
ATOM     17  C   UNL     1      18.125   6.708  40.963  0.00  0.00    +0.000 C 
ATOM     18  C   UNL     1      16.721   7.255  40.905  0.00  0.00    +0.000 C 
ENDBRANCH  11  15
ENDBRANCH   1  11
TORSDOF 3
ENDMDL
MODEL 10
REMARK VINA RESULT:      -5.6      6.299      7.795
REMARK  Name = 
REMARK  3 active torsions:
REMARK  status: ('A' for Active; 'I' for Inactive)
REMARK    1  A    between atoms: C_4  and  N_5
REMARK    2  A    between atoms: N_5  and  N_6
REMARK    3  A    between atoms: C_7  and  C_9
REMARK                            x       y       z     vdW  Elec       q    Type
REMARK                         _______ _______ _______ _____ _____    ______ ____
ROOT
ATOM      1  N   UNL     1      19.961   9.225  38.519  0.00  0.00    +0.000 NA
ATOM      2  C   UNL     1      20.412   9.772  37.294  0.00  0.00    +0.000 C 
ATOM      3  O   UNL     1      19.576   9.921  36.364  0.00  0.00    +0.000 OA
ENDROOT
BRANCH   2   4
ATOM      4  C   UNL     1      21.808  10.147  37.125  0.00  0.00    +0.000 A 
ATOM      5  C   UNL     1      22.673   9.278  36.443  0.00  0.00    +0.000 A 
ATOM      6  C   UNL     1      23.998   9.607  36.268  0.00  0.00    +0.000 A 
ATOM      7  C   UNL     1      24.487  10.805  36.768  0.00  0.00    +0.000 A 
ATOM      8  C   UNL     1      23.661  11.669  37.435  0.00  0.00    +0.000 A 
ATOM      9  C   UNL     1      22.335  11.324  37.601  0.00  0.00    +0.000 A 
ATOM     10 BR   UNL     1      21.131  12.497  38.533  0.00  0.00    +0.000 Br
ENDBRANCH   2   4
BRANCH   1  11
ATOM     11  N   UNL     1      18.636   8.853  38.739  0.00  0.00    +0.000 NA
BRANCH  11  15
ATOM     12  C   UNL     1      16.300   9.713  42.711  0.00  0.00    +0.000 C 
ATOM     13  C   UNL     1      17.422   8.533  42.333  0.00  0.00    +0.000 C 
ATOM     14  C   UNL     1      17.811   9.300  40.927  0.00  0.00    +0.000 C 
ATOM     15  C   UNL     1      18.245   8.423  40.028  0.00  0.00    +0.000 C 
ATOM     16  C   UNL     1      18.343   6.979  40.323  0.00  0.00    +0.000 C 
ATOM     17  C   UNL     1      17.116   6.471  41.036  0.00  0.00    +0.000 C 
ATOM     18  C   UNL     1      16.269   7.609  41.546  0.00  0.00    +0.000 C 
ENDBRANCH  11  15
ENDBRANCH   1  11
TORSDOF 3
ENDMDL
