MODEL 1
REMARK VINA RESULT:      -8.1      0.000      0.000
REMARK  Name = 
REMARK  7 active torsions:
REMARK  status: ('A' for Active; 'I' for Inactive)
REMARK    1  A    between atoms: C_2  and  O_3
REMARK    2  A    between atoms: O_3  and  C_4
REMARK    3  A    between atoms: C_8  and  C_9
REMARK    4  A    between atoms: C_11  and  C_12
REMARK    5  A    between atoms: N_14  and  C_15
REMARK    6  A    between atoms: C_15  and  C_16
REMARK    7  A    between atoms: C_21  and  O_22
REMARK                            x       y       z     vdW  Elec       q    Type
REMARK                         _______ _______ _______ _____ _____    ______ ____
ROOT
ATOM      1  C   UNL     1      38.144   5.817  16.948  0.00  0.00    +0.000 A 
ATOM      2  C   UNL     1      38.026   4.433  16.823  0.00  0.00    +0.000 A 
ATOM      3  C   UNL     1      37.560   3.892  15.658  0.00  0.00    +0.000 A 
ATOM      4  C   UNL     1      37.217   4.727  14.626  0.00  0.00    +0.000 A 
ATOM      5  C   UNL     1      36.751   4.175  13.459  0.00  0.00    +0.000 A 
ATOM      6  C   UNL     1      36.408   5.012  12.430  0.00  0.00    +0.000 A 
ATOM      7  C   UNL     1      36.516   6.383  12.526  0.00  0.00    +0.000 A 
ATOM      8  C   UNL     1      36.991   6.907  13.722  0.00  0.00    +0.000 A 
ATOM      9  C   UNL     1      37.335   6.081  14.754  0.00  0.00    +0.000 A 
ATOM     10  N   UNL     1      37.794   6.589  15.905  0.00  0.00    +0.000 NA
ENDROOT
BRANCH   1  15
ATOM     11  C   UNL     1      38.492   8.126  19.870  0.00  0.00    +0.000 A 
ATOM     12  C   UNL     1      39.591   7.609  20.496  0.00  0.00    +0.000 A 
ATOM     13  C   UNL     1      40.222   6.507  19.970  0.00  0.00    +0.000 A 
ATOM     14  C   UNL     1      39.731   5.929  18.798  0.00  0.00    +0.000 A 
ATOM     15  C   UNL     1      38.630   6.434  18.158  0.00  0.00    +0.000 A 
ATOM     16  C   UNL     1      38.009   7.535  18.694  0.00  0.00    +0.000 A 
BRANCH  11  17
ATOM     17  O   UNL     1      37.785   9.232  20.321  0.00  0.00    +0.000 OA
BRANCH  17  19
ATOM     18  C   UNL     1      38.793  11.261  21.197  0.00  0.00    +0.000 C 
ATOM     19  C   UNL     1      38.117  10.559  20.035  0.00  0.00    +0.000 C 
ENDBRANCH  17  19
ENDBRANCH  11  17
ENDBRANCH   1  15
BRANCH   3  20
ATOM     20  C   UNL     1      37.429   2.419  15.509  0.00  0.00    +0.000 C 
ATOM     21  O   UNL     1      38.384   1.729  15.082  0.00  0.00    +0.000 OA
ATOM     22  N   UNL     1      36.222   1.759  15.848  0.00  0.00    +0.000 NA
BRANCH  22  23
ATOM     23  C   UNL     1      35.999   0.333  15.740  0.00  0.00    +0.000 C 
BRANCH  23  24
ATOM     24  C   UNL     1      36.390  -0.387  16.977  0.00  0.00    +0.000 A 
ATOM     25  C   UNL     1      35.756  -0.070  18.146  0.00  0.00    +0.000 A 
ATOM     26  C   UNL     1      36.087  -0.713  19.306  0.00  0.00    +0.000 A 
ATOM     27  C   UNL     1      37.052  -1.683  19.336  0.00  0.00    +0.000 A 
ATOM     28  C   UNL     1      37.689  -1.995  18.138  0.00  0.00    +0.000 A 
ATOM     29  C   UNL     1      37.355  -1.348  16.977  0.00  0.00    +0.000 A 
BRANCH  29  30
ATOM     30  O   UNL     1      38.001  -1.673  15.793  0.00  0.00    +0.000 OA
ATOM     31  C   UNL     1      39.396  -1.593  15.620  0.00  0.00    +0.000 C 
ENDBRANCH  29  30
ENDBRANCH  23  24
ENDBRANCH  22  23
ENDBRANCH   3  20
TORSDOF 7
ENDMDL
MODEL 2
REMARK VINA RESULT:      -8.0      1.650      2.421
REMARK  Name = 
REMARK  7 active torsions:
REMARK  status: ('A' for Active; 'I' for Inactive)
REMARK    1  A    between atoms: C_2  and  O_3
REMARK    2  A    between atoms: O_3  and  C_4
REMARK    3  A    between atoms: C_8  and  C_9
REMARK    4  A    between atoms: C_11  and  C_12
REMARK    5  A    between atoms: N_14  and  C_15
REMARK    6  A    between atoms: C_15  and  C_16
REMARK    7  A    between atoms: C_21  and  O_22
REMARK                            x       y       z     vdW  Elec       q    Type
REMARK                         _______ _______ _______ _____ _____    ______ ____
ROOT
ATOM      1  C   UNL     1      38.246   5.302  16.990  0.00  0.00    +0.000 A 
ATOM      2  C   UNL     1      37.554   4.103  17.159  0.00  0.00    +0.000 A 
ATOM      3  C   UNL     1      37.128   3.403  16.065  0.00  0.00    +0.000 A 
ATOM      4  C   UNL     1      37.393   3.897  14.814  0.00  0.00    +0.000 A 
ATOM      5  C   UNL     1      36.961   3.187  13.721  0.00  0.00    +0.000 A 
ATOM      6  C   UNL     1      37.227   3.683  12.472  0.00  0.00    +0.000 A 
ATOM      7  C   UNL     1      37.909   4.865  12.276  0.00  0.00    +0.000 A 
ATOM      8  C   UNL     1      38.330   5.558  13.405  0.00  0.00    +0.000 A 
ATOM      9  C   UNL     1      38.071   5.071  14.655  0.00  0.00    +0.000 A 
ATOM     10  N   UNL     1      38.478   5.740  15.741  0.00  0.00    +0.000 NA
ENDROOT
BRANCH   1  15
ATOM     11  C   UNL     1      40.260   6.441  19.929  0.00  0.00    +0.000 A 
ATOM     12  C   UNL     1      39.602   7.586  20.282  0.00  0.00    +0.000 A 
ATOM     13  C   UNL     1      38.501   7.991  19.565  0.00  0.00    +0.000 A 
ATOM     14  C   UNL     1      38.068   7.225  18.482  0.00  0.00    +0.000 A 
ATOM     15  C   UNL     1      38.715   6.075  18.114  0.00  0.00    +0.000 A 
ATOM     16  C   UNL     1      39.813   5.682  18.838  0.00  0.00    +0.000 A 
BRANCH  11  17
ATOM     17  O   UNL     1      41.378   5.949  20.587  0.00  0.00    +0.000 OA
BRANCH  17  19
ATOM     18  C   UNL     1      43.570   6.073  21.627  0.00  0.00    +0.000 C 
ATOM     19  C   UNL     1      42.663   6.487  20.483  0.00  0.00    +0.000 C 
ENDBRANCH  17  19
ENDBRANCH  11  17
ENDBRANCH   1  15
BRANCH   3  20
ATOM     20  C   UNL     1      36.389   2.124  16.229  0.00  0.00    +0.000 C 
ATOM     21  O   UNL     1      35.150   2.117  16.418  0.00  0.00    +0.000 OA
ATOM     22  N   UNL     1      37.067   0.881  16.173  0.00  0.00    +0.000 NA
BRANCH  22  23
ATOM     23  C   UNL     1      36.436  -0.414  16.319  0.00  0.00    +0.000 C 
BRANCH  23  24
ATOM     24  C   UNL     1      37.140  -1.266  17.309  0.00  0.00    +0.000 A 
ATOM     25  C   UNL     1      36.761  -1.194  18.621  0.00  0.00    +0.000 A 
ATOM     26  C   UNL     1      37.384  -1.965  19.562  0.00  0.00    +0.000 A 
ATOM     27  C   UNL     1      38.395  -2.825  19.227  0.00  0.00    +0.000 A 
ATOM     28  C   UNL     1      38.770  -2.888  17.888  0.00  0.00    +0.000 A 
ATOM     29  C   UNL     1      38.143  -2.113  16.947  0.00  0.00    +0.000 A 
BRANCH  29  30
ATOM     30  O   UNL     1      38.531  -2.189  15.617  0.00  0.00    +0.000 OA
ATOM     31  C   UNL     1      39.826  -1.873  15.164  0.00  0.00    +0.000 C 
ENDBRANCH  29  30
ENDBRANCH  23  24
ENDBRANCH  22  23
ENDBRANCH   3  20
TORSDOF 7
ENDMDL
MODEL 3
REMARK VINA RESULT:      -7.9     23.672     26.805
REMARK  Name = 
REMARK  7 active torsions:
REMARK  status: ('A' for Active; 'I' for Inactive)
REMARK    1  A    between atoms: C_2  and  O_3
REMARK    2  A    between atoms: O_3  and  C_4
REMARK    3  A    between atoms: C_8  and  C_9
REMARK    4  A    between atoms: C_11  and  C_12
REMARK    5  A    between atoms: N_14  and  C_15
REMARK    6  A    between atoms: C_15  and  C_16
REMARK    7  A    between atoms: C_21  and  O_22
REMARK                            x       y       z     vdW  Elec       q    Type
REMARK                         _______ _______ _______ _____ _____    ______ ____
ROOT
ATOM      1  C   UNL     1      25.740  16.170  36.518  0.00  0.00    +0.000 A 
ATOM      2  C   UNL     1      25.584  15.150  37.456  0.00  0.00    +0.000 A 
ATOM      3  C   UNL     1      25.779  15.411  38.784  0.00  0.00    +0.000 A 
ATOM      4  C   UNL     1      26.124  16.682  39.169  0.00  0.00    +0.000 A 
ATOM      5  C   UNL     1      26.316  16.935  40.504  0.00  0.00    +0.000 A 
ATOM      6  C   UNL     1      26.661  18.204  40.886  0.00  0.00    +0.000 A 
ATOM      7  C   UNL     1      26.821  19.231  39.980  0.00  0.00    +0.000 A 
ATOM      8  C   UNL     1      26.618  18.938  38.637  0.00  0.00    +0.000 A 
ATOM      9  C   UNL     1      26.274  17.676  38.245  0.00  0.00    +0.000 A 
ATOM     10  N   UNL     1      26.078  17.396  36.950  0.00  0.00    +0.000 NA
ENDROOT
BRANCH   1  15
ATOM     11  C   UNL     1      24.957  16.722  32.902  0.00  0.00    +0.000 A 
ATOM     12  C   UNL     1      25.174  15.477  32.383  0.00  0.00    +0.000 A 
ATOM     13  C   UNL     1      25.576  14.453  33.208  0.00  0.00    +0.000 A 
ATOM     14  C   UNL     1      25.758  14.700  34.570  0.00  0.00    +0.000 A 
ATOM     15  C   UNL     1      25.545  15.942  35.106  0.00  0.00    +0.000 A 
ATOM     16  C   UNL     1      25.144  16.956  34.272  0.00  0.00    +0.000 A 
BRANCH  11  17
ATOM     17  O   UNL     1      24.551  17.819  32.154  0.00  0.00    +0.000 OA
BRANCH  17  19
ATOM     18  C   UNL     1      22.921  19.609  31.957  0.00  0.00    +0.000 C 
ATOM     19  C   UNL     1      24.115  19.032  32.693  0.00  0.00    +0.000 C 
ENDBRANCH  17  19
ENDBRANCH  11  17
ENDBRANCH   1  15
BRANCH   3  20
ATOM     20  C   UNL     1      25.617  14.335  39.796  0.00  0.00    +0.000 C 
ATOM     21  O   UNL     1      24.570  14.250  40.480  0.00  0.00    +0.000 OA
ATOM     22  N   UNL     1      26.640  13.380  40.011  0.00  0.00    +0.000 NA
BRANCH  22  23
ATOM     23  C   UNL     1      26.574  12.297  40.970  0.00  0.00    +0.000 C 
BRANCH  23  24
ATOM     24  C   UNL     1      27.747  11.395  40.870  0.00  0.00    +0.000 A 
ATOM     25  C   UNL     1      28.975  11.942  40.621  0.00  0.00    +0.000 A 
ATOM     26  C   UNL     1      30.080  11.143  40.525  0.00  0.00    +0.000 A 
ATOM     27  C   UNL     1      29.996   9.785  40.672  0.00  0.00    +0.000 A 
ATOM     28  C   UNL     1      28.739   9.241  40.926  0.00  0.00    +0.000 A 
ATOM     29  C   UNL     1      27.633  10.046  41.022  0.00  0.00    +0.000 A 
BRANCH  29  30
ATOM     30  O   UNL     1      26.389   9.486  41.275  0.00  0.00    +0.000 OA
ATOM     31  C   UNL     1      26.208   8.165  41.729  0.00  0.00    +0.000 C 
ENDBRANCH  29  30
ENDBRANCH  23  24
ENDBRANCH  22  23
ENDBRANCH   3  20
TORSDOF 7
ENDMDL
MODEL 4
REMARK VINA RESULT:      -7.9      2.944      8.647
REMARK  Name = 
REMARK  7 active torsions:
REMARK  status: ('A' for Active; 'I' for Inactive)
REMARK    1  A    between atoms: C_2  and  O_3
REMARK    2  A    between atoms: O_3  and  C_4
REMARK    3  A    between atoms: C_8  and  C_9
REMARK    4  A    between atoms: C_11  and  C_12
REMARK    5  A    between atoms: N_14  and  C_15
REMARK    6  A    between atoms: C_15  and  C_16
REMARK    7  A    between atoms: C_21  and  O_22
REMARK                            x       y       z     vdW  Elec       q    Type
REMARK                         _______ _______ _______ _____ _____    ______ ____
ROOT
ATOM      1  C   UNL     1      38.882  -0.516  14.676  0.00  0.00    +0.000 A 
ATOM      2  C   UNL     1      38.946   0.876  14.644  0.00  0.00    +0.000 A 
ATOM      3  C   UNL     1      37.940   1.618  15.199  0.00  0.00    +0.000 A 
ATOM      4  C   UNL     1      36.882   0.971  15.784  0.00  0.00    +0.000 A 
ATOM      5  C   UNL     1      35.877   1.723  16.339  0.00  0.00    +0.000 A 
ATOM      6  C   UNL     1      34.820   1.075  16.922  0.00  0.00    +0.000 A 
ATOM      7  C   UNL     1      34.731  -0.300  16.969  0.00  0.00    +0.000 A 
ATOM      8  C   UNL     1      35.766  -1.029  16.396  0.00  0.00    +0.000 A 
ATOM      9  C   UNL     1      36.824  -0.393  15.813  0.00  0.00    +0.000 A 
ATOM     10  N   UNL     1      37.821  -1.098  15.262  0.00  0.00    +0.000 NA
ENDROOT
BRANCH   1  15
ATOM     11  C   UNL     1      42.215  -2.066  13.982  0.00  0.00    +0.000 A 
ATOM     12  C   UNL     1      41.904  -2.941  12.980  0.00  0.00    +0.000 A 
ATOM     13  C   UNL     1      40.609  -3.030  12.527  0.00  0.00    +0.000 A 
ATOM     14  C   UNL     1      39.625  -2.222  13.098  0.00  0.00    +0.000 A 
ATOM     15  C   UNL     1      39.918  -1.340  14.104  0.00  0.00    +0.000 A 
ATOM     16  C   UNL     1      41.215  -1.260  14.547  0.00  0.00    +0.000 A 
BRANCH  11  17
ATOM     17  O   UNL     1      43.488  -1.902  14.508  0.00  0.00    +0.000 OA
BRANCH  17  19
ATOM     18  C   UNL     1      44.905  -0.342  15.716  0.00  0.00    +0.000 C 
ATOM     19  C   UNL     1      44.247  -0.734  14.406  0.00  0.00    +0.000 C 
ENDBRANCH  17  19
ENDBRANCH  11  17
ENDBRANCH   1  15
BRANCH   3  20
ATOM     20  C   UNL     1      37.994   3.103  15.172  0.00  0.00    +0.000 C 
ATOM     21  O   UNL     1      37.562   3.743  14.185  0.00  0.00    +0.000 OA
ATOM     22  N   UNL     1      38.533   3.830  16.262  0.00  0.00    +0.000 NA
BRANCH  22  23
ATOM     23  C   UNL     1      38.627   5.273  16.329  0.00  0.00    +0.000 C 
BRANCH  23  24
ATOM     24  C   UNL     1      39.612   5.719  17.344  0.00  0.00    +0.000 A 
ATOM     25  C   UNL     1      39.232   5.743  18.658  0.00  0.00    +0.000 A 
ATOM     26  C   UNL     1      40.112   6.146  19.623  0.00  0.00    +0.000 A 
ATOM     27  C   UNL     1      41.386   6.535  19.311  0.00  0.00    +0.000 A 
ATOM     28  C   UNL     1      41.759   6.506  17.970  0.00  0.00    +0.000 A 
ATOM     29  C   UNL     1      40.874   6.101  17.005  0.00  0.00    +0.000 A 
BRANCH  29  30
ATOM     30  O   UNL     1      41.264   6.079  15.674  0.00  0.00    +0.000 OA
ATOM     31  C   UNL     1      42.543   6.465  15.230  0.00  0.00    +0.000 C 
ENDBRANCH  29  30
ENDBRANCH  23  24
ENDBRANCH  22  23
ENDBRANCH   3  20
TORSDOF 7
ENDMDL
MODEL 5
REMARK VINA RESULT:      -7.8      2.214      3.262
REMARK  Name = 
REMARK  7 active torsions:
REMARK  status: ('A' for Active; 'I' for Inactive)
REMARK    1  A    between atoms: C_2  and  O_3
REMARK    2  A    between atoms: O_3  and  C_4
REMARK    3  A    between atoms: C_8  and  C_9
REMARK    4  A    between atoms: C_11  and  C_12
REMARK    5  A    between atoms: N_14  and  C_15
REMARK    6  A    between atoms: C_15  and  C_16
REMARK    7  A    between atoms: C_21  and  O_22
REMARK                            x       y       z     vdW  Elec       q    Type
REMARK                         _______ _______ _______ _____ _____    ______ ____
ROOT
ATOM      1  C   UNL     1      38.718   5.509  16.800  0.00  0.00    +0.000 A 
ATOM      2  C   UNL     1      38.086   4.268  16.859  0.00  0.00    +0.000 A 
ATOM      3  C   UNL     1      37.116   3.953  15.948  0.00  0.00    +0.000 A 
ATOM      4  C   UNL     1      36.783   4.872  14.986  0.00  0.00    +0.000 A 
ATOM      5  C   UNL     1      35.808   4.548  14.076  0.00  0.00    +0.000 A 
ATOM      6  C   UNL     1      35.477   5.468  13.117  0.00  0.00    +0.000 A 
ATOM      7  C   UNL     1      36.086   6.702  13.035  0.00  0.00    +0.000 A 
ATOM      8  C   UNL     1      37.068   6.997  13.973  0.00  0.00    +0.000 A 
ATOM      9  C   UNL     1      37.406   6.086  14.933  0.00  0.00    +0.000 A 
ATOM     10  N   UNL     1      38.353   6.371  15.836  0.00  0.00    +0.000 NA
ENDROOT
BRANCH   1  15
ATOM     11  C   UNL     1      42.027   6.487  18.246  0.00  0.00    +0.000 A 
ATOM     12  C   UNL     1      41.718   6.609  19.572  0.00  0.00    +0.000 A 
ATOM     13  C   UNL     1      40.433   6.374  19.999  0.00  0.00    +0.000 A 
ATOM     14  C   UNL     1      39.456   6.012  19.071  0.00  0.00    +0.000 A 
ATOM     15  C   UNL     1      39.747   5.885  17.738  0.00  0.00    +0.000 A 
ATOM     16  C   UNL     1      41.035   6.122  17.324  0.00  0.00    +0.000 A 
BRANCH  11  17
ATOM     17  O   UNL     1      43.291   6.702  17.715  0.00  0.00    +0.000 OA
BRANCH  17  19
ATOM     18  C   UNL     1      45.049   6.866  16.048  0.00  0.00    +0.000 C 
ATOM     19  C   UNL     1      43.564   6.877  16.357  0.00  0.00    +0.000 C 
ENDBRANCH  17  19
ENDBRANCH  11  17
ENDBRANCH   1  15
BRANCH   3  20
ATOM     20  C   UNL     1      36.433   2.634  15.998  0.00  0.00    +0.000 C 
ATOM     21  O   UNL     1      35.348   2.496  16.610  0.00  0.00    +0.000 OA
ATOM     22  N   UNL     1      36.991   1.503  15.354  0.00  0.00    +0.000 NA
BRANCH  22  23
ATOM     23  C   UNL     1      36.401   0.181  15.345  0.00  0.00    +0.000 C 
BRANCH  23  24
ATOM     24  C   UNL     1      37.233  -0.804  16.079  0.00  0.00    +0.000 A 
ATOM     25  C   UNL     1      38.357  -1.292  15.472  0.00  0.00    +0.000 A 
ATOM     26  C   UNL     1      39.150  -2.199  16.118  0.00  0.00    +0.000 A 
ATOM     27  C   UNL     1      38.850  -2.644  17.377  0.00  0.00    +0.000 A 
ATOM     28  C   UNL     1      37.703  -2.138  17.982  0.00  0.00    +0.000 A 
ATOM     29  C   UNL     1      36.910  -1.229  17.332  0.00  0.00    +0.000 A 
BRANCH  29  30
ATOM     30  O   UNL     1      35.770  -0.737  17.951  0.00  0.00    +0.000 OA
ATOM     31  C   UNL     1      35.795   0.031  19.131  0.00  0.00    +0.000 C 
ENDBRANCH  29  30
ENDBRANCH  23  24
ENDBRANCH  22  23
ENDBRANCH   3  20
TORSDOF 7
ENDMDL
MODEL 6
REMARK VINA RESULT:      -7.6      3.056      9.212
REMARK  Name = 
REMARK  7 active torsions:
REMARK  status: ('A' for Active; 'I' for Inactive)
REMARK    1  A    between atoms: C_2  and  O_3
REMARK    2  A    between atoms: O_3  and  C_4
REMARK    3  A    between atoms: C_8  and  C_9
REMARK    4  A    between atoms: C_11  and  C_12
REMARK    5  A    between atoms: N_14  and  C_15
REMARK    6  A    between atoms: C_15  and  C_16
REMARK    7  A    between atoms: C_21  and  O_22
REMARK                            x       y       z     vdW  Elec       q    Type
REMARK                         _______ _______ _______ _____ _____    ______ ____
ROOT
ATOM      1  C   UNL     1      38.890  -0.576  14.565  0.00  0.00    +0.000 A 
ATOM      2  C   UNL     1      38.872   0.818  14.579  0.00  0.00    +0.000 A 
ATOM      3  C   UNL     1      37.829   1.480  15.164  0.00  0.00    +0.000 A 
ATOM      4  C   UNL     1      36.813   0.753  15.730  0.00  0.00    +0.000 A 
ATOM      5  C   UNL     1      35.769   1.426  16.315  0.00  0.00    +0.000 A 
ATOM      6  C   UNL     1      34.756   0.698  16.880  0.00  0.00    +0.000 A 
ATOM      7  C   UNL     1      34.748  -0.681  16.881  0.00  0.00    +0.000 A 
ATOM      8  C   UNL     1      35.820  -1.328  16.279  0.00  0.00    +0.000 A 
ATOM      9  C   UNL     1      36.836  -0.612  15.714  0.00  0.00    +0.000 A 
ATOM     10  N   UNL     1      37.869  -1.238  15.135  0.00  0.00    +0.000 NA
ENDROOT
BRANCH   1  15
ATOM     11  C   UNL     1      40.881  -2.626  12.152  0.00  0.00    +0.000 A 
ATOM     12  C   UNL     1      42.069  -2.748  12.815  0.00  0.00    +0.000 A 
ATOM     13  C   UNL     1      42.227  -2.164  14.049  0.00  0.00    +0.000 A 
ATOM     14  C   UNL     1      41.167  -1.451  14.611  0.00  0.00    +0.000 A 
ATOM     15  C   UNL     1      39.969  -1.318  13.961  0.00  0.00    +0.000 A 
ATOM     16  C   UNL     1      39.825  -1.907  12.729  0.00  0.00    +0.000 A 
BRANCH  11  17
ATOM     17  O   UNL     1      40.623  -3.177  10.904  0.00  0.00    +0.000 OA
BRANCH  17  19
ATOM     18  C   UNL     1      41.225  -3.088   8.553  0.00  0.00    +0.000 C 
ATOM     19  C   UNL     1      40.501  -2.445   9.721  0.00  0.00    +0.000 C 
ENDBRANCH  17  19
ENDBRANCH  11  17
ENDBRANCH   1  15
BRANCH   3  20
ATOM     20  C   UNL     1      37.795   2.966  15.187  0.00  0.00    +0.000 C 
ATOM     21  O   UNL     1      37.266   3.610  14.251  0.00  0.00    +0.000 OA
ATOM     22  N   UNL     1      38.359   3.689  16.266  0.00  0.00    +0.000 NA
BRANCH  22  23
ATOM     23  C   UNL     1      38.374   5.132  16.379  0.00  0.00    +0.000 C 
BRANCH  23  24
ATOM     24  C   UNL     1      39.438   5.606  17.298  0.00  0.00    +0.000 A 
ATOM     25  C   UNL     1      39.164   5.674  18.636  0.00  0.00    +0.000 A 
ATOM     26  C   UNL     1      40.120   6.104  19.513  0.00  0.00    +0.000 A 
ATOM     27  C   UNL     1      41.366   6.477  19.089  0.00  0.00    +0.000 A 
ATOM     28  C   UNL     1      41.630   6.403  17.724  0.00  0.00    +0.000 A 
ATOM     29  C   UNL     1      40.670   5.971  16.846  0.00  0.00    +0.000 A 
BRANCH  29  30
ATOM     30  O   UNL     1      40.952   5.904  15.489  0.00  0.00    +0.000 OA
ATOM     31  C   UNL     1      41.846   6.774  14.836  0.00  0.00    +0.000 C 
ENDBRANCH  29  30
ENDBRANCH  23  24
ENDBRANCH  22  23
ENDBRANCH   3  20
TORSDOF 7
ENDMDL
MODEL 7
REMARK VINA RESULT:      -7.2      3.566      6.316
REMARK  Name = 
REMARK  7 active torsions:
REMARK  status: ('A' for Active; 'I' for Inactive)
REMARK    1  A    between atoms: C_2  and  O_3
REMARK    2  A    between atoms: O_3  and  C_4
REMARK    3  A    between atoms: C_8  and  C_9
REMARK    4  A    between atoms: C_11  and  C_12
REMARK    5  A    between atoms: N_14  and  C_15
REMARK    6  A    between atoms: C_15  and  C_16
REMARK    7  A    between atoms: C_21  and  O_22
REMARK                            x       y       z     vdW  Elec       q    Type
REMARK                         _______ _______ _______ _____ _____    ______ ____
ROOT
ATOM      1  C   UNL     1      41.657   6.805  19.950  0.00  0.00    +0.000 A 
ATOM      2  C   UNL     1      40.954   5.961  19.091  0.00  0.00    +0.000 A 
ATOM      3  C   UNL     1      39.658   6.248  18.764  0.00  0.00    +0.000 A 
ATOM      4  C   UNL     1      39.072   7.370  19.292  0.00  0.00    +0.000 A 
ATOM      5  C   UNL     1      37.770   7.651  18.958  0.00  0.00    +0.000 A 
ATOM      6  C   UNL     1      37.187   8.772  19.486  0.00  0.00    +0.000 A 
ATOM      7  C   UNL     1      37.858   9.624  20.337  0.00  0.00    +0.000 A 
ATOM      8  C   UNL     1      39.174   9.308  20.654  0.00  0.00    +0.000 A 
ATOM      9  C   UNL     1      39.765   8.193  20.132  0.00  0.00    +0.000 A 
ATOM     10  N   UNL     1      41.034   7.891  20.438  0.00  0.00    +0.000 NA
ENDROOT
BRANCH   1  15
ATOM     11  C   UNL     1      44.665   5.612  21.827  0.00  0.00    +0.000 A 
ATOM     12  C   UNL     1      45.679   6.052  21.023  0.00  0.00    +0.000 A 
ATOM     13  C   UNL     1      45.387   6.737  19.868  0.00  0.00    +0.000 A 
ATOM     14  C   UNL     1      44.055   6.977  19.530  0.00  0.00    +0.000 A 
ATOM     15  C   UNL     1      43.026   6.543  20.323  0.00  0.00    +0.000 A 
ATOM     16  C   UNL     1      43.330   5.860  21.474  0.00  0.00    +0.000 A 
BRANCH  11  17
ATOM     17  O   UNL     1      44.855   4.912  23.010  0.00  0.00    +0.000 OA
BRANCH  17  19
ATOM     18  C   UNL     1      44.127   5.943  25.086  0.00  0.00    +0.000 C 
ATOM     19  C   UNL     1      45.279   5.483  24.213  0.00  0.00    +0.000 C 
ENDBRANCH  17  19
ENDBRANCH  11  17
ENDBRANCH   1  15
BRANCH   3  20
ATOM     20  C   UNL     1      38.896   5.359  17.850  0.00  0.00    +0.000 C 
ATOM     21  O   UNL     1      38.431   4.268  18.255  0.00  0.00    +0.000 OA
ATOM     22  N   UNL     1      38.674   5.724  16.499  0.00  0.00    +0.000 NA
BRANCH  22  23
ATOM     23  C   UNL     1      37.945   4.927  15.535  0.00  0.00    +0.000 C 
BRANCH  23  24
ATOM     24  C   UNL     1      38.835   4.006  14.787  0.00  0.00    +0.000 A 
ATOM     25  C   UNL     1      39.769   4.541  13.944  0.00  0.00    +0.000 A 
ATOM     26  C   UNL     1      40.609   3.725  13.239  0.00  0.00    +0.000 A 
ATOM     27  C   UNL     1      40.545   2.363  13.352  0.00  0.00    +0.000 A 
ATOM     28  C   UNL     1      39.590   1.833  14.215  0.00  0.00    +0.000 A 
ATOM     29  C   UNL     1      38.749   2.654  14.920  0.00  0.00    +0.000 A 
BRANCH  29  30
ATOM     30  O   UNL     1      37.802   2.107  15.774  0.00  0.00    +0.000 OA
ATOM     31  C   UNL     1      36.578   1.565  15.337  0.00  0.00    +0.000 C 
ENDBRANCH  29  30
ENDBRANCH  23  24
ENDBRANCH  22  23
ENDBRANCH   3  20
TORSDOF 7
ENDMDL
MODEL 8
REMARK VINA RESULT:      -7.2      3.007      9.667
REMARK  Name = 
REMARK  7 active torsions:
REMARK  status: ('A' for Active; 'I' for Inactive)
REMARK    1  A    between atoms: C_2  and  O_3
REMARK    2  A    between atoms: O_3  and  C_4
REMARK    3  A    between atoms: C_8  and  C_9
REMARK    4  A    between atoms: C_11  and  C_12
REMARK    5  A    between atoms: N_14  and  C_15
REMARK    6  A    between atoms: C_15  and  C_16
REMARK    7  A    between atoms: C_21  and  O_22
REMARK                            x       y       z     vdW  Elec       q    Type
REMARK                         _______ _______ _______ _____ _____    ______ ____
ROOT
ATOM      1  C   UNL     1      39.200  -2.218  14.894  0.00  0.00    +0.000 A 
ATOM      2  C   UNL     1      38.268  -1.183  14.941  0.00  0.00    +0.000 A 
ATOM      3  C   UNL     1      37.596  -0.923  16.103  0.00  0.00    +0.000 A 
ATOM      4  C   UNL     1      37.856  -1.692  17.208  0.00  0.00    +0.000 A 
ATOM      5  C   UNL     1      37.176  -1.425  18.371  0.00  0.00    +0.000 A 
ATOM      6  C   UNL     1      37.437  -2.195  19.473  0.00  0.00    +0.000 A 
ATOM      7  C   UNL     1      38.354  -3.225  19.455  0.00  0.00    +0.000 A 
ATOM      8  C   UNL     1      39.022  -3.468  18.261  0.00  0.00    +0.000 A 
ATOM      9  C   UNL     1      38.769  -2.705  17.156  0.00  0.00    +0.000 A 
ATOM     10  N   UNL     1      39.415  -2.941  16.007  0.00  0.00    +0.000 NA
ENDROOT
BRANCH   1  15
ATOM     11  C   UNL     1      41.961  -3.183  12.563  0.00  0.00    +0.000 A 
ATOM     12  C   UNL     1      41.329  -3.124  11.353  0.00  0.00    +0.000 A 
ATOM     13  C   UNL     1      40.002  -2.770  11.292  0.00  0.00    +0.000 A 
ATOM     14  C   UNL     1      39.315  -2.475  12.470  0.00  0.00    +0.000 A 
ATOM     15  C   UNL     1      39.933  -2.529  13.692  0.00  0.00    +0.000 A 
ATOM     16  C   UNL     1      41.259  -2.884  13.739  0.00  0.00    +0.000 A 
BRANCH  11  17
ATOM     17  O   UNL     1      43.295  -3.529  12.730  0.00  0.00    +0.000 OA
BRANCH  17  19
ATOM     18  C   UNL     1      44.731  -1.642  12.205  0.00  0.00    +0.000 C 
ATOM     19  C   UNL     1      44.283  -2.674  13.223  0.00  0.00    +0.000 C 
ENDBRANCH  17  19
ENDBRANCH  11  17
ENDBRANCH   1  15
BRANCH   3  20
ATOM     20  C   UNL     1      36.600   0.178  16.169  0.00  0.00    +0.000 C 
ATOM     21  O   UNL     1      35.400  -0.023  15.865  0.00  0.00    +0.000 OA
ATOM     22  N   UNL     1      36.981   1.479  16.579  0.00  0.00    +0.000 NA
BRANCH  22  23
ATOM     23  C   UNL     1      36.085   2.612  16.676  0.00  0.00    +0.000 C 
BRANCH  23  24
ATOM     24  C   UNL     1      36.443   3.687  15.718  0.00  0.00    +0.000 A 
ATOM     25  C   UNL     1      35.572   3.977  14.704  0.00  0.00    +0.000 A 
ATOM     26  C   UNL     1      35.866   4.962  13.804  0.00  0.00    +0.000 A 
ATOM     27  C   UNL     1      37.026   5.683  13.884  0.00  0.00    +0.000 A 
ATOM     28  C   UNL     1      37.904   5.377  14.921  0.00  0.00    +0.000 A 
ATOM     29  C   UNL     1      37.606   4.388  15.823  0.00  0.00    +0.000 A 
BRANCH  29  30
ATOM     30  O   UNL     1      38.493   4.098  16.850  0.00  0.00    +0.000 OA
ATOM     31  C   UNL     1      38.722   4.952  17.946  0.00  0.00    +0.000 C 
ENDBRANCH  29  30
ENDBRANCH  23  24
ENDBRANCH  22  23
ENDBRANCH   3  20
TORSDOF 7
ENDMDL
MODEL 9
REMARK VINA RESULT:      -7.2      1.990      2.744
REMARK  Name = 
REMARK  7 active torsions:
REMARK  status: ('A' for Active; 'I' for Inactive)
REMARK    1  A    between atoms: C_2  and  O_3
REMARK    2  A    between atoms: O_3  and  C_4
REMARK    3  A    between atoms: C_8  and  C_9
REMARK    4  A    between atoms: C_11  and  C_12
REMARK    5  A    between atoms: N_14  and  C_15
REMARK    6  A    between atoms: C_15  and  C_16
REMARK    7  A    between atoms: C_21  and  O_22
REMARK                            x       y       z     vdW  Elec       q    Type
REMARK                         _______ _______ _______ _____ _____    ______ ____
ROOT
ATOM      1  C   UNL     1      39.238   5.610  16.809  0.00  0.00    +0.000 A 
ATOM      2  C   UNL     1      38.420   4.504  16.585  0.00  0.00    +0.000 A 
ATOM      3  C   UNL     1      38.557   3.777  15.436  0.00  0.00    +0.000 A 
ATOM      4  C   UNL     1      39.506   4.152  14.520  0.00  0.00    +0.000 A 
ATOM      5  C   UNL     1      39.637   3.416  13.368  0.00  0.00    +0.000 A 
ATOM      6  C   UNL     1      40.585   3.794  12.455  0.00  0.00    +0.000 A 
ATOM      7  C   UNL     1      41.408   4.883  12.651  0.00  0.00    +0.000 A 
ATOM      8  C   UNL     1      41.247   5.605  13.827  0.00  0.00    +0.000 A 
ATOM      9  C   UNL     1      40.304   5.237  14.745  0.00  0.00    +0.000 A 
ATOM     10  N   UNL     1      40.151   5.933  15.878  0.00  0.00    +0.000 NA
ENDROOT
BRANCH   1  15
ATOM     11  C   UNL     1      38.170   8.239  19.246  0.00  0.00    +0.000 A 
ATOM     12  C   UNL     1      38.942   7.933  20.332  0.00  0.00    +0.000 A 
ATOM     13  C   UNL     1      39.812   6.871  20.275  0.00  0.00    +0.000 A 
ATOM     14  C   UNL     1      39.896   6.115  19.104  0.00  0.00    +0.000 A 
ATOM     15  C   UNL     1      39.130   6.407  18.007  0.00  0.00    +0.000 A 
ATOM     16  C   UNL     1      38.265   7.471  18.077  0.00  0.00    +0.000 A 
BRANCH  11  17
ATOM     17  O   UNL     1      37.263   9.289  19.204  0.00  0.00    +0.000 OA
BRANCH  17  19
ATOM     18  C   UNL     1      38.562  11.097  18.236  0.00  0.00    +0.000 C 
ATOM     19  C   UNL     1      37.602  10.639  19.317  0.00  0.00    +0.000 C 
ENDBRANCH  17  19
ENDBRANCH  11  17
ENDBRANCH   1  15
BRANCH   3  20
ATOM     20  C   UNL     1      37.692   2.595  15.183  0.00  0.00    +0.000 C 
ATOM     21  O   UNL     1      36.569   2.725  14.641  0.00  0.00    +0.000 OA
ATOM     22  N   UNL     1      38.116   1.293  15.545  0.00  0.00    +0.000 NA
BRANCH  22  23
ATOM     23  C   UNL     1      37.347   0.084  15.339  0.00  0.00    +0.000 C 
BRANCH  23  24
ATOM     24  C   UNL     1      38.131  -1.134  15.657  0.00  0.00    +0.000 A 
ATOM     25  C   UNL     1      38.851  -1.729  14.658  0.00  0.00    +0.000 A 
ATOM     26  C   UNL     1      39.587  -2.852  14.914  0.00  0.00    +0.000 A 
ATOM     27  C   UNL     1      39.629  -3.412  16.162  0.00  0.00    +0.000 A 
ATOM     28  C   UNL     1      38.892  -2.795  17.169  0.00  0.00    +0.000 A 
ATOM     29  C   UNL     1      38.154  -1.669  16.910  0.00  0.00    +0.000 A 
BRANCH  29  30
ATOM     30  O   UNL     1      37.426  -1.069  17.926  0.00  0.00    +0.000 OA
ATOM     31  C   UNL     1      37.459  -1.500  19.267  0.00  0.00    +0.000 C 
ENDBRANCH  29  30
ENDBRANCH  23  24
ENDBRANCH  22  23
ENDBRANCH   3  20
TORSDOF 7
ENDMDL
MODEL 10
REMARK VINA RESULT:      -7.2      3.024      9.049
REMARK  Name = 
REMARK  7 active torsions:
REMARK  status: ('A' for Active; 'I' for Inactive)
REMARK    1  A    between atoms: C_2  and  O_3
REMARK    2  A    between atoms: O_3  and  C_4
REMARK    3  A    between atoms: C_8  and  C_9
REMARK    4  A    between atoms: C_11  and  C_12
REMARK    5  A    between atoms: N_14  and  C_15
REMARK    6  A    between atoms: C_15  and  C_16
REMARK    7  A    between atoms: C_21  and  O_22
REMARK                            x       y       z     vdW  Elec       q    Type
REMARK                         _______ _______ _______ _____ _____    ______ ____
ROOT
ATOM      1  C   UNL     1      36.351   2.215  15.945  0.00  0.00    +0.000 A 
ATOM      2  C   UNL     1      35.882   2.982  14.881  0.00  0.00    +0.000 A 
ATOM      3  C   UNL     1      36.304   4.275  14.734  0.00  0.00    +0.000 A 
ATOM      4  C   UNL     1      37.189   4.793  15.645  0.00  0.00    +0.000 A 
ATOM      5  C   UNL     1      37.608   6.091  15.491  0.00  0.00    +0.000 A 
ATOM      6  C   UNL     1      38.491   6.606  16.402  0.00  0.00    +0.000 A 
ATOM      7  C   UNL     1      38.972   5.869  17.464  0.00  0.00    +0.000 A 
ATOM      8  C   UNL     1      38.525   4.559  17.589  0.00  0.00    +0.000 A 
ATOM      9  C   UNL     1      37.645   4.036  16.686  0.00  0.00    +0.000 A 
ATOM     10  N   UNL     1      37.217   2.772  16.808  0.00  0.00    +0.000 NA
ENDROOT
BRANCH   1  15
ATOM     11  C   UNL     1      36.135  -1.510  15.673  0.00  0.00    +0.000 A 
ATOM     12  C   UNL     1      35.110  -1.786  16.532  0.00  0.00    +0.000 A 
ATOM     13  C   UNL     1      34.485  -0.762  17.204  0.00  0.00    +0.000 A 
ATOM     14  C   UNL     1      34.908   0.552  16.998  0.00  0.00    +0.000 A 
ATOM     15  C   UNL     1      35.934   0.848  16.140  0.00  0.00    +0.000 A 
ATOM     16  C   UNL     1      36.549  -0.185  15.475  0.00  0.00    +0.000 A 
BRANCH  11  17
ATOM     17  O   UNL     1      36.828  -2.470  14.950  0.00  0.00    +0.000 OA
BRANCH  17  19
ATOM     18  C   UNL     1      38.743  -2.699  16.427  0.00  0.00    +0.000 C 
ATOM     19  C   UNL     1      37.748  -3.368  15.496  0.00  0.00    +0.000 C 
ENDBRANCH  17  19
ENDBRANCH  11  17
ENDBRANCH   1  15
BRANCH   3  20
ATOM     20  C   UNL     1      35.813   5.106  13.604  0.00  0.00    +0.000 C 
ATOM     21  O   UNL     1      36.383   5.072  12.488  0.00  0.00    +0.000 OA
ATOM     22  N   UNL     1      34.691   5.955  13.761  0.00  0.00    +0.000 NA
BRANCH  22  23
ATOM     23  C   UNL     1      34.139   6.799  12.722  0.00  0.00    +0.000 C 
BRANCH  23  24
ATOM     24  C   UNL     1      34.190   8.235  13.087  0.00  0.00    +0.000 A 
ATOM     25  C   UNL     1      33.988   8.586  14.394  0.00  0.00    +0.000 A 
ATOM     26  C   UNL     1      34.030   9.899  14.770  0.00  0.00    +0.000 A 
ATOM     27  C   UNL     1      34.270  10.896  13.863  0.00  0.00    +0.000 A 
ATOM     28  C   UNL     1      34.474  10.524  12.537  0.00  0.00    +0.000 A 
ATOM     29  C   UNL     1      34.432   9.206  12.163  0.00  0.00    +0.000 A 
BRANCH  29  30
ATOM     30  O   UNL     1      34.636   8.856  10.837  0.00  0.00    +0.000 OA
ATOM     31  C   UNL     1      35.406   9.620   9.939  0.00  0.00    +0.000 C 
ENDBRANCH  29  30
ENDBRANCH  23  24
ENDBRANCH  22  23
ENDBRANCH   3  20
TORSDOF 7
ENDMDL
