MODEL 1
REMARK VINA RESULT:      -6.0      0.000      0.000
REMARK  Name = 
REMARK  2 active torsions:
REMARK  status: ('A' for Active; 'I' for Inactive)
REMARK    1  A    between atoms: C_6  and  C_7
REMARK    2  A    between atoms: N_11  and  C_12
REMARK                            x       y       z     vdW  Elec       q    Type
REMARK                         _______ _______ _______ _____ _____    ______ ____
ROOT
ATOM      1  C   UNL     1      19.266  -9.587  30.948  0.00  0.00    +0.000 C 
ATOM      2  C   UNL     1      18.271  -9.921  29.895  0.00  0.00    +0.000 A 
ATOM      3  C   UNL     1      17.409 -11.004  30.004  0.00  0.00    +0.000 A 
ATOM      4  C   UNL     1      16.500 -11.286  29.013  0.00  0.00    +0.000 A 
ATOM      5  C   UNL     1      15.544 -12.423  29.050  0.00  0.00    +0.000 C 
ATOM      6  C   UNL     1      16.475 -10.457  27.910  0.00  0.00    +0.000 A 
ATOM      7  C   UNL     1      17.350  -9.367  27.810  0.00  0.00    +0.000 A 
ATOM      8  N   UNL     1      17.273  -8.546  26.641  0.00  0.00    +0.000 NA
ATOM      9  N   UNL     1      18.204  -9.151  28.806  0.00  0.00    +0.000 NA
ENDROOT
BRANCH   8  10
ATOM     10  C   UNL     1      18.125  -7.420  26.463  0.00  0.00    +0.000 A 
ATOM     11  C   UNL     1      17.741  -6.183  26.936  0.00  0.00    +0.000 A 
ATOM     12  C   UNL     1      18.614  -5.134  26.730  0.00  0.00    +0.000 A 
ATOM     13  C   UNL     1      19.825  -5.270  26.087  0.00  0.00    +0.000 A 
ATOM     14  C   UNL     1      20.206  -6.524  25.612  0.00  0.00    +0.000 A 
ATOM     15 CL   UNL     1      21.728  -6.780  24.785  0.00  0.00    +0.000 Cl
ATOM     16  C   UNL     1      19.329  -7.578  25.819  0.00  0.00    +0.000 A 
ATOM     17  C   UNL     1      19.757  -8.912  25.303  0.00  0.00    +0.000 C 
ENDBRANCH   8  10
BRANCH   6  18
ATOM     18  C   UNL     1      15.535 -10.709  26.835  0.00  0.00    +0.000 C 
ATOM     19  N   UNL     1      15.918 -11.543  25.757  0.00  0.00    +0.000 NA
ATOM     20  O   UNL     1      14.400 -10.185  26.877  0.00  0.00    +0.000 OA
ENDBRANCH   6  18
TORSDOF 2
ENDMDL
MODEL 2
REMARK VINA RESULT:      -5.9     20.993     22.506
REMARK  Name = 
REMARK  2 active torsions:
REMARK  status: ('A' for Active; 'I' for Inactive)
REMARK    1  A    between atoms: C_6  and  C_7
REMARK    2  A    between atoms: N_11  and  C_12
REMARK                            x       y       z     vdW  Elec       q    Type
REMARK                         _______ _______ _______ _____ _____    ______ ____
ROOT
ATOM      1  C   UNL     1      15.926   9.145  40.761  0.00  0.00    +0.000 C 
ATOM      2  C   UNL     1      17.228   9.554  40.175  0.00  0.00    +0.000 A 
ATOM      3  C   UNL     1      18.440   9.294  40.803  0.00  0.00    +0.000 A 
ATOM      4  C   UNL     1      19.628   9.686  40.235  0.00  0.00    +0.000 A 
ATOM      5  C   UNL     1      20.965   9.449  40.839  0.00  0.00    +0.000 C 
ATOM      6  C   UNL     1      19.574  10.345  39.024  0.00  0.00    +0.000 A 
ATOM      7  C   UNL     1      18.347  10.603  38.400  0.00  0.00    +0.000 A 
ATOM      8  N   UNL     1      18.359  11.290  37.145  0.00  0.00    +0.000 NA
ATOM      9  N   UNL     1      17.235  10.195  39.004  0.00  0.00    +0.000 NA
ENDROOT
BRANCH   8  10
ATOM     10  C   UNL     1      17.157  11.589  36.446  0.00  0.00    +0.000 A 
ATOM     11  C   UNL     1      16.255  12.489  36.975  0.00  0.00    +0.000 A 
ATOM     12  C   UNL     1      15.111  12.733  36.246  0.00  0.00    +0.000 A 
ATOM     13  C   UNL     1      14.838  12.129  35.037  0.00  0.00    +0.000 A 
ATOM     14  C   UNL     1      15.754  11.222  34.508  0.00  0.00    +0.000 A 
ATOM     15 CL   UNL     1      15.482  10.413  32.979  0.00  0.00    +0.000 Cl
ATOM     16  C   UNL     1      16.905  10.976  35.241  0.00  0.00    +0.000 A 
ATOM     17  C   UNL     1      17.871  10.001  34.657  0.00  0.00    +0.000 C 
ENDBRANCH   8  10
BRANCH   6  18
ATOM     18  C   UNL     1      20.799  10.781  38.381  0.00  0.00    +0.000 C 
ATOM     19  N   UNL     1      21.433   9.931  37.444  0.00  0.00    +0.000 NA
ATOM     20  O   UNL     1      21.276  11.902  38.665  0.00  0.00    +0.000 OA
ENDBRANCH   6  18
TORSDOF 2
ENDMDL
MODEL 3
REMARK VINA RESULT:      -5.8      1.595      3.071
REMARK  Name = 
REMARK  2 active torsions:
REMARK  status: ('A' for Active; 'I' for Inactive)
REMARK    1  A    between atoms: C_6  and  C_7
REMARK    2  A    between atoms: N_11  and  C_12
REMARK                            x       y       z     vdW  Elec       q    Type
REMARK                         _______ _______ _______ _____ _____    ______ ____
ROOT
ATOM      1  C   UNL     1      14.488  -8.804  24.357  0.00  0.00    +0.000 C 
ATOM      2  C   UNL     1      15.128  -9.392  25.562  0.00  0.00    +0.000 A 
ATOM      3  C   UNL     1      14.644 -10.540  26.175  0.00  0.00    +0.000 A 
ATOM      4  C   UNL     1      15.259 -11.059  27.289  0.00  0.00    +0.000 A 
ATOM      5  C   UNL     1      14.807 -12.280  28.005  0.00  0.00    +0.000 C 
ATOM      6  C   UNL     1      16.370 -10.400  27.774  0.00  0.00    +0.000 A 
ATOM      7  C   UNL     1      16.850  -9.242  27.148  0.00  0.00    +0.000 A 
ATOM      8  N   UNL     1      18.007  -8.606  27.700  0.00  0.00    +0.000 NA
ATOM      9  N   UNL     1      16.208  -8.795  26.074  0.00  0.00    +0.000 NA
ENDROOT
BRANCH   8  10
ATOM     10  C   UNL     1      18.557  -7.428  27.124  0.00  0.00    +0.000 A 
ATOM     11  C   UNL     1      17.942  -6.209  27.322  0.00  0.00    +0.000 A 
ATOM     12  C   UNL     1      18.529  -5.107  26.736  0.00  0.00    +0.000 A 
ATOM     13  C   UNL     1      19.678  -5.173  25.978  0.00  0.00    +0.000 A 
ATOM     14  C   UNL     1      20.294  -6.408  25.782  0.00  0.00    +0.000 A 
ATOM     15 CL   UNL     1      21.756  -6.575  24.834  0.00  0.00    +0.000 Cl
ATOM     16  C   UNL     1      19.705  -7.516  26.372  0.00  0.00    +0.000 A 
ATOM     17  C   UNL     1      20.381  -8.827  26.149  0.00  0.00    +0.000 C 
ENDBRANCH   8  10
BRANCH   6  18
ATOM     18  C   UNL     1      17.058 -10.905  28.948  0.00  0.00    +0.000 C 
ATOM     19  N   UNL     1      16.631 -10.497  30.233  0.00  0.00    +0.000 NA
ATOM     20  O   UNL     1      18.018 -11.694  28.804  0.00  0.00    +0.000 OA
ENDBRANCH   6  18
TORSDOF 2
ENDMDL
MODEL 4
REMARK VINA RESULT:      -5.8      3.533      4.782
REMARK  Name = 
REMARK  2 active torsions:
REMARK  status: ('A' for Active; 'I' for Inactive)
REMARK    1  A    between atoms: C_6  and  C_7
REMARK    2  A    between atoms: N_11  and  C_12
REMARK                            x       y       z     vdW  Elec       q    Type
REMARK                         _______ _______ _______ _____ _____    ______ ____
ROOT
ATOM      1  C   UNL     1      22.608 -10.999  27.889  0.00  0.00    +0.000 C 
ATOM      2  C   UNL     1      21.540 -10.044  27.496  0.00  0.00    +0.000 A 
ATOM      3  C   UNL     1      20.314  -9.991  28.147  0.00  0.00    +0.000 A 
ATOM      4  C   UNL     1      19.346  -9.096  27.760  0.00  0.00    +0.000 A 
ATOM      5  C   UNL     1      18.011  -8.974  28.401  0.00  0.00    +0.000 C 
ATOM      6  C   UNL     1      19.635  -8.255  26.705  0.00  0.00    +0.000 A 
ATOM      7  C   UNL     1      20.875  -8.316  26.055  0.00  0.00    +0.000 A 
ATOM      8  N   UNL     1      21.112  -7.417  24.968  0.00  0.00    +0.000 NA
ATOM      9  N   UNL     1      21.766  -9.205  26.481  0.00  0.00    +0.000 NA
ENDROOT
BRANCH   8  10
ATOM     10  C   UNL     1      22.344  -7.414  24.257  0.00  0.00    +0.000 A 
ATOM     11  C   UNL     1      23.369  -6.581  24.654  0.00  0.00    +0.000 A 
ATOM     12  C   UNL     1      24.536  -6.629  23.920  0.00  0.00    +0.000 A 
ATOM     13  C   UNL     1      24.715  -7.457  22.833  0.00  0.00    +0.000 A 
ATOM     14  C   UNL     1      23.675  -8.296  22.438  0.00  0.00    +0.000 A 
ATOM     15 CL   UNL     1      23.824  -9.377  21.069  0.00  0.00    +0.000 Cl
ATOM     16  C   UNL     1      22.502  -8.249  23.175  0.00  0.00    +0.000 A 
ATOM     17  C   UNL     1      21.401  -9.155  22.735  0.00  0.00    +0.000 C 
ENDBRANCH   8  10
BRANCH   6  18
ATOM     18  C   UNL     1      18.649  -7.290  26.256  0.00  0.00    +0.000 C 
ATOM     19  N   UNL     1      18.653  -5.985  26.803  0.00  0.00    +0.000 NA
ATOM     20  O   UNL     1      17.809  -7.628  25.392  0.00  0.00    +0.000 OA
ENDBRANCH   6  18
TORSDOF 2
ENDMDL
MODEL 5
REMARK VINA RESULT:      -5.8     22.206     23.705
REMARK  Name = 
REMARK  2 active torsions:
REMARK  status: ('A' for Active; 'I' for Inactive)
REMARK    1  A    between atoms: C_6  and  C_7
REMARK    2  A    between atoms: N_11  and  C_12
REMARK                            x       y       z     vdW  Elec       q    Type
REMARK                         _______ _______ _______ _____ _____    ______ ____
ROOT
ATOM      1  C   UNL     1      20.730  14.904  39.624  0.00  0.00    +0.000 C 
ATOM      2  C   UNL     1      21.305  13.699  38.973  0.00  0.00    +0.000 A 
ATOM      3  C   UNL     1      22.667  13.562  38.734  0.00  0.00    +0.000 A 
ATOM      4  C   UNL     1      23.168  12.434  38.130  0.00  0.00    +0.000 A 
ATOM      5  C   UNL     1      24.607  12.208  37.838  0.00  0.00    +0.000 C 
ATOM      6  C   UNL     1      22.274  11.447  37.770  0.00  0.00    +0.000 A 
ATOM      7  C   UNL     1      20.902  11.596  38.015  0.00  0.00    +0.000 A 
ATOM      8  N   UNL     1      20.027  10.535  37.618  0.00  0.00    +0.000 NA
ATOM      9  N   UNL     1      20.485  12.712  38.604  0.00  0.00    +0.000 NA
ENDROOT
BRANCH   8  10
ATOM     10  C   UNL     1      18.623  10.607  37.832  0.00  0.00    +0.000 A 
ATOM     11  C   UNL     1      17.812  11.213  36.895  0.00  0.00    +0.000 A 
ATOM     12  C   UNL     1      16.459  11.247  37.165  0.00  0.00    +0.000 A 
ATOM     13  C   UNL     1      15.899  10.714  38.305  0.00  0.00    +0.000 A 
ATOM     14  C   UNL     1      16.725  10.103  39.247  0.00  0.00    +0.000 A 
ATOM     15 CL   UNL     1      16.092   9.401  40.721  0.00  0.00    +0.000 Cl
ATOM     16  C   UNL     1      18.085  10.068  38.977  0.00  0.00    +0.000 A 
ATOM     17  C   UNL     1      18.950   9.410  39.999  0.00  0.00    +0.000 C 
ENDBRANCH   8  10
BRANCH   6  18
ATOM     18  C   UNL     1      22.750  10.236  37.129  0.00  0.00    +0.000 C 
ATOM     19  N   UNL     1      23.153   9.139  37.928  0.00  0.00    +0.000 NA
ATOM     20  O   UNL     1      22.797  10.180  35.881  0.00  0.00    +0.000 OA
ENDBRANCH   6  18
TORSDOF 2
ENDMDL
MODEL 6
REMARK VINA RESULT:      -5.7     21.544     22.572
REMARK  Name = 
REMARK  2 active torsions:
REMARK  status: ('A' for Active; 'I' for Inactive)
REMARK    1  A    between atoms: C_6  and  C_7
REMARK    2  A    between atoms: N_11  and  C_12
REMARK                            x       y       z     vdW  Elec       q    Type
REMARK                         _______ _______ _______ _____ _____    ______ ____
ROOT
ATOM      1  C   UNL     1      17.991  10.569  35.588  0.00  0.00    +0.000 C 
ATOM      2  C   UNL     1      18.376  10.221  36.980  0.00  0.00    +0.000 A 
ATOM      3  C   UNL     1      17.436   9.930  37.960  0.00  0.00    +0.000 A 
ATOM      4  C   UNL     1      17.825   9.612  39.239  0.00  0.00    +0.000 A 
ATOM      5  C   UNL     1      16.887   9.289  40.345  0.00  0.00    +0.000 C 
ATOM      6  C   UNL     1      19.177   9.590  39.512  0.00  0.00    +0.000 A 
ATOM      7  C   UNL     1      20.117   9.885  38.516  0.00  0.00    +0.000 A 
ATOM      8  N   UNL     1      21.504   9.845  38.864  0.00  0.00    +0.000 NA
ATOM      9  N   UNL     1      19.673  10.185  37.300  0.00  0.00    +0.000 NA
ENDROOT
BRANCH   8  10
ATOM     10  C   UNL     1      22.521  10.130  37.911  0.00  0.00    +0.000 A 
ATOM     11  C   UNL     1      22.853   9.194  36.954  0.00  0.00    +0.000 A 
ATOM     12  C   UNL     1      23.847   9.535  36.060  0.00  0.00    +0.000 A 
ATOM     13  C   UNL     1      24.506  10.745  36.085  0.00  0.00    +0.000 A 
ATOM     14  C   UNL     1      24.166  11.686  37.054  0.00  0.00    +0.000 A 
ATOM     15 CL   UNL     1      24.956  13.245  37.152  0.00  0.00    +0.000 Cl
ATOM     16  C   UNL     1      23.166  11.344  37.952  0.00  0.00    +0.000 A 
ATOM     17  C   UNL     1      22.818  12.366  38.983  0.00  0.00    +0.000 C 
ENDBRANCH   8  10
BRANCH   6  18
ATOM     18  C   UNL     1      19.642   9.260  40.847  0.00  0.00    +0.000 C 
ATOM     19  N   UNL     1      19.895  10.300  41.772  0.00  0.00    +0.000 NA
ATOM     20  O   UNL     1      19.812   8.060  41.157  0.00  0.00    +0.000 OA
ENDBRANCH   6  18
TORSDOF 2
ENDMDL
MODEL 7
REMARK VINA RESULT:      -5.7     33.730     35.886
REMARK  Name = 
REMARK  2 active torsions:
REMARK  status: ('A' for Active; 'I' for Inactive)
REMARK    1  A    between atoms: C_6  and  C_7
REMARK    2  A    between atoms: N_11  and  C_12
REMARK                            x       y       z     vdW  Elec       q    Type
REMARK                         _______ _______ _______ _____ _____    ______ ____
ROOT
ATOM      1  C   UNL     1      29.724  28.333  25.727  0.00  0.00    +0.000 C 
ATOM      2  C   UNL     1      29.474  27.347  24.644  0.00  0.00    +0.000 A 
ATOM      3  C   UNL     1      29.160  27.732  23.346  0.00  0.00    +0.000 A 
ATOM      4  C   UNL     1      28.934  26.795  22.367  0.00  0.00    +0.000 A 
ATOM      5  C   UNL     1      28.593  27.120  20.958  0.00  0.00    +0.000 C 
ATOM      6  C   UNL     1      29.029  25.464  22.717  0.00  0.00    +0.000 A 
ATOM      7  C   UNL     1      29.346  25.087  24.029  0.00  0.00    +0.000 A 
ATOM      8  N   UNL     1      29.430  23.690  24.327  0.00  0.00    +0.000 NA
ATOM      9  N   UNL     1      29.554  26.044  24.927  0.00  0.00    +0.000 NA
ENDROOT
BRANCH   8  10
ATOM     10  C   UNL     1      29.748  23.223  25.633  0.00  0.00    +0.000 A 
ATOM     11  C   UNL     1      31.065  23.061  26.007  0.00  0.00    +0.000 A 
ATOM     12  C   UNL     1      31.303  22.607  27.288  0.00  0.00    +0.000 A 
ATOM     13  C   UNL     1      30.300  22.315  28.187  0.00  0.00    +0.000 A 
ATOM     14  C   UNL     1      28.971  22.482  27.802  0.00  0.00    +0.000 A 
ATOM     15 CL   UNL     1      27.641  22.134  28.886  0.00  0.00    +0.000 Cl
ATOM     16  C   UNL     1      28.732  22.939  26.515  0.00  0.00    +0.000 A 
ATOM     17  C   UNL     1      27.302  23.110  26.124  0.00  0.00    +0.000 C 
ENDBRANCH   8  10
BRANCH   6  18
ATOM     18  C   UNL     1      28.801  24.434  21.721  0.00  0.00    +0.000 C 
ATOM     19  N   UNL     1      27.550  23.774  21.678  0.00  0.00    +0.000 NA
ATOM     20  O   UNL     1      29.714  24.145  20.917  0.00  0.00    +0.000 OA
ENDBRANCH   6  18
TORSDOF 2
ENDMDL
MODEL 8
REMARK VINA RESULT:      -5.6     21.449     22.470
REMARK  Name = 
REMARK  2 active torsions:
REMARK  status: ('A' for Active; 'I' for Inactive)
REMARK    1  A    between atoms: C_6  and  C_7
REMARK    2  A    between atoms: N_11  and  C_12
REMARK                            x       y       z     vdW  Elec       q    Type
REMARK                         _______ _______ _______ _____ _____    ______ ____
ROOT
ATOM      1  C   UNL     1      21.323   8.492  41.780  0.00  0.00    +0.000 C 
ATOM      2  C   UNL     1      20.402   9.014  40.738  0.00  0.00    +0.000 A 
ATOM      3  C   UNL     1      19.024   9.047  40.913  0.00  0.00    +0.000 A 
ATOM      4  C   UNL     1      18.199   9.536  39.929  0.00  0.00    +0.000 A 
ATOM      5  C   UNL     1      16.719   9.607  40.034  0.00  0.00    +0.000 C 
ATOM      6  C   UNL     1      18.786   9.991  38.766  0.00  0.00    +0.000 A 
ATOM      7  C   UNL     1      20.177   9.953  38.600  0.00  0.00    +0.000 A 
ATOM      8  N   UNL     1      20.723  10.439  37.370  0.00  0.00    +0.000 NA
ATOM      9  N   UNL     1      20.917   9.468  39.592  0.00  0.00    +0.000 NA
ENDROOT
BRANCH   8  10
ATOM     10  C   UNL     1      22.124  10.436  37.123  0.00  0.00    +0.000 A 
ATOM     11  C   UNL     1      22.701   9.392  36.431  0.00  0.00    +0.000 A 
ATOM     12  C   UNL     1      24.064   9.452  36.226  0.00  0.00    +0.000 A 
ATOM     13  C   UNL     1      24.853  10.489  36.674  0.00  0.00    +0.000 A 
ATOM     14  C   UNL     1      24.263  11.541  37.372  0.00  0.00    +0.000 A 
ATOM     15 CL   UNL     1      25.196  12.895  37.974  0.00  0.00    +0.000 Cl
ATOM     16  C   UNL     1      22.893  11.481  37.578  0.00  0.00    +0.000 A 
ATOM     17  C   UNL     1      22.282  12.617  38.329  0.00  0.00    +0.000 C 
ENDBRANCH   8  10
BRANCH   6  18
ATOM     18  C   UNL     1      17.961  10.518  37.695  0.00  0.00    +0.000 C 
ATOM     19  N   UNL     1      17.472   9.641  36.698  0.00  0.00    +0.000 NA
ATOM     20  O   UNL     1      17.696  11.740  37.669  0.00  0.00    +0.000 OA
ENDBRANCH   6  18
TORSDOF 2
ENDMDL
MODEL 9
REMARK VINA RESULT:      -5.6     33.365     35.500
REMARK  Name = 
REMARK  2 active torsions:
REMARK  status: ('A' for Active; 'I' for Inactive)
REMARK    1  A    between atoms: C_6  and  C_7
REMARK    2  A    between atoms: N_11  and  C_12
REMARK                            x       y       z     vdW  Elec       q    Type
REMARK                         _______ _______ _______ _____ _____    ______ ____
ROOT
ATOM      1  C   UNL     1      27.215  27.974  26.015  0.00  0.00    +0.000 C 
ATOM      2  C   UNL     1      27.489  27.030  24.901  0.00  0.00    +0.000 A 
ATOM      3  C   UNL     1      27.332  27.388  23.568  0.00  0.00    +0.000 A 
ATOM      4  C   UNL     1      27.594  26.492  22.560  0.00  0.00    +0.000 A 
ATOM      5  C   UNL     1      27.453  26.793  21.112  0.00  0.00    +0.000 C 
ATOM      6  C   UNL     1      28.016  25.228  22.918  0.00  0.00    +0.000 A 
ATOM      7  C   UNL     1      28.170  24.877  24.266  0.00  0.00    +0.000 A 
ATOM      8  N   UNL     1      28.611  23.550  24.571  0.00  0.00    +0.000 NA
ATOM      9  N   UNL     1      27.901  25.793  25.191  0.00  0.00    +0.000 NA
ENDROOT
BRANCH   8  10
ATOM     10  C   UNL     1      28.794  23.115  25.913  0.00  0.00    +0.000 A 
ATOM     11  C   UNL     1      27.700  22.804  26.693  0.00  0.00    +0.000 A 
ATOM     12  C   UNL     1      27.948  22.387  27.984  0.00  0.00    +0.000 A 
ATOM     13  C   UNL     1      29.215  22.272  28.514  0.00  0.00    +0.000 A 
ATOM     14  C   UNL     1      30.316  22.588  27.720  0.00  0.00    +0.000 A 
ATOM     15 CL   UNL     1      31.957  22.468  28.318  0.00  0.00    +0.000 Cl
ATOM     16  C   UNL     1      30.067  23.006  26.421  0.00  0.00    +0.000 A 
ATOM     17  C   UNL     1      31.259  23.340  25.589  0.00  0.00    +0.000 C 
ENDBRANCH   8  10
BRANCH   6  18
ATOM     18  C   UNL     1      28.307  24.243  21.894  0.00  0.00    +0.000 C 
ATOM     19  N   UNL     1      29.560  24.271  21.238  0.00  0.00    +0.000 NA
ATOM     20  O   UNL     1      27.444  23.385  21.606  0.00  0.00    +0.000 OA
ENDBRANCH   6  18
TORSDOF 2
ENDMDL
MODEL 10
REMARK VINA RESULT:      -5.6     16.277     19.865
REMARK  Name = 
REMARK  2 active torsions:
REMARK  status: ('A' for Active; 'I' for Inactive)
REMARK    1  A    between atoms: C_6  and  C_7
REMARK    2  A    between atoms: N_11  and  C_12
REMARK                            x       y       z     vdW  Elec       q    Type
REMARK                         _______ _______ _______ _____ _____    ______ ____
ROOT
ATOM      1  C   UNL     1      24.910   5.276  12.975  0.00  0.00    +0.000 C 
ATOM      2  C   UNL     1      25.796   5.537  14.139  0.00  0.00    +0.000 A 
ATOM      3  C   UNL     1      26.872   6.413  14.072  0.00  0.00    +0.000 A 
ATOM      4  C   UNL     1      27.673   6.633  15.167  0.00  0.00    +0.000 A 
ATOM      5  C   UNL     1      28.841   7.550  15.181  0.00  0.00    +0.000 C 
ATOM      6  C   UNL     1      27.370   5.955  16.330  0.00  0.00    +0.000 A 
ATOM      7  C   UNL     1      26.283   5.074  16.386  0.00  0.00    +0.000 A 
ATOM      8  N   UNL     1      26.022   4.402  17.622  0.00  0.00    +0.000 NA
ATOM      9  N   UNL     1      25.548   4.908  15.291  0.00  0.00    +0.000 NA
ENDROOT
BRANCH   8  10
ATOM     10  C   UNL     1      24.937   3.492  17.763  0.00  0.00    +0.000 A 
ATOM     11  C   UNL     1      23.693   3.954  18.139  0.00  0.00    +0.000 A 
ATOM     12  C   UNL     1      22.686   3.019  18.256  0.00  0.00    +0.000 A 
ATOM     13  C   UNL     1      22.868   1.674  18.018  0.00  0.00    +0.000 A 
ATOM     14  C   UNL     1      24.127   1.215  17.638  0.00  0.00    +0.000 A 
ATOM     15 CL   UNL     1      24.440  -0.478  17.317  0.00  0.00    +0.000 Cl
ATOM     16  C   UNL     1      25.140   2.154  17.520  0.00  0.00    +0.000 A 
ATOM     17  C   UNL     1      26.481   1.641  17.113  0.00  0.00    +0.000 C 
ENDBRANCH   8  10
BRANCH   6  18
ATOM     18  C   UNL     1      28.183   6.150  17.516  0.00  0.00    +0.000 C 
ATOM     19  N   UNL     1      27.851   7.184  18.424  0.00  0.00    +0.000 NA
ATOM     20  O   UNL     1      29.166   5.402  17.716  0.00  0.00    +0.000 OA
ENDBRANCH   6  18
TORSDOF 2
ENDMDL
