MODEL 1
REMARK VINA RESULT:      -7.6      0.000      0.000
REMARK  Name = 
REMARK  6 active torsions:
REMARK  status: ('A' for Active; 'I' for Inactive)
REMARK    1  A    between atoms: O_2  and  C_3
REMARK    2  A    between atoms: C_5  and  C_6
REMARK    3  A    between atoms: C_16  and  O_17
REMARK    4  A    between atoms: O_17  and  C_18
REMARK    5  A    between atoms: C_18  and  C_19
REMARK    6  A    between atoms: C_27  and  O_28
REMARK                            x       y       z     vdW  Elec       q    Type
REMARK                         _______ _______ _______ _____ _____    ______ ____
ROOT
ATOM      1  C   UNL     1      36.439   0.492  14.529  0.00  0.00    +0.000 C 
ATOM      2  N   UNL     1      36.396  -0.092  15.976  0.00  0.00    +0.000 NA
ATOM      3  C   UNL     1      35.266   0.679  16.530  0.00  0.00    +0.000 C 
ATOM      4  C   UNL     1      35.738   2.105  16.824  0.00  0.00    +0.000 C 
ATOM      5  C   UNL     1      36.876   2.464  15.971  0.00  0.00    +0.000 A 
ATOM      6  C   UNL     1      37.279   1.758  14.870  0.00  0.00    +0.000 A 
ATOM      7  N   UNL     1      38.333   2.326  14.308  0.00  0.00    +0.000 NA
ATOM      8  C   UNL     1      38.679   3.446  15.019  0.00  0.00    +0.000 A 
ATOM      9  C   UNL     1      39.661   4.404  14.905  0.00  0.00    +0.000 A 
ATOM     10  C   UNL     1      39.742   5.447  15.820  0.00  0.00    +0.000 A 
ATOM     11  C   UNL     1      38.848   5.544  16.852  0.00  0.00    +0.000 A 
ATOM     12  C   UNL     1      37.872   4.578  16.951  0.00  0.00    +0.000 A 
ATOM     13  C   UNL     1      37.754   3.532  16.074  0.00  0.00    +0.000 A 
ENDROOT
BRANCH   1  16
ATOM     14  C   UNL     1      39.307  -1.979  14.623  0.00  0.00    +0.000 A 
ATOM     15  C   UNL     1      38.290  -1.143  14.989  0.00  0.00    +0.000 A 
ATOM     16  C   UNL     1      37.609  -0.457  14.010  0.00  0.00    +0.000 A 
ATOM     17  C   UNL     1      37.908  -0.583  12.721  0.00  0.00    +0.000 A 
ATOM     18  C   UNL     1      38.940  -1.434  12.376  0.00  0.00    +0.000 A 
ATOM     19  C   UNL     1      39.664  -2.150  13.302  0.00  0.00    +0.000 A 
ATOM     20  C   UNL     1      40.768  -3.063  12.968  0.00  0.00    +0.000 C 
BRANCH  14  22
ATOM     21  C   UNL     1      39.338  -3.249  16.718  0.00  0.00    +0.000 C 
ATOM     22  O   UNL     1      39.990  -2.667  15.614  0.00  0.00    +0.000 OA
ENDBRANCH  14  22
BRANCH  17  23
ATOM     23  O   UNL     1      37.190   0.133  11.759  0.00  0.00    +0.000 OA
ATOM     24  C   UNL     1      37.937   0.995  10.933  0.00  0.00    +0.000 C 
ENDBRANCH  17  23
ENDBRANCH   1  16
BRANCH  11  25
ATOM     25  O   UNL     1      38.870   6.548  17.791  0.00  0.00    +0.000 OA
BRANCH  25  26
ATOM     26  C   UNL     1      38.966   6.319  19.173  0.00  0.00    +0.000 C 
BRANCH  26  27
ATOM     27  C   UNL     1      40.216   6.917  19.706  0.00  0.00    +0.000 A 
ATOM     28  C   UNL     1      40.255   8.303  19.782  0.00  0.00    +0.000 A 
ATOM     29  C   UNL     1      41.433   8.849  20.284  0.00  0.00    +0.000 A 
ATOM     30  C   UNL     1      42.497   8.111  20.684  0.00  0.00    +0.000 A 
ATOM     31  C   UNL     1      42.424   6.736  20.595  0.00  0.00    +0.000 A 
ATOM     32  C   UNL     1      41.293   6.131  20.110  0.00  0.00    +0.000 A 
ENDBRANCH  26  27
ENDBRANCH  25  26
ENDBRANCH  11  25
TORSDOF 6
ENDMDL
MODEL 2
REMARK VINA RESULT:      -7.6      5.541     11.507
REMARK  Name = 
REMARK  6 active torsions:
REMARK  status: ('A' for Active; 'I' for Inactive)
REMARK    1  A    between atoms: O_2  and  C_3
REMARK    2  A    between atoms: C_5  and  C_6
REMARK    3  A    between atoms: C_16  and  O_17
REMARK    4  A    between atoms: O_17  and  C_18
REMARK    5  A    between atoms: C_18  and  C_19
REMARK    6  A    between atoms: C_27  and  O_28
REMARK                            x       y       z     vdW  Elec       q    Type
REMARK                         _______ _______ _______ _____ _____    ______ ____
ROOT
ATOM      1  C   UNL     1      37.970  -2.171  15.324  0.00  0.00    +0.000 C 
ATOM      2  N   UNL     1      38.241  -2.272  16.857  0.00  0.00    +0.000 NA
ATOM      3  C   UNL     1      39.113  -3.463  16.887  0.00  0.00    +0.000 C 
ATOM      4  C   UNL     1      38.251  -4.710  16.679  0.00  0.00    +0.000 C 
ATOM      5  C   UNL     1      37.025  -4.380  15.945  0.00  0.00    +0.000 A 
ATOM      6  C   UNL     1      36.807  -3.205  15.278  0.00  0.00    +0.000 A 
ATOM      7  N   UNL     1      35.609  -3.199  14.714  0.00  0.00    +0.000 NA
ATOM      8  C   UNL     1      34.975  -4.385  14.984  0.00  0.00    +0.000 A 
ATOM      9  C   UNL     1      33.750  -4.924  14.666  0.00  0.00    +0.000 A 
ATOM     10  C   UNL     1      33.398  -6.194  15.110  0.00  0.00    +0.000 A 
ATOM     11  C   UNL     1      34.263  -6.934  15.870  0.00  0.00    +0.000 A 
ATOM     12  C   UNL     1      35.486  -6.379  16.179  0.00  0.00    +0.000 A 
ATOM     13  C   UNL     1      35.874  -5.132  15.764  0.00  0.00    +0.000 A 
ENDROOT
BRANCH   1  16
ATOM     14  C   UNL     1      35.869   0.615  16.792  0.00  0.00    +0.000 A 
ATOM     15  C   UNL     1      36.611  -0.521  16.644  0.00  0.00    +0.000 A 
ATOM     16  C   UNL     1      37.116  -0.829  15.401  0.00  0.00    +0.000 A 
ATOM     17  C   UNL     1      36.904  -0.054  14.341  0.00  0.00    +0.000 A 
ATOM     18  C   UNL     1      36.150   1.090  14.517  0.00  0.00    +0.000 A 
ATOM     19  C   UNL     1      35.614   1.457  15.730  0.00  0.00    +0.000 A 
ATOM     20  C   UNL     1      34.807   2.668  15.949  0.00  0.00    +0.000 C 
BRANCH  14  22
ATOM     21  C   UNL     1      35.713   0.191  19.200  0.00  0.00    +0.000 C 
ATOM     22  O   UNL     1      35.363   0.919  18.046  0.00  0.00    +0.000 OA
ENDBRANCH  14  22
BRANCH  17  23
ATOM     23  O   UNL     1      37.435  -0.404  13.097  0.00  0.00    +0.000 OA
ATOM     24  C   UNL     1      38.464   0.420  12.602  0.00  0.00    +0.000 C 
ENDBRANCH  17  23
ENDBRANCH   1  16
BRANCH  11  25
ATOM     25  O   UNL     1      33.981  -8.195  16.340  0.00  0.00    +0.000 OA
BRANCH  25  26
ATOM     26  C   UNL     1      34.340  -9.374  15.667  0.00  0.00    +0.000 C 
BRANCH  26  27
ATOM     27  C   UNL     1      33.602  -9.477  14.383  0.00  0.00    +0.000 A 
ATOM     28  C   UNL     1      34.352  -9.314  13.225  0.00  0.00    +0.000 A 
ATOM     29  C   UNL     1      33.647  -9.413  12.029  0.00  0.00    +0.000 A 
ATOM     30  C   UNL     1      32.315  -9.652  11.954  0.00  0.00    +0.000 A 
ATOM     31  C   UNL     1      31.602  -9.808  13.125  0.00  0.00    +0.000 A 
ATOM     32  C   UNL     1      32.232  -9.723  14.339  0.00  0.00    +0.000 A 
ENDBRANCH  26  27
ENDBRANCH  25  26
ENDBRANCH  11  25
TORSDOF 6
ENDMDL
MODEL 3
REMARK VINA RESULT:      -7.5      2.425      8.519
REMARK  Name = 
REMARK  6 active torsions:
REMARK  status: ('A' for Active; 'I' for Inactive)
REMARK    1  A    between atoms: O_2  and  C_3
REMARK    2  A    between atoms: C_5  and  C_6
REMARK    3  A    between atoms: C_16  and  O_17
REMARK    4  A    between atoms: O_17  and  C_18
REMARK    5  A    between atoms: C_18  and  C_19
REMARK    6  A    between atoms: C_27  and  O_28
REMARK                            x       y       z     vdW  Elec       q    Type
REMARK                         _______ _______ _______ _____ _____    ______ ____
ROOT
ATOM      1  C   UNL     1      38.840   5.944  15.269  0.00  0.00    +0.000 C 
ATOM      2  N   UNL     1      40.232   5.278  15.508  0.00  0.00    +0.000 NA
ATOM      3  C   UNL     1      40.465   4.686  14.176  0.00  0.00    +0.000 C 
ATOM      4  C   UNL     1      39.587   3.440  14.030  0.00  0.00    +0.000 C 
ATOM      5  C   UNL     1      38.408   3.528  14.897  0.00  0.00    +0.000 A 
ATOM      6  C   UNL     1      37.984   4.668  15.524  0.00  0.00    +0.000 A 
ATOM      7  N   UNL     1      36.894   4.435  16.238  0.00  0.00    +0.000 NA
ATOM      8  C   UNL     1      36.544   3.115  16.112  0.00  0.00    +0.000 A 
ATOM      9  C   UNL     1      35.531   2.328  16.612  0.00  0.00    +0.000 A 
ATOM     10  C   UNL     1      35.455   0.980  16.282  0.00  0.00    +0.000 A 
ATOM     11  C   UNL     1      36.383   0.407  15.455  0.00  0.00    +0.000 A 
ATOM     12  C   UNL     1      37.389   1.209  14.964  0.00  0.00    +0.000 A 
ATOM     13  C   UNL     1      37.505   2.542  15.262  0.00  0.00    +0.000 A 
ENDROOT
BRANCH   1  16
ATOM     14  C   UNL     1      39.520   6.590  18.937  0.00  0.00    +0.000 A 
ATOM     15  C   UNL     1      39.551   6.069  17.675  0.00  0.00    +0.000 A 
ATOM     16  C   UNL     1      38.735   6.614  16.710  0.00  0.00    +0.000 A 
ATOM     17  C   UNL     1      37.919   7.631  16.968  0.00  0.00    +0.000 A 
ATOM     18  C   UNL     1      37.906   8.141  18.252  0.00  0.00    +0.000 A 
ATOM     19  C   UNL     1      38.694   7.644  19.265  0.00  0.00    +0.000 A 
ATOM     20  C   UNL     1      38.702   8.164  20.642  0.00  0.00    +0.000 C 
BRANCH  14  22
ATOM     21  C   UNL     1      41.693   6.414  20.057  0.00  0.00    +0.000 C 
ATOM     22  O   UNL     1      40.344   6.036  19.904  0.00  0.00    +0.000 OA
ENDBRANCH  14  22
BRANCH  17  23
ATOM     23  O   UNL     1      37.107   8.154  15.959  0.00  0.00    +0.000 OA
ATOM     24  C   UNL     1      37.416   9.455  15.518  0.00  0.00    +0.000 C 
ENDBRANCH  17  23
ENDBRANCH   1  16
BRANCH  11  25
ATOM     25  O   UNL     1      36.367  -0.917  15.088  0.00  0.00    +0.000 OA
BRANCH  25  26
ATOM     26  C   UNL     1      35.849  -1.942  15.896  0.00  0.00    +0.000 C 
BRANCH  26  27
ATOM     27  C   UNL     1      36.802  -2.267  16.988  0.00  0.00    +0.000 A 
ATOM     28  C   UNL     1      37.934  -2.987  16.626  0.00  0.00    +0.000 A 
ATOM     29  C   UNL     1      38.818  -3.283  17.659  0.00  0.00    +0.000 A 
ATOM     30  C   UNL     1      38.625  -2.912  18.948  0.00  0.00    +0.000 A 
ATOM     31  C   UNL     1      37.490  -2.198  19.271  0.00  0.00    +0.000 A 
ATOM     32  C   UNL     1      36.576  -1.871  18.304  0.00  0.00    +0.000 A 
ENDBRANCH  26  27
ENDBRANCH  25  26
ENDBRANCH  11  25
TORSDOF 6
ENDMDL
MODEL 4
REMARK VINA RESULT:      -7.5     25.270     28.217
REMARK  Name = 
REMARK  6 active torsions:
REMARK  status: ('A' for Active; 'I' for Inactive)
REMARK    1  A    between atoms: O_2  and  C_3
REMARK    2  A    between atoms: C_5  and  C_6
REMARK    3  A    between atoms: C_16  and  O_17
REMARK    4  A    between atoms: O_17  and  C_18
REMARK    5  A    between atoms: C_18  and  C_19
REMARK    6  A    between atoms: C_27  and  O_28
REMARK                            x       y       z     vdW  Elec       q    Type
REMARK                         _______ _______ _______ _____ _____    ______ ____
ROOT
ATOM      1  C   UNL     1      27.265  16.044  34.033  0.00  0.00    +0.000 C 
ATOM      2  N   UNL     1      28.300  17.146  34.423  0.00  0.00    +0.000 NA
ATOM      3  C   UNL     1      29.452  16.299  34.789  0.00  0.00    +0.000 C 
ATOM      4  C   UNL     1      29.188  15.674  36.161  0.00  0.00    +0.000 C 
ATOM      5  C   UNL     1      27.748  15.579  36.423  0.00  0.00    +0.000 A 
ATOM      6  C   UNL     1      26.771  15.742  35.478  0.00  0.00    +0.000 A 
ATOM      7  N   UNL     1      25.570  15.599  36.015  0.00  0.00    +0.000 NA
ATOM      8  C   UNL     1      25.700  15.332  37.354  0.00  0.00    +0.000 A 
ATOM      9  C   UNL     1      24.821  15.097  38.386  0.00  0.00    +0.000 A 
ATOM     10  C   UNL     1      25.288  14.849  39.672  0.00  0.00    +0.000 A 
ATOM     11  C   UNL     1      26.631  14.834  39.937  0.00  0.00    +0.000 A 
ATOM     12  C   UNL     1      27.497  15.070  38.892  0.00  0.00    +0.000 A 
ATOM     13  C   UNL     1      27.081  15.319  37.610  0.00  0.00    +0.000 A 
ENDROOT
BRANCH   1  16
ATOM     14  C   UNL     1      25.182  19.201  33.869  0.00  0.00    +0.000 A 
ATOM     15  C   UNL     1      26.131  18.279  34.206  0.00  0.00    +0.000 A 
ATOM     16  C   UNL     1      26.121  17.055  33.578  0.00  0.00    +0.000 A 
ATOM     17  C   UNL     1      25.217  16.742  32.655  0.00  0.00    +0.000 A 
ATOM     18  C   UNL     1      24.267  17.692  32.331  0.00  0.00    +0.000 A 
ATOM     19  C   UNL     1      24.219  18.935  32.919  0.00  0.00    +0.000 A 
ATOM     20  C   UNL     1      23.221  19.967  32.597  0.00  0.00    +0.000 C 
BRANCH  14  22
ATOM     21  C   UNL     1      26.233  20.821  35.378  0.00  0.00    +0.000 C 
ATOM     22  O   UNL     1      25.198  20.433  34.505  0.00  0.00    +0.000 OA
ENDBRANCH  14  22
BRANCH  17  23
ATOM     23  O   UNL     1      25.243  15.486  32.042  0.00  0.00    +0.000 OA
ATOM     24  C   UNL     1      24.566  14.449  32.712  0.00  0.00    +0.000 C 
ENDBRANCH  17  23
ENDBRANCH   1  16
BRANCH  11  25
ATOM     25  O   UNL     1      27.162  14.595  41.183  0.00  0.00    +0.000 OA
BRANCH  25  26
ATOM     26  C   UNL     1      26.847  13.469  41.960  0.00  0.00    +0.000 C 
BRANCH  26  27
ATOM     27  C   UNL     1      27.541  12.268  41.429  0.00  0.00    +0.000 A 
ATOM     28  C   UNL     1      26.775  11.115  41.308  0.00  0.00    +0.000 A 
ATOM     29  C   UNL     1      27.439   9.998  40.809  0.00  0.00    +0.000 A 
ATOM     30  C   UNL     1      28.747   9.993  40.453  0.00  0.00    +0.000 A 
ATOM     31  C   UNL     1      29.477  11.156  40.586  0.00  0.00    +0.000 A 
ATOM     32  C   UNL     1      28.886  12.295  41.071  0.00  0.00    +0.000 A 
ENDBRANCH  26  27
ENDBRANCH  25  26
ENDBRANCH  11  25
TORSDOF 6
ENDMDL
MODEL 5
REMARK VINA RESULT:      -7.4      1.949      8.711
REMARK  Name = 
REMARK  6 active torsions:
REMARK  status: ('A' for Active; 'I' for Inactive)
REMARK    1  A    between atoms: O_2  and  C_3
REMARK    2  A    between atoms: C_5  and  C_6
REMARK    3  A    between atoms: C_16  and  O_17
REMARK    4  A    between atoms: O_17  and  C_18
REMARK    5  A    between atoms: C_18  and  C_19
REMARK    6  A    between atoms: C_27  and  O_28
REMARK                            x       y       z     vdW  Elec       q    Type
REMARK                         _______ _______ _______ _____ _____    ______ ____
ROOT
ATOM      1  C   UNL     1      38.873   5.960  15.262  0.00  0.00    +0.000 C 
ATOM      2  N   UNL     1      40.293   5.344  15.462  0.00  0.00    +0.000 NA
ATOM      3  C   UNL     1      40.522   4.783  14.115  0.00  0.00    +0.000 C 
ATOM      4  C   UNL     1      39.689   3.508  13.964  0.00  0.00    +0.000 C 
ATOM      5  C   UNL     1      38.525   3.537  14.855  0.00  0.00    +0.000 A 
ATOM      6  C   UNL     1      38.070   4.649  15.511  0.00  0.00    +0.000 A 
ATOM      7  N   UNL     1      37.005   4.362  16.241  0.00  0.00    +0.000 NA
ATOM      8  C   UNL     1      36.702   3.032  16.099  0.00  0.00    +0.000 A 
ATOM      9  C   UNL     1      35.730   2.199  16.603  0.00  0.00    +0.000 A 
ATOM     10  C   UNL     1      35.698   0.854  16.252  0.00  0.00    +0.000 A 
ATOM     11  C   UNL     1      36.630   0.332  15.397  0.00  0.00    +0.000 A 
ATOM     12  C   UNL     1      37.596   1.180  14.901  0.00  0.00    +0.000 A 
ATOM     13  C   UNL     1      37.667   2.510  15.220  0.00  0.00    +0.000 A 
ENDROOT
BRANCH   1  16
ATOM     14  C   UNL     1      39.604   6.571  18.926  0.00  0.00    +0.000 A 
ATOM     15  C   UNL     1      39.629   6.073  17.655  0.00  0.00    +0.000 A 
ATOM     16  C   UNL     1      38.772   6.601  16.717  0.00  0.00    +0.000 A 
ATOM     17  C   UNL     1      37.921   7.580  17.009  0.00  0.00    +0.000 A 
ATOM     18  C   UNL     1      37.914   8.067  18.302  0.00  0.00    +0.000 A 
ATOM     19  C   UNL     1      38.743   7.585  19.289  0.00  0.00    +0.000 A 
ATOM     20  C   UNL     1      38.760   8.082  20.674  0.00  0.00    +0.000 C 
BRANCH  14  22
ATOM     21  C   UNL     1      41.831   6.390  19.931  0.00  0.00    +0.000 C 
ATOM     22  O   UNL     1      40.470   6.035  19.866  0.00  0.00    +0.000 OA
ENDBRANCH  14  22
BRANCH  17  23
ATOM     23  O   UNL     1      37.067   8.087  16.025  0.00  0.00    +0.000 OA
ATOM     24  C   UNL     1      37.402   9.348  15.496  0.00  0.00    +0.000 C 
ENDBRANCH  17  23
ENDBRANCH   1  16
BRANCH  11  25
ATOM     25  O   UNL     1      36.657  -0.986  15.007  0.00  0.00    +0.000 OA
BRANCH  25  26
ATOM     26  C   UNL     1      37.418  -1.974  15.652  0.00  0.00    +0.000 C 
BRANCH  26  27
ATOM     27  C   UNL     1      38.647  -2.266  14.871  0.00  0.00    +0.000 A 
ATOM     28  C   UNL     1      38.472  -2.525  13.518  0.00  0.00    +0.000 A 
ATOM     29  C   UNL     1      39.632  -2.798  12.799  0.00  0.00    +0.000 A 
ATOM     30  C   UNL     1      40.872  -2.819  13.346  0.00  0.00    +0.000 A 
ATOM     31  C   UNL     1      41.009  -2.558  14.694  0.00  0.00    +0.000 A 
ATOM     32  C   UNL     1      39.908  -2.281  15.462  0.00  0.00    +0.000 A 
ENDBRANCH  26  27
ENDBRANCH  25  26
ENDBRANCH  11  25
TORSDOF 6
ENDMDL
MODEL 6
REMARK VINA RESULT:      -7.3      4.534      9.052
REMARK  Name = 
REMARK  6 active torsions:
REMARK  status: ('A' for Active; 'I' for Inactive)
REMARK    1  A    between atoms: O_2  and  C_3
REMARK    2  A    between atoms: C_5  and  C_6
REMARK    3  A    between atoms: C_16  and  O_17
REMARK    4  A    between atoms: O_17  and  C_18
REMARK    5  A    between atoms: C_18  and  C_19
REMARK    6  A    between atoms: C_27  and  O_28
REMARK                            x       y       z     vdW  Elec       q    Type
REMARK                         _______ _______ _______ _____ _____    ______ ____
ROOT
ATOM      1  C   UNL     1      38.163  -1.378  16.386  0.00  0.00    +0.000 C 
ATOM      2  N   UNL     1      38.341  -2.853  15.906  0.00  0.00    +0.000 NA
ATOM      3  C   UNL     1      39.795  -2.866  15.651  0.00  0.00    +0.000 C 
ATOM      4  C   UNL     1      40.073  -2.118  14.345  0.00  0.00    +0.000 C 
ATOM      5  C   UNL     1      39.014  -1.143  14.067  0.00  0.00    +0.000 A 
ATOM      6  C   UNL     1      38.069  -0.737  14.970  0.00  0.00    +0.000 A 
ATOM      7  N   UNL     1      37.248   0.147  14.427  0.00  0.00    +0.000 NA
ATOM      8  C   UNL     1      37.618   0.370  13.126  0.00  0.00    +0.000 A 
ATOM      9  C   UNL     1      37.147   1.165  12.106  0.00  0.00    +0.000 A 
ATOM     10  C   UNL     1      37.767   1.162  10.862  0.00  0.00    +0.000 A 
ATOM     11  C   UNL     1      38.858   0.370  10.625  0.00  0.00    +0.000 A 
ATOM     12  C   UNL     1      39.317  -0.419  11.657  0.00  0.00    +0.000 A 
ATOM     13  C   UNL     1      38.737  -0.448  12.899  0.00  0.00    +0.000 A 
ENDROOT
BRANCH   1  16
ATOM     14  C   UNL     1      34.638  -2.757  16.373  0.00  0.00    +0.000 A 
ATOM     15  C   UNL     1      35.971  -2.579  16.139  0.00  0.00    +0.000 A 
ATOM     16  C   UNL     1      36.609  -1.504  16.714  0.00  0.00    +0.000 A 
ATOM     17  C   UNL     1      35.969  -0.634  17.489  0.00  0.00    +0.000 A 
ATOM     18  C   UNL     1      34.621  -0.836  17.711  0.00  0.00    +0.000 A 
ATOM     19  C   UNL     1      33.920  -1.888  17.168  0.00  0.00    +0.000 A 
ATOM     20  C   UNL     1      32.485  -2.130  17.385  0.00  0.00    +0.000 C 
BRANCH  14  22
ATOM     21  C   UNL     1      34.693  -4.823  15.057  0.00  0.00    +0.000 C 
ATOM     22  O   UNL     1      34.000  -3.842  15.792  0.00  0.00    +0.000 OA
ENDBRANCH  14  22
BRANCH  17  23
ATOM     23  O   UNL     1      36.657   0.444  18.052  0.00  0.00    +0.000 OA
ATOM     24  C   UNL     1      36.325   1.722  17.562  0.00  0.00    +0.000 C 
ENDBRANCH  17  23
ENDBRANCH   1  16
BRANCH  11  25
ATOM     25  O   UNL     1      39.519   0.319   9.421  0.00  0.00    +0.000 OA
BRANCH  25  26
ATOM     26  C   UNL     1      39.366   1.279   8.408  0.00  0.00    +0.000 C 
BRANCH  26  27
ATOM     27  C   UNL     1      38.538   0.732   7.303  0.00  0.00    +0.000 A 
ATOM     28  C   UNL     1      39.175  -0.138   6.427  0.00  0.00    +0.000 A 
ATOM     29  C   UNL     1      38.386  -0.643   5.397  0.00  0.00    +0.000 A 
ATOM     30  C   UNL     1      37.078  -0.332   5.224  0.00  0.00    +0.000 A 
ATOM     31  C   UNL     1      36.479   0.535   6.114  0.00  0.00    +0.000 A 
ATOM     32  C   UNL     1      37.196   1.070   7.153  0.00  0.00    +0.000 A 
ENDBRANCH  26  27
ENDBRANCH  25  26
ENDBRANCH  11  25
TORSDOF 6
ENDMDL
MODEL 7
REMARK VINA RESULT:      -7.3      1.648      2.085
REMARK  Name = 
REMARK  6 active torsions:
REMARK  status: ('A' for Active; 'I' for Inactive)
REMARK    1  A    between atoms: O_2  and  C_3
REMARK    2  A    between atoms: C_5  and  C_6
REMARK    3  A    between atoms: C_16  and  O_17
REMARK    4  A    between atoms: O_17  and  C_18
REMARK    5  A    between atoms: C_18  and  C_19
REMARK    6  A    between atoms: C_27  and  O_28
REMARK                            x       y       z     vdW  Elec       q    Type
REMARK                         _______ _______ _______ _____ _____    ______ ____
ROOT
ATOM      1  C   UNL     1      36.251   1.258  14.072  0.00  0.00    +0.000 C 
ATOM      2  N   UNL     1      35.559   1.449  15.459  0.00  0.00    +0.000 NA
ATOM      3  C   UNL     1      34.625   2.543  15.131  0.00  0.00    +0.000 C 
ATOM      4  C   UNL     1      35.412   3.852  15.036  0.00  0.00    +0.000 C 
ATOM      5  C   UNL     1      36.815   3.593  14.695  0.00  0.00    +0.000 A 
ATOM      6  C   UNL     1      37.299   2.399  14.235  0.00  0.00    +0.000 A 
ATOM      7  N   UNL     1      38.602   2.472  14.017  0.00  0.00    +0.000 NA
ATOM      8  C   UNL     1      39.043   3.733  14.324  0.00  0.00    +0.000 A 
ATOM      9  C   UNL     1      40.264   4.368  14.293  0.00  0.00    +0.000 A 
ATOM     10  C   UNL     1      40.380   5.698  14.682  0.00  0.00    +0.000 A 
ATOM     11  C   UNL     1      39.285   6.402  15.103  0.00  0.00    +0.000 A 
ATOM     12  C   UNL     1      38.071   5.751  15.128  0.00  0.00    +0.000 A 
ATOM     13  C   UNL     1      37.909   4.443  14.754  0.00  0.00    +0.000 A 
ENDROOT
BRANCH   1  16
ATOM     14  C   UNL     1      37.987  -1.240  16.326  0.00  0.00    +0.000 A 
ATOM     15  C   UNL     1      37.234  -0.196  15.869  0.00  0.00    +0.000 A 
ATOM     16  C   UNL     1      37.151   0.020  14.513  0.00  0.00    +0.000 A 
ATOM     17  C   UNL     1      37.780  -0.755  13.634  0.00  0.00    +0.000 A 
ATOM     18  C   UNL     1      38.534  -1.805  14.121  0.00  0.00    +0.000 A 
ATOM     19  C   UNL     1      38.662  -2.078  15.464  0.00  0.00    +0.000 A 
ATOM     20  C   UNL     1      39.458  -3.187  16.014  0.00  0.00    +0.000 C 
BRANCH  14  22
ATOM     21  C   UNL     1      36.945  -1.359  18.541  0.00  0.00    +0.000 C 
ATOM     22  O   UNL     1      38.066  -1.452  17.694  0.00  0.00    +0.000 OA
ENDBRANCH  14  22
BRANCH  17  23
ATOM     23  O   UNL     1      37.668  -0.500  12.265  0.00  0.00    +0.000 OA
ATOM     24  C   UNL     1      38.867  -0.215  11.582  0.00  0.00    +0.000 C 
ENDBRANCH  17  23
ENDBRANCH   1  16
BRANCH  11  25
ATOM     25  O   UNL     1      39.327   7.718  15.500  0.00  0.00    +0.000 OA
BRANCH  25  26
ATOM     26  C   UNL     1      38.973   8.153  16.788  0.00  0.00    +0.000 C 
BRANCH  26  27
ATOM     27  C   UNL     1      39.879   7.553  17.800  0.00  0.00    +0.000 A 
ATOM     28  C   UNL     1      39.269   6.897  18.862  0.00  0.00    +0.000 A 
ATOM     29  C   UNL     1      40.130   6.339  19.803  0.00  0.00    +0.000 A 
ATOM     30  C   UNL     1      41.482   6.410  19.725  0.00  0.00    +0.000 A 
ATOM     31  C   UNL     1      42.052   7.070  18.657  0.00  0.00    +0.000 A 
ATOM     32  C   UNL     1      41.264   7.643  17.693  0.00  0.00    +0.000 A 
ENDBRANCH  26  27
ENDBRANCH  25  26
ENDBRANCH  11  25
TORSDOF 6
ENDMDL
MODEL 8
REMARK VINA RESULT:      -7.2      2.898      4.339
REMARK  Name = 
REMARK  6 active torsions:
REMARK  status: ('A' for Active; 'I' for Inactive)
REMARK    1  A    between atoms: O_2  and  C_3
REMARK    2  A    between atoms: C_5  and  C_6
REMARK    3  A    between atoms: C_16  and  O_17
REMARK    4  A    between atoms: O_17  and  C_18
REMARK    5  A    between atoms: C_18  and  C_19
REMARK    6  A    between atoms: C_27  and  O_28
REMARK                            x       y       z     vdW  Elec       q    Type
REMARK                         _______ _______ _______ _____ _____    ______ ____
ROOT
ATOM      1  C   UNL     1      40.431  -2.287  13.687  0.00  0.00    +0.000 C 
ATOM      2  N   UNL     1      40.539  -2.435  15.237  0.00  0.00    +0.000 NA
ATOM      3  C   UNL     1      39.114  -2.321  15.606  0.00  0.00    +0.000 C 
ATOM      4  C   UNL     1      38.693  -0.854  15.500  0.00  0.00    +0.000 C 
ATOM      5  C   UNL     1      39.543  -0.135  14.547  0.00  0.00    +0.000 A 
ATOM      6  C   UNL     1      40.395  -0.730  13.656  0.00  0.00    +0.000 A 
ATOM      7  N   UNL     1      41.028   0.178  12.931  0.00  0.00    +0.000 NA
ATOM      8  C   UNL     1      40.617   1.429  13.312  0.00  0.00    +0.000 A 
ATOM      9  C   UNL     1      40.923   2.712  12.919  0.00  0.00    +0.000 A 
ATOM     10  C   UNL     1      40.311   3.804  13.526  0.00  0.00    +0.000 A 
ATOM     11  C   UNL     1      39.393   3.625  14.524  0.00  0.00    +0.000 A 
ATOM     12  C   UNL     1      39.098   2.334  14.905  0.00  0.00    +0.000 A 
ATOM     13  C   UNL     1      39.676   1.230  14.337  0.00  0.00    +0.000 A 
ENDROOT
BRANCH   1  16
ATOM     14  C   UNL     1      44.183  -2.162  14.172  0.00  0.00    +0.000 A 
ATOM     15  C   UNL     1      42.838  -2.008  14.348  0.00  0.00    +0.000 A 
ATOM     16  C   UNL     1      41.981  -2.512  13.397  0.00  0.00    +0.000 A 
ATOM     17  C   UNL     1      42.421  -3.145  12.314  0.00  0.00    +0.000 A 
ATOM     18  C   UNL     1      43.786  -3.289  12.158  0.00  0.00    +0.000 A 
ATOM     19  C   UNL     1      44.699  -2.809  13.068  0.00  0.00    +0.000 A 
ATOM     20  C   UNL     1      46.158  -2.945  12.931  0.00  0.00    +0.000 C 
BRANCH  14  22
ATOM     21  C   UNL     1      44.908  -0.350  15.653  0.00  0.00    +0.000 C 
ATOM     22  O   UNL     1      45.042  -1.652  15.133  0.00  0.00    +0.000 OA
ENDBRANCH  14  22
BRANCH  17  23
ATOM     23  O   UNL     1      41.515  -3.642  11.373  0.00  0.00    +0.000 OA
ATOM     24  C   UNL     1      42.059  -4.409  10.325  0.00  0.00    +0.000 C 
ENDBRANCH  17  23
ENDBRANCH   1  16
BRANCH  11  25
ATOM     25  O   UNL     1      38.750   4.657  15.166  0.00  0.00    +0.000 OA
BRANCH  25  26
ATOM     26  C   UNL     1      38.384   4.623  16.521  0.00  0.00    +0.000 C 
BRANCH  26  27
ATOM     27  C   UNL     1      39.381   5.356  17.341  0.00  0.00    +0.000 A 
ATOM     28  C   UNL     1      39.121   5.436  18.703  0.00  0.00    +0.000 A 
ATOM     29  C   UNL     1      40.064   6.126  19.459  0.00  0.00    +0.000 A 
ATOM     30  C   UNL     1      41.178   6.697  18.939  0.00  0.00    +0.000 A 
ATOM     31  C   UNL     1      41.404   6.597  17.582  0.00  0.00    +0.000 A 
ATOM     32  C   UNL     1      40.517   5.931  16.777  0.00  0.00    +0.000 A 
ENDBRANCH  26  27
ENDBRANCH  25  26
ENDBRANCH  11  25
TORSDOF 6
ENDMDL
MODEL 9
REMARK VINA RESULT:      -7.2      5.047     10.659
REMARK  Name = 
REMARK  6 active torsions:
REMARK  status: ('A' for Active; 'I' for Inactive)
REMARK    1  A    between atoms: O_2  and  C_3
REMARK    2  A    between atoms: C_5  and  C_6
REMARK    3  A    between atoms: C_16  and  O_17
REMARK    4  A    between atoms: O_17  and  C_18
REMARK    5  A    between atoms: C_18  and  C_19
REMARK    6  A    between atoms: C_27  and  O_28
REMARK                            x       y       z     vdW  Elec       q    Type
REMARK                         _______ _______ _______ _____ _____    ______ ____
ROOT
ATOM      1  C   UNL     1      38.007  -2.042  15.294  0.00  0.00    +0.000 C 
ATOM      2  N   UNL     1      38.273  -2.121  16.830  0.00  0.00    +0.000 NA
ATOM      3  C   UNL     1      39.182  -3.283  16.874  0.00  0.00    +0.000 C 
ATOM      4  C   UNL     1      38.362  -4.559  16.672  0.00  0.00    +0.000 C 
ATOM      5  C   UNL     1      37.131  -4.276  15.929  0.00  0.00    +0.000 A 
ATOM      6  C   UNL     1      36.878  -3.114  15.251  0.00  0.00    +0.000 A 
ATOM      7  N   UNL     1      35.684  -3.152  14.681  0.00  0.00    +0.000 NA
ATOM      8  C   UNL     1      35.088  -4.355  14.958  0.00  0.00    +0.000 A 
ATOM      9  C   UNL     1      33.882  -4.936  14.638  0.00  0.00    +0.000 A 
ATOM     10  C   UNL     1      33.569  -6.213  15.090  0.00  0.00    +0.000 A 
ATOM     11  C   UNL     1      34.453  -6.918  15.862  0.00  0.00    +0.000 A 
ATOM     12  C   UNL     1      35.655  -6.322  16.172  0.00  0.00    +0.000 A 
ATOM     13  C   UNL     1      36.006  -5.066  15.749  0.00  0.00    +0.000 A 
ENDROOT
BRANCH   1  16
ATOM     14  C   UNL     1      35.813   0.689  16.727  0.00  0.00    +0.000 A 
ATOM     15  C   UNL     1      36.592  -0.424  16.593  0.00  0.00    +0.000 A 
ATOM     16  C   UNL     1      37.110  -0.728  15.355  0.00  0.00    +0.000 A 
ATOM     17  C   UNL     1      36.875   0.028  14.286  0.00  0.00    +0.000 A 
ATOM     18  C   UNL     1      36.084   1.149  14.448  0.00  0.00    +0.000 A 
ATOM     19  C   UNL     1      35.534   1.511  15.656  0.00  0.00    +0.000 A 
ATOM     20  C   UNL     1      34.687   2.698  15.861  0.00  0.00    +0.000 C 
BRANCH  14  22
ATOM     21  C   UNL     1      35.663   0.285  19.140  0.00  0.00    +0.000 C 
ATOM     22  O   UNL     1      35.295   0.990  17.978  0.00  0.00    +0.000 OA
ENDBRANCH  14  22
BRANCH  17  23
ATOM     23  O   UNL     1      37.420  -0.318  13.047  0.00  0.00    +0.000 OA
ATOM     24  C   UNL     1      37.094   0.521  11.964  0.00  0.00    +0.000 C 
ENDBRANCH  17  23
ENDBRANCH   1  16
BRANCH  11  25
ATOM     25  O   UNL     1      34.210  -8.183  16.341  0.00  0.00    +0.000 OA
BRANCH  25  26
ATOM     26  C   UNL     1      33.850  -8.455  17.672  0.00  0.00    +0.000 C 
BRANCH  26  27
ATOM     27  C   UNL     1      34.991  -9.068  18.397  0.00  0.00    +0.000 A 
ATOM     28  C   UNL     1      34.994  -8.923  19.779  0.00  0.00    +0.000 A 
ATOM     29  C   UNL     1      36.070  -9.502  20.445  0.00  0.00    +0.000 A 
ATOM     30  C   UNL     1      37.071 -10.173  19.824  0.00  0.00    +0.000 A 
ATOM     31  C   UNL     1      37.035 -10.297  18.451  0.00  0.00    +0.000 A 
ATOM     32  C   UNL     1      36.005  -9.751  17.730  0.00  0.00    +0.000 A 
ENDBRANCH  26  27
ENDBRANCH  25  26
ENDBRANCH  11  25
TORSDOF 6
ENDMDL
MODEL 10
REMARK VINA RESULT:      -7.1      3.734     10.129
REMARK  Name = 
REMARK  6 active torsions:
REMARK  status: ('A' for Active; 'I' for Inactive)
REMARK    1  A    between atoms: O_2  and  C_3
REMARK    2  A    between atoms: C_5  and  C_6
REMARK    3  A    between atoms: C_16  and  O_17
REMARK    4  A    between atoms: O_17  and  C_18
REMARK    5  A    between atoms: C_18  and  C_19
REMARK    6  A    between atoms: C_27  and  O_28
REMARK                            x       y       z     vdW  Elec       q    Type
REMARK                         _______ _______ _______ _____ _____    ______ ____
ROOT
ATOM      1  C   UNL     1      44.193   7.802  19.421  0.00  0.00    +0.000 C 
ATOM      2  N   UNL     1      45.039   6.716  18.685  0.00  0.00    +0.000 NA
ATOM      3  C   UNL     1      44.987   7.240  17.306  0.00  0.00    +0.000 C 
ATOM      4  C   UNL     1      43.602   6.951  16.721  0.00  0.00    +0.000 C 
ATOM      5  C   UNL     1      42.602   6.825  17.786  0.00  0.00    +0.000 A 
ATOM      6  C   UNL     1      42.796   7.199  19.088  0.00  0.00    +0.000 A 
ATOM      7  N   UNL     1      41.715   6.962  19.812  0.00  0.00    +0.000 NA
ATOM      8  C   UNL     1      40.744   6.415  19.012  0.00  0.00    +0.000 A 
ATOM      9  C   UNL     1      39.454   5.981  19.212  0.00  0.00    +0.000 A 
ATOM     10  C   UNL     1      38.711   5.460  18.158  0.00  0.00    +0.000 A 
ATOM     11  C   UNL     1      39.247   5.370  16.902  0.00  0.00    +0.000 A 
ATOM     12  C   UNL     1      40.539   5.810  16.720  0.00  0.00    +0.000 A 
ATOM     13  C   UNL     1      41.308   6.329  17.728  0.00  0.00    +0.000 A 
ENDROOT
BRANCH   1  16
ATOM     14  C   UNL     1      44.983   5.288  22.139  0.00  0.00    +0.000 A 
ATOM     15  C   UNL     1      44.791   5.880  20.924  0.00  0.00    +0.000 A 
ATOM     16  C   UNL     1      44.392   7.196  20.881  0.00  0.00    +0.000 A 
ATOM     17  C   UNL     1      44.188   7.909  21.984  0.00  0.00    +0.000 A 
ATOM     18  C   UNL     1      44.390   7.288  23.202  0.00  0.00    +0.000 A 
ATOM     19  C   UNL     1      44.788   5.976  23.318  0.00  0.00    +0.000 A 
ATOM     20  C   UNL     1      45.011   5.286  24.599  0.00  0.00    +0.000 C 
BRANCH  14  22
ATOM     21  C   UNL     1      46.387   3.451  21.328  0.00  0.00    +0.000 C 
ATOM     22  O   UNL     1      45.385   3.962  22.176  0.00  0.00    +0.000 OA
ENDBRANCH  14  22
BRANCH  17  23
ATOM     23  O   UNL     1      43.783   9.243  21.895  0.00  0.00    +0.000 OA
ATOM     24  C   UNL     1      43.836   9.994  23.085  0.00  0.00    +0.000 C 
ENDBRANCH  17  23
ENDBRANCH   1  16
BRANCH  11  25
ATOM     25  O   UNL     1      38.570   4.868  15.816  0.00  0.00    +0.000 OA
BRANCH  25  26
ATOM     26  C   UNL     1      38.789   3.586  15.287  0.00  0.00    +0.000 C 
BRANCH  26  27
ATOM     27  C   UNL     1      37.570   2.752  15.441  0.00  0.00    +0.000 A 
ATOM     28  C   UNL     1      37.586   1.513  14.812  0.00  0.00    +0.000 A 
ATOM     29  C   UNL     1      36.437   0.742  14.965  0.00  0.00    +0.000 A 
ATOM     30  C   UNL     1      35.351   1.138  15.674  0.00  0.00    +0.000 A 
ATOM     31  C   UNL     1      35.371   2.374  16.285  0.00  0.00    +0.000 A 
ATOM     32  C   UNL     1      36.470   3.186  16.176  0.00  0.00    +0.000 A 
ENDBRANCH  26  27
ENDBRANCH  25  26
ENDBRANCH  11  25
TORSDOF 6
ENDMDL
