MODEL 1
REMARK VINA RESULT:      -7.8      0.000      0.000
REMARK  Name = 
REMARK  6 active torsions:
REMARK  status: ('A' for Active; 'I' for Inactive)
REMARK    1  A    between atoms: C_2  and  C_4
REMARK    2  A    between atoms: C_4  and  C_5
REMARK    3  A    between atoms: C_5  and  N_6
REMARK    4  A    between atoms: N_6  and  C_8
REMARK    5  A    between atoms: C_10  and  C_11
REMARK    6  A    between atoms: C_18  and  C_19
REMARK                            x       y       z     vdW  Elec       q    Type
REMARK                         _______ _______ _______ _____ _____    ______ ____
ROOT
ATOM      1  C   UNL     1      37.804   4.452  16.019  0.00  0.00    +0.000 A 
ATOM      2  C   UNL     1      37.085   5.226  15.110  0.00  0.00    +0.000 A 
ATOM      3  C   UNL     1      35.975   4.749  14.442  0.00  0.00    +0.000 A 
ATOM      4  C   UNL     1      35.610   3.448  14.725  0.00  0.00    +0.000 A 
ATOM      5  C   UNL     1      36.347   2.705  15.635  0.00  0.00    +0.000 A 
ATOM      6  N   UNL     1      37.423   3.196  16.271  0.00  0.00    +0.000 NA
ENDROOT
BRANCH   5   7
ATOM      7  C   UNL     1      35.958   1.324  15.922  0.00  0.00    +0.000 A 
ATOM      8  C   UNL     1      36.486   0.243  15.232  0.00  0.00    +0.000 A 
ATOM      9  C   UNL     1      36.118  -1.062  15.498  0.00  0.00    +0.000 A 
ATOM     10  C   UNL     1      35.196  -1.337  16.472  0.00  0.00    +0.000 A 
ATOM     11  O   UNL     1      34.806  -2.661  16.755  0.00  0.00    +0.000 OA
ATOM     12  C   UNL     1      34.655  -0.281  17.173  0.00  0.00    +0.000 A 
ATOM     13  C   UNL     1      35.035   1.007  16.895  0.00  0.00    +0.000 A 
ENDBRANCH   5   7
BRANCH   3  14
ATOM     14  C   UNL     1      35.265   5.605  13.511  0.00  0.00    +0.000 A 
ATOM     15  C   UNL     1      35.677   5.782  12.203  0.00  0.00    +0.000 A 
ATOM     16  C   UNL     1      35.012   6.593  11.307  0.00  0.00    +0.000 A 
ATOM     17  C   UNL     1      33.865   7.280  11.717  0.00  0.00    +0.000 A 
ATOM     18  C   UNL     1      33.461   7.100  13.021  0.00  0.00    +0.000 A 
ATOM     19  C   UNL     1      34.137   6.289  13.892  0.00  0.00    +0.000 A 
ENDBRANCH   3  14
BRANCH   1  20
ATOM     20  N   UNL     1      38.939   4.944  16.695  0.00  0.00    +0.000 N 
ATOM     21  C   UNL     1      40.068   5.428  15.954  0.00  0.00    +0.000 C 
BRANCH  20  22
ATOM     22  C   UNL     1      38.968   4.959  18.132  0.00  0.00    +0.000 C 
BRANCH  22  23
ATOM     23  C   UNL     1      38.784   6.395  18.631  0.00  0.00    +0.000 C 
BRANCH  23  25
ATOM     24  C   UNL     1      41.150   6.611  19.435  0.00  0.00    +0.000 C 
ATOM     25  C   UNL     1      39.681   6.545  19.847  0.00  0.00    +0.000 C 
ATOM     26  C   UNL     1      39.350   7.877  20.534  0.00  0.00    +0.000 C 
ENDBRANCH  23  25
ENDBRANCH  22  23
ENDBRANCH  20  22
ENDBRANCH   1  20
TORSDOF 6
ENDMDL
MODEL 2
REMARK VINA RESULT:      -7.8      4.423      8.249
REMARK  Name = 
REMARK  6 active torsions:
REMARK  status: ('A' for Active; 'I' for Inactive)
REMARK    1  A    between atoms: C_2  and  C_4
REMARK    2  A    between atoms: C_4  and  C_5
REMARK    3  A    between atoms: C_5  and  N_6
REMARK    4  A    between atoms: N_6  and  C_8
REMARK    5  A    between atoms: C_10  and  C_11
REMARK    6  A    between atoms: C_18  and  C_19
REMARK                            x       y       z     vdW  Elec       q    Type
REMARK                         _______ _______ _______ _____ _____    ______ ____
ROOT
ATOM      1  C   UNL     1      36.612  -0.787  17.037  0.00  0.00    +0.000 A 
ATOM      2  C   UNL     1      35.891  -1.936  16.714  0.00  0.00    +0.000 A 
ATOM      3  C   UNL     1      36.373  -2.896  15.847  0.00  0.00    +0.000 A 
ATOM      4  C   UNL     1      37.621  -2.655  15.308  0.00  0.00    +0.000 A 
ATOM      5  C   UNL     1      38.312  -1.502  15.651  0.00  0.00    +0.000 A 
ATOM      6  N   UNL     1      37.818  -0.585  16.498  0.00  0.00    +0.000 NA
ENDROOT
BRANCH   5   7
ATOM      7  C   UNL     1      39.630  -1.251  15.068  0.00  0.00    +0.000 A 
ATOM      8  C   UNL     1      40.003  -0.009  14.574  0.00  0.00    +0.000 A 
ATOM      9  C   UNL     1      41.245   0.229  14.019  0.00  0.00    +0.000 A 
ATOM     10  C   UNL     1      42.170  -0.776  13.934  0.00  0.00    +0.000 A 
ATOM     11  O   UNL     1      43.442  -0.552  13.369  0.00  0.00    +0.000 OA
ATOM     12  C   UNL     1      41.827  -2.020  14.416  0.00  0.00    +0.000 A 
ATOM     13  C   UNL     1      40.588  -2.237  14.965  0.00  0.00    +0.000 A 
ENDBRANCH   5   7
BRANCH   3  14
ATOM     14  C   UNL     1      35.578  -4.072  15.554  0.00  0.00    +0.000 A 
ATOM     15  C   UNL     1      35.814  -5.297  16.150  0.00  0.00    +0.000 A 
ATOM     16  C   UNL     1      35.065  -6.424  15.881  0.00  0.00    +0.000 A 
ATOM     17  C   UNL     1      34.013  -6.351  14.964  0.00  0.00    +0.000 A 
ATOM     18  C   UNL     1      33.783  -5.129  14.372  0.00  0.00    +0.000 A 
ATOM     19  C   UNL     1      34.540  -4.024  14.656  0.00  0.00    +0.000 A 
ENDBRANCH   3  14
BRANCH   1  20
ATOM     20  N   UNL     1      36.114   0.191  17.921  0.00  0.00    +0.000 N 
ATOM     21  C   UNL     1      35.658  -0.182  19.229  0.00  0.00    +0.000 C 
BRANCH  20  22
ATOM     22  C   UNL     1      36.059   1.567  17.511  0.00  0.00    +0.000 C 
BRANCH  22  23
ATOM     23  C   UNL     1      35.018   1.727  16.399  0.00  0.00    +0.000 C 
BRANCH  23  25
ATOM     24  C   UNL     1      37.090   2.944  15.683  0.00  0.00    +0.000 C 
ATOM     25  C   UNL     1      35.724   2.422  15.248  0.00  0.00    +0.000 C 
ATOM     26  C   UNL     1      35.973   1.391  14.137  0.00  0.00    +0.000 C 
ENDBRANCH  23  25
ENDBRANCH  22  23
ENDBRANCH  20  22
ENDBRANCH   1  20
TORSDOF 6
ENDMDL
MODEL 3
REMARK VINA RESULT:      -7.7      2.468      5.954
REMARK  Name = 
REMARK  6 active torsions:
REMARK  status: ('A' for Active; 'I' for Inactive)
REMARK    1  A    between atoms: C_2  and  C_4
REMARK    2  A    between atoms: C_4  and  C_5
REMARK    3  A    between atoms: C_5  and  N_6
REMARK    4  A    between atoms: N_6  and  C_8
REMARK    5  A    between atoms: C_10  and  C_11
REMARK    6  A    between atoms: C_18  and  C_19
REMARK                            x       y       z     vdW  Elec       q    Type
REMARK                         _______ _______ _______ _____ _____    ______ ____
ROOT
ATOM      1  C   UNL     1      37.760   4.382  16.046  0.00  0.00    +0.000 A 
ATOM      2  C   UNL     1      37.322   3.082  16.293  0.00  0.00    +0.000 A 
ATOM      3  C   UNL     1      36.240   2.525  15.638  0.00  0.00    +0.000 A 
ATOM      4  C   UNL     1      35.608   3.335  14.717  0.00  0.00    +0.000 A 
ATOM      5  C   UNL     1      36.069   4.624  14.495  0.00  0.00    +0.000 A 
ATOM      6  N   UNL     1      37.125   5.139  15.146  0.00  0.00    +0.000 NA
ENDROOT
BRANCH   5   7
ATOM      7  C   UNL     1      35.387   5.477  13.523  0.00  0.00    +0.000 A 
ATOM      8  C   UNL     1      34.249   6.206  13.840  0.00  0.00    +0.000 A 
ATOM      9  C   UNL     1      33.600   7.009  12.922  0.00  0.00    +0.000 A 
ATOM     10  C   UNL     1      34.067   7.114  11.640  0.00  0.00    +0.000 A 
ATOM     11  O   UNL     1      33.417   7.926  10.689  0.00  0.00    +0.000 OA
ATOM     12  C   UNL     1      35.195   6.401  11.298  0.00  0.00    +0.000 A 
ATOM     13  C   UNL     1      35.826   5.609  12.223  0.00  0.00    +0.000 A 
ENDBRANCH   5   7
BRANCH   3  14
ATOM     14  C   UNL     1      35.836   1.165  15.935  0.00  0.00    +0.000 A 
ATOM     15  C   UNL     1      34.930   0.860  16.933  0.00  0.00    +0.000 A 
ATOM     16  C   UNL     1      34.536  -0.430  17.226  0.00  0.00    +0.000 A 
ATOM     17  C   UNL     1      35.065  -1.496  16.493  0.00  0.00    +0.000 A 
ATOM     18  C   UNL     1      35.967  -1.186  15.500  0.00  0.00    +0.000 A 
ATOM     19  C   UNL     1      36.343   0.102  15.228  0.00  0.00    +0.000 A 
ENDBRANCH   3  14
BRANCH   1  20
ATOM     20  N   UNL     1      38.862   4.945  16.720  0.00  0.00    +0.000 N 
ATOM     21  C   UNL     1      39.963   5.488  15.977  0.00  0.00    +0.000 C 
BRANCH  20  22
ATOM     22  C   UNL     1      38.887   4.975  18.156  0.00  0.00    +0.000 C 
BRANCH  22  23
ATOM     23  C   UNL     1      38.806   6.426  18.638  0.00  0.00    +0.000 C 
BRANCH  23  25
ATOM     24  C   UNL     1      41.190   6.636  19.385  0.00  0.00    +0.000 C 
ATOM     25  C   UNL     1      39.735   6.534  19.834  0.00  0.00    +0.000 C 
ATOM     26  C   UNL     1      39.408   7.830  20.589  0.00  0.00    +0.000 C 
ENDBRANCH  23  25
ENDBRANCH  22  23
ENDBRANCH  20  22
ENDBRANCH   1  20
TORSDOF 6
ENDMDL
MODEL 4
REMARK VINA RESULT:      -7.5      4.305      7.493
REMARK  Name = 
REMARK  6 active torsions:
REMARK  status: ('A' for Active; 'I' for Inactive)
REMARK    1  A    between atoms: C_2  and  C_4
REMARK    2  A    between atoms: C_4  and  C_5
REMARK    3  A    between atoms: C_5  and  N_6
REMARK    4  A    between atoms: N_6  and  C_8
REMARK    5  A    between atoms: C_10  and  C_11
REMARK    6  A    between atoms: C_18  and  C_19
REMARK                            x       y       z     vdW  Elec       q    Type
REMARK                         _______ _______ _______ _____ _____    ______ ____
ROOT
ATOM      1  C   UNL     1      36.633  -0.999  17.096  0.00  0.00    +0.000 A 
ATOM      2  C   UNL     1      37.877  -0.785  16.506  0.00  0.00    +0.000 A 
ATOM      3  C   UNL     1      38.433  -1.669  15.601  0.00  0.00    +0.000 A 
ATOM      4  C   UNL     1      37.682  -2.790  15.310  0.00  0.00    +0.000 A 
ATOM      5  C   UNL     1      36.447  -2.972  15.915  0.00  0.00    +0.000 A 
ATOM      6  N   UNL     1      35.932  -2.095  16.791  0.00  0.00    +0.000 NA
ENDROOT
BRANCH   5   7
ATOM      7  C   UNL     1      35.663  -4.168  15.608  0.00  0.00    +0.000 A 
ATOM      8  C   UNL     1      35.886  -5.387  16.232  0.00  0.00    +0.000 A 
ATOM      9  C   UNL     1      35.150  -6.518  15.940  0.00  0.00    +0.000 A 
ATOM     10  C   UNL     1      34.154  -6.475  15.002  0.00  0.00    +0.000 A 
ATOM     11  O   UNL     1      33.394  -7.620  14.689  0.00  0.00    +0.000 OA
ATOM     12  C   UNL     1      33.911  -5.277  14.366  0.00  0.00    +0.000 A 
ATOM     13  C   UNL     1      34.653  -4.164  14.670  0.00  0.00    +0.000 A 
ENDBRANCH   5   7
BRANCH   3  14
ATOM     14  C   UNL     1      39.729  -1.388  15.016  0.00  0.00    +0.000 A 
ATOM     15  C   UNL     1      40.078  -0.135  14.547  0.00  0.00    +0.000 A 
ATOM     16  C   UNL     1      41.308   0.146  13.989  0.00  0.00    +0.000 A 
ATOM     17  C   UNL     1      42.264  -0.868  13.880  0.00  0.00    +0.000 A 
ATOM     18  C   UNL     1      41.911  -2.114  14.348  0.00  0.00    +0.000 A 
ATOM     19  C   UNL     1      40.684  -2.369  14.899  0.00  0.00    +0.000 A 
ENDBRANCH   3  14
BRANCH   1  20
ATOM     20  N   UNL     1      36.073  -0.095  18.021  0.00  0.00    +0.000 N 
ATOM     21  C   UNL     1      35.616  -0.559  19.299  0.00  0.00    +0.000 C 
BRANCH  20  22
ATOM     22  C   UNL     1      35.957   1.297  17.684  0.00  0.00    +0.000 C 
BRANCH  22  23
ATOM     23  C   UNL     1      34.892   1.471  16.596  0.00  0.00    +0.000 C 
BRANCH  23  25
ATOM     24  C   UNL     1      35.866   1.532  14.286  0.00  0.00    +0.000 C 
ATOM     25  C   UNL     1      35.513   2.351  15.525  0.00  0.00    +0.000 C 
ATOM     26  C   UNL     1      34.473   3.394  15.090  0.00  0.00    +0.000 C 
ENDBRANCH  23  25
ENDBRANCH  22  23
ENDBRANCH  20  22
ENDBRANCH   1  20
TORSDOF 6
ENDMDL
MODEL 5
REMARK VINA RESULT:      -7.3      2.752      6.915
REMARK  Name = 
REMARK  6 active torsions:
REMARK  status: ('A' for Active; 'I' for Inactive)
REMARK    1  A    between atoms: C_2  and  C_4
REMARK    2  A    between atoms: C_4  and  C_5
REMARK    3  A    between atoms: C_5  and  N_6
REMARK    4  A    between atoms: N_6  and  C_8
REMARK    5  A    between atoms: C_10  and  C_11
REMARK    6  A    between atoms: C_18  and  C_19
REMARK                            x       y       z     vdW  Elec       q    Type
REMARK                         _______ _______ _______ _____ _____    ______ ____
ROOT
ATOM      1  C   UNL     1      37.694   2.689  14.633  0.00  0.00    +0.000 A 
ATOM      2  C   UNL     1      38.463   3.319  15.610  0.00  0.00    +0.000 A 
ATOM      3  C   UNL     1      38.421   4.682  15.824  0.00  0.00    +0.000 A 
ATOM      4  C   UNL     1      37.568   5.398  15.008  0.00  0.00    +0.000 A 
ATOM      5  C   UNL     1      36.816   4.740  14.046  0.00  0.00    +0.000 A 
ATOM      6  N   UNL     1      36.877   3.411  13.861  0.00  0.00    +0.000 NA
ENDROOT
BRANCH   5   7
ATOM      7  C   UNL     1      35.922   5.508  13.180  0.00  0.00    +0.000 A 
ATOM      8  C   UNL     1      36.152   5.663  11.821  0.00  0.00    +0.000 A 
ATOM      9  C   UNL     1      35.311   6.392  11.002  0.00  0.00    +0.000 A 
ATOM     10  C   UNL     1      34.198   7.000  11.517  0.00  0.00    +0.000 A 
ATOM     11  O   UNL     1      33.330   7.749  10.697  0.00  0.00    +0.000 OA
ATOM     12  C   UNL     1      33.945   6.862  12.864  0.00  0.00    +0.000 A 
ATOM     13  C   UNL     1      34.792   6.134  13.661  0.00  0.00    +0.000 A 
ENDBRANCH   5   7
BRANCH   3  14
ATOM     14  C   UNL     1      39.242   5.279  16.860  0.00  0.00    +0.000 A 
ATOM     15  C   UNL     1      40.453   5.887  16.590  0.00  0.00    +0.000 A 
ATOM     16  C   UNL     1      41.244   6.459  17.566  0.00  0.00    +0.000 A 
ATOM     17  C   UNL     1      40.822   6.433  18.898  0.00  0.00    +0.000 A 
ATOM     18  C   UNL     1      39.615   5.825  19.161  0.00  0.00    +0.000 A 
ATOM     19  C   UNL     1      38.848   5.265  18.176  0.00  0.00    +0.000 A 
ENDBRANCH   3  14
BRANCH   1  20
ATOM     20  N   UNL     1      37.744   1.297  14.417  0.00  0.00    +0.000 N 
ATOM     21  C   UNL     1      38.213   0.776  13.166  0.00  0.00    +0.000 C 
BRANCH  20  22
ATOM     22  C   UNL     1      37.320   0.395  15.452  0.00  0.00    +0.000 C 
BRANCH  22  23
ATOM     23  C   UNL     1      35.820   0.122  15.310  0.00  0.00    +0.000 C 
BRANCH  23  25
ATOM     24  C   UNL     1      36.161   0.503  17.764  0.00  0.00    +0.000 C 
ATOM     25  C   UNL     1      35.174   0.588  16.602  0.00  0.00    +0.000 C 
ATOM     26  C   UNL     1      34.791   2.067  16.449  0.00  0.00    +0.000 C 
ENDBRANCH  23  25
ENDBRANCH  22  23
ENDBRANCH  20  22
ENDBRANCH   1  20
TORSDOF 6
ENDMDL
MODEL 6
REMARK VINA RESULT:      -7.2      4.076      8.514
REMARK  Name = 
REMARK  6 active torsions:
REMARK  status: ('A' for Active; 'I' for Inactive)
REMARK    1  A    between atoms: C_2  and  C_4
REMARK    2  A    between atoms: C_4  and  C_5
REMARK    3  A    between atoms: C_5  and  N_6
REMARK    4  A    between atoms: N_6  and  C_8
REMARK    5  A    between atoms: C_10  and  C_11
REMARK    6  A    between atoms: C_18  and  C_19
REMARK                            x       y       z     vdW  Elec       q    Type
REMARK                         _______ _______ _______ _____ _____    ______ ____
ROOT
ATOM      1  C   UNL     1      37.841  -1.289  16.518  0.00  0.00    +0.000 A 
ATOM      2  C   UNL     1      39.061  -1.507  15.879  0.00  0.00    +0.000 A 
ATOM      3  C   UNL     1      39.588  -0.620  14.962  0.00  0.00    +0.000 A 
ATOM      4  C   UNL     1      38.835   0.508  14.707  0.00  0.00    +0.000 A 
ATOM      5  C   UNL     1      37.626   0.695  15.360  0.00  0.00    +0.000 A 
ATOM      6  N   UNL     1      37.137  -0.186  16.248  0.00  0.00    +0.000 NA
ENDROOT
BRANCH   5   7
ATOM      7  C   UNL     1      36.829   1.889  15.076  0.00  0.00    +0.000 A 
ATOM      8  C   UNL     1      35.451   1.920  15.232  0.00  0.00    +0.000 A 
ATOM      9  C   UNL     1      34.697   3.045  14.960  0.00  0.00    +0.000 A 
ATOM     10  C   UNL     1      35.297   4.192  14.517  0.00  0.00    +0.000 A 
ATOM     11  O   UNL     1      34.544   5.348  14.232  0.00  0.00    +0.000 OA
ATOM     12  C   UNL     1      36.665   4.189  14.353  0.00  0.00    +0.000 A 
ATOM     13  C   UNL     1      37.397   3.062  14.629  0.00  0.00    +0.000 A 
ENDBRANCH   5   7
BRANCH   3  14
ATOM     14  C   UNL     1      40.865  -0.900  14.334  0.00  0.00    +0.000 A 
ATOM     15  C   UNL     1      41.303  -2.187  14.083  0.00  0.00    +0.000 A 
ATOM     16  C   UNL     1      42.515  -2.468  13.486  0.00  0.00    +0.000 A 
ATOM     17  C   UNL     1      43.359  -1.419  13.110  0.00  0.00    +0.000 A 
ATOM     18  C   UNL     1      42.917  -0.139  13.363  0.00  0.00    +0.000 A 
ATOM     19  C   UNL     1      41.710   0.115  13.956  0.00  0.00    +0.000 A 
ENDBRANCH   3  14
BRANCH   1  20
ATOM     20  N   UNL     1      37.306  -2.200  17.450  0.00  0.00    +0.000 N 
ATOM     21  C   UNL     1      38.101  -2.654  18.555  0.00  0.00    +0.000 C 
BRANCH  20  22
ATOM     22  C   UNL     1      35.961  -2.680  17.294  0.00  0.00    +0.000 C 
BRANCH  22  23
ATOM     23  C   UNL     1      35.967  -3.945  16.430  0.00  0.00    +0.000 C 
BRANCH  23  25
ATOM     24  C   UNL     1      36.730  -3.706  14.053  0.00  0.00    +0.000 C 
ATOM     25  C   UNL     1      35.573  -3.510  15.030  0.00  0.00    +0.000 C 
ATOM     26  C   UNL     1      34.424  -4.408  14.547  0.00  0.00    +0.000 C 
ENDBRANCH  23  25
ENDBRANCH  22  23
ENDBRANCH  20  22
ENDBRANCH   1  20
TORSDOF 6
ENDMDL
MODEL 7
REMARK VINA RESULT:      -7.2      4.189      6.968
REMARK  Name = 
REMARK  6 active torsions:
REMARK  status: ('A' for Active; 'I' for Inactive)
REMARK    1  A    between atoms: C_2  and  C_4
REMARK    2  A    between atoms: C_4  and  C_5
REMARK    3  A    between atoms: C_5  and  N_6
REMARK    4  A    between atoms: N_6  and  C_8
REMARK    5  A    between atoms: C_10  and  C_11
REMARK    6  A    between atoms: C_18  and  C_19
REMARK                            x       y       z     vdW  Elec       q    Type
REMARK                         _______ _______ _______ _____ _____    ______ ____
ROOT
ATOM      1  C   UNL     1      36.724  -0.418  16.484  0.00  0.00    +0.000 A 
ATOM      2  C   UNL     1      36.245   0.785  15.967  0.00  0.00    +0.000 A 
ATOM      3  C   UNL     1      36.956   1.536  15.052  0.00  0.00    +0.000 A 
ATOM      4  C   UNL     1      38.182   1.028  14.673  0.00  0.00    +0.000 A 
ATOM      5  C   UNL     1      38.629  -0.171  15.206  0.00  0.00    +0.000 A 
ATOM      6  N   UNL     1      37.915  -0.882  16.094  0.00  0.00    +0.000 NA
ENDROOT
BRANCH   5   7
ATOM      7  C   UNL     1      39.934  -0.697  14.805  0.00  0.00    +0.000 A 
ATOM      8  C   UNL     1      40.921   0.102  14.247  0.00  0.00    +0.000 A 
ATOM      9  C   UNL     1      42.152  -0.393  13.863  0.00  0.00    +0.000 A 
ATOM     10  C   UNL     1      42.445  -1.720  14.023  0.00  0.00    +0.000 A 
ATOM     11  O   UNL     1      43.695  -2.244  13.635  0.00  0.00    +0.000 OA
ATOM     12  C   UNL     1      41.484  -2.538  14.575  0.00  0.00    +0.000 A 
ATOM     13  C   UNL     1      40.267  -2.027  14.950  0.00  0.00    +0.000 A 
ENDBRANCH   5   7
BRANCH   3  14
ATOM     14  C   UNL     1      36.402   2.778  14.547  0.00  0.00    +0.000 A 
ATOM     15  C   UNL     1      35.229   3.321  15.035  0.00  0.00    +0.000 A 
ATOM     16  C   UNL     1      34.691   4.501  14.564  0.00  0.00    +0.000 A 
ATOM     17  C   UNL     1      35.344   5.198  13.543  0.00  0.00    +0.000 A 
ATOM     18  C   UNL     1      36.511   4.651  13.060  0.00  0.00    +0.000 A 
ATOM     19  C   UNL     1      37.026   3.479  13.544  0.00  0.00    +0.000 A 
ENDBRANCH   3  14
BRANCH   1  20
ATOM     20  N   UNL     1      35.995  -1.179  17.419  0.00  0.00    +0.000 N 
ATOM     21  C   UNL     1      35.472  -0.560  18.603  0.00  0.00    +0.000 C 
BRANCH  20  22
ATOM     22  C   UNL     1      35.775  -2.580  17.190  0.00  0.00    +0.000 C 
BRANCH  22  23
ATOM     23  C   UNL     1      35.262  -2.789  15.762  0.00  0.00    +0.000 C 
BRANCH  23  25
ATOM     24  C   UNL     1      36.924  -3.460  14.008  0.00  0.00    +0.000 C 
ATOM     25  C   UNL     1      36.069  -3.936  15.180  0.00  0.00    +0.000 C 
ATOM     26  C   UNL     1      37.035  -4.448  16.259  0.00  0.00    +0.000 C 
ENDBRANCH  23  25
ENDBRANCH  22  23
ENDBRANCH  20  22
ENDBRANCH   1  20
TORSDOF 6
ENDMDL
MODEL 8
REMARK VINA RESULT:      -7.1      1.709      5.353
REMARK  Name = 
REMARK  6 active torsions:
REMARK  status: ('A' for Active; 'I' for Inactive)
REMARK    1  A    between atoms: C_2  and  C_4
REMARK    2  A    between atoms: C_4  and  C_5
REMARK    3  A    between atoms: C_5  and  N_6
REMARK    4  A    between atoms: N_6  and  C_8
REMARK    5  A    between atoms: C_10  and  C_11
REMARK    6  A    between atoms: C_18  and  C_19
REMARK                            x       y       z     vdW  Elec       q    Type
REMARK                         _______ _______ _______ _____ _____    ______ ____
ROOT
ATOM      1  C   UNL     1      36.897   5.254  14.689  0.00  0.00    +0.000 A 
ATOM      2  C   UNL     1      37.867   5.746  15.561  0.00  0.00    +0.000 A 
ATOM      3  C   UNL     1      38.372   5.001  16.608  0.00  0.00    +0.000 A 
ATOM      4  C   UNL     1      37.860   3.727  16.748  0.00  0.00    +0.000 A 
ATOM      5  C   UNL     1      36.896   3.268  15.863  0.00  0.00    +0.000 A 
ATOM      6  N   UNL     1      36.423   4.015  14.853  0.00  0.00    +0.000 NA
ENDROOT
BRANCH   5   7
ATOM      7  C   UNL     1      36.352   1.920  16.025  0.00  0.00    +0.000 A 
ATOM      8  C   UNL     1      36.838   0.829  15.318  0.00  0.00    +0.000 A 
ATOM      9  C   UNL     1      36.323  -0.444  15.466  0.00  0.00    +0.000 A 
ATOM     10  C   UNL     1      35.290  -0.677  16.334  0.00  0.00    +0.000 A 
ATOM     11  O   UNL     1      34.750  -1.969  16.496  0.00  0.00    +0.000 OA
ATOM     12  C   UNL     1      34.788   0.388  17.049  0.00  0.00    +0.000 A 
ATOM     13  C   UNL     1      35.313   1.645  16.889  0.00  0.00    +0.000 A 
ENDBRANCH   5   7
BRANCH   3  14
ATOM     14  C   UNL     1      39.384   5.567  17.478  0.00  0.00    +0.000 A 
ATOM     15  C   UNL     1      40.618   5.981  17.012  0.00  0.00    +0.000 A 
ATOM     16  C   UNL     1      41.590   6.521  17.829  0.00  0.00    +0.000 A 
ATOM     17  C   UNL     1      41.340   6.667  19.197  0.00  0.00    +0.000 A 
ATOM     18  C   UNL     1      40.110   6.251  19.655  0.00  0.00    +0.000 A 
ATOM     19  C   UNL     1      39.161   5.718  18.825  0.00  0.00    +0.000 A 
ENDBRANCH   3  14
BRANCH   1  20
ATOM     20  N   UNL     1      36.383   6.021  13.624  0.00  0.00    +0.000 N 
ATOM     21  C   UNL     1      36.098   5.404  12.361  0.00  0.00    +0.000 C 
BRANCH  20  22
ATOM     22  C   UNL     1      36.145   7.426  13.802  0.00  0.00    +0.000 C 
BRANCH  22  23
ATOM     23  C   UNL     1      34.750   7.636  14.399  0.00  0.00    +0.000 C 
BRANCH  23  25
ATOM     24  C   UNL     1      35.120  10.117  14.393  0.00  0.00    +0.000 C 
ATOM     25  C   UNL     1      34.833   8.889  15.254  0.00  0.00    +0.000 C 
ATOM     26  C   UNL     1      33.467   9.117  15.916  0.00  0.00    +0.000 C 
ENDBRANCH  23  25
ENDBRANCH  22  23
ENDBRANCH  20  22
ENDBRANCH   1  20
TORSDOF 6
ENDMDL
MODEL 9
REMARK VINA RESULT:      -7.0      4.586      7.154
REMARK  Name = 
REMARK  6 active torsions:
REMARK  status: ('A' for Active; 'I' for Inactive)
REMARK    1  A    between atoms: C_2  and  C_4
REMARK    2  A    between atoms: C_4  and  C_5
REMARK    3  A    between atoms: C_5  and  N_6
REMARK    4  A    between atoms: N_6  and  C_8
REMARK    5  A    between atoms: C_10  and  C_11
REMARK    6  A    between atoms: C_18  and  C_19
REMARK                            x       y       z     vdW  Elec       q    Type
REMARK                         _______ _______ _______ _____ _____    ______ ____
ROOT
ATOM      1  C   UNL     1      38.393  -1.624  15.992  0.00  0.00    +0.000 A 
ATOM      2  C   UNL     1      37.595  -0.513  15.721  0.00  0.00    +0.000 A 
ATOM      3  C   UNL     1      38.037   0.552  14.962  0.00  0.00    +0.000 A 
ATOM      4  C   UNL     1      39.327   0.458  14.481  0.00  0.00    +0.000 A 
ATOM      5  C   UNL     1      40.095  -0.661  14.769  0.00  0.00    +0.000 A 
ATOM      6  N   UNL     1      39.637  -1.683  15.510  0.00  0.00    +0.000 NA
ENDROOT
BRANCH   5   7
ATOM      7  C   UNL     1      41.464  -0.746  14.262  0.00  0.00    +0.000 A 
ATOM      8  C   UNL     1      42.165  -1.942  14.206  0.00  0.00    +0.000 A 
ATOM      9  C   UNL     1      43.460  -2.025  13.732  0.00  0.00    +0.000 A 
ATOM     10  C   UNL     1      44.110  -0.904  13.293  0.00  0.00    +0.000 A 
ATOM     11  O   UNL     1      45.432  -0.969  12.808  0.00  0.00    +0.000 OA
ATOM     12  C   UNL     1      43.438   0.298  13.337  0.00  0.00    +0.000 A 
ATOM     13  C   UNL     1      42.152   0.360  13.810  0.00  0.00    +0.000 A 
ENDBRANCH   5   7
BRANCH   3  14
ATOM     14  C   UNL     1      37.158   1.677  14.710  0.00  0.00    +0.000 A 
ATOM     15  C   UNL     1      37.590   2.833  14.087  0.00  0.00    +0.000 A 
ATOM     16  C   UNL     1      36.765   3.911  13.841  0.00  0.00    +0.000 A 
ATOM     17  C   UNL     1      35.424   3.857  14.233  0.00  0.00    +0.000 A 
ATOM     18  C   UNL     1      35.000   2.704  14.855  0.00  0.00    +0.000 A 
ATOM     19  C   UNL     1      35.838   1.646  15.088  0.00  0.00    +0.000 A 
ENDBRANCH   3  14
BRANCH   1  20
ATOM     20  N   UNL     1      37.936  -2.707  16.771  0.00  0.00    +0.000 N 
ATOM     21  C   UNL     1      38.714  -3.908  16.863  0.00  0.00    +0.000 C 
BRANCH  20  22
ATOM     22  C   UNL     1      36.687  -2.609  17.473  0.00  0.00    +0.000 C 
BRANCH  22  23
ATOM     23  C   UNL     1      36.904  -1.879  18.802  0.00  0.00    +0.000 C 
BRANCH  23  25
ATOM     24  C   UNL     1      36.204   0.526  18.905  0.00  0.00    +0.000 C 
ATOM     25  C   UNL     1      35.734  -0.925  18.964  0.00  0.00    +0.000 C 
ATOM     26  C   UNL     1      34.772  -1.130  17.785  0.00  0.00    +0.000 C 
ENDBRANCH  23  25
ENDBRANCH  22  23
ENDBRANCH  20  22
ENDBRANCH   1  20
TORSDOF 6
ENDMDL
MODEL 10
REMARK VINA RESULT:      -7.0      1.393      6.041
REMARK  Name = 
REMARK  6 active torsions:
REMARK  status: ('A' for Active; 'I' for Inactive)
REMARK    1  A    between atoms: C_2  and  C_4
REMARK    2  A    between atoms: C_4  and  C_5
REMARK    3  A    between atoms: C_5  and  N_6
REMARK    4  A    between atoms: N_6  and  C_8
REMARK    5  A    between atoms: C_10  and  C_11
REMARK    6  A    between atoms: C_18  and  C_19
REMARK                            x       y       z     vdW  Elec       q    Type
REMARK                         _______ _______ _______ _____ _____    ______ ____
ROOT
ATOM      1  C   UNL     1      37.162   5.540  14.666  0.00  0.00    +0.000 A 
ATOM      2  C   UNL     1      37.752   6.135  15.780  0.00  0.00    +0.000 A 
ATOM      3  C   UNL     1      37.996   5.442  16.950  0.00  0.00    +0.000 A 
ATOM      4  C   UNL     1      37.620   4.114  16.958  0.00  0.00    +0.000 A 
ATOM      5  C   UNL     1      37.035   3.553  15.832  0.00  0.00    +0.000 A 
ATOM      6  N   UNL     1      36.810   4.252  14.707  0.00  0.00    +0.000 NA
ENDROOT
BRANCH   5   7
ATOM      7  C   UNL     1      36.631   2.148  15.854  0.00  0.00    +0.000 A 
ATOM      8  C   UNL     1      35.543   1.696  16.586  0.00  0.00    +0.000 A 
ATOM      9  C   UNL     1      35.162   0.368  16.611  0.00  0.00    +0.000 A 
ATOM     10  C   UNL     1      35.863  -0.568  15.900  0.00  0.00    +0.000 A 
ATOM     11  O   UNL     1      35.491  -1.927  15.916  0.00  0.00    +0.000 OA
ATOM     12  C   UNL     1      36.949  -0.147  15.164  0.00  0.00    +0.000 A 
ATOM     13  C   UNL     1      37.311   1.176  15.151  0.00  0.00    +0.000 A 
ENDBRANCH   5   7
BRANCH   3  14
ATOM     14  C   UNL     1      38.618   6.115  18.074  0.00  0.00    +0.000 A 
ATOM     15  C   UNL     1      38.150   7.317  18.571  0.00  0.00    +0.000 A 
ATOM     16  C   UNL     1      38.732   7.968  19.640  0.00  0.00    +0.000 A 
ATOM     17  C   UNL     1      39.849   7.406  20.266  0.00  0.00    +0.000 A 
ATOM     18  C   UNL     1      40.310   6.209  19.765  0.00  0.00    +0.000 A 
ATOM     19  C   UNL     1      39.716   5.582  18.703  0.00  0.00    +0.000 A 
ENDBRANCH   3  14
BRANCH   1  20
ATOM     20  N   UNL     1      36.912   6.253  13.476  0.00  0.00    +0.000 N 
ATOM     21  C   UNL     1      37.654   7.444  13.178  0.00  0.00    +0.000 C 
BRANCH  20  22
ATOM     22  C   UNL     1      35.908   5.789  12.559  0.00  0.00    +0.000 C 
BRANCH  22  23
ATOM     23  C   UNL     1      34.626   6.604  12.749  0.00  0.00    +0.000 C 
BRANCH  23  25
ATOM     24  C   UNL     1      34.453   8.699  11.383  0.00  0.00    +0.000 C 
ATOM     25  C   UNL     1      34.279   7.183  11.389  0.00  0.00    +0.000 C 
ATOM     26  C   UNL     1      35.263   6.617  10.355  0.00  0.00    +0.000 C 
ENDBRANCH  23  25
ENDBRANCH  22  23
ENDBRANCH  20  22
ENDBRANCH   1  20
TORSDOF 6
ENDMDL
