MODEL 1
REMARK VINA RESULT:      -6.4      0.000      0.000
REMARK  Name = 
REMARK  5 active torsions:
REMARK  status: ('A' for Active; 'I' for Inactive)
REMARK    1  A    between atoms: O_2  and  C_3
REMARK    2  A    between atoms: C_3  and  C_5
REMARK    3  A    between atoms: C_8  and  C_9
REMARK    4  A    between atoms: C_9  and  S_10
REMARK    5  A    between atoms: S_10  and  C_11
REMARK                            x       y       z     vdW  Elec       q    Type
REMARK                         _______ _______ _______ _____ _____    ______ ____
ROOT
ATOM      1  C   UNL     1      16.266  11.273  33.729  0.00  0.00    +0.000 A 
ATOM      2  C   UNL     1      17.219  10.302  33.586  0.00  0.00    +0.000 A 
ATOM      3  C   UNL     1      17.779   9.735  34.699  0.00  0.00    +0.000 A 
ATOM      4  C   UNL     1      17.405  10.120  35.961  0.00  0.00    +0.000 A 
ATOM      5  C   UNL     1      16.442  11.100  36.086  0.00  0.00    +0.000 A 
ATOM      6  C   UNL     1      15.852  11.698  34.997  0.00  0.00    +0.000 A 
ENDROOT
BRANCH   1   7
ATOM      7  C   UNL     1      15.679  11.876  32.525  0.00  0.00    +0.000 C 
ATOM      8  O   UNL     1      16.190  11.620  31.406  0.00  0.00    +0.000 OA
BRANCH   7  10
ATOM      9  C   UNL     1      14.265  13.624  31.534  0.00  0.00    +0.000 C 
ATOM     10  O   UNL     1      14.579  12.719  32.567  0.00  0.00    +0.000 OA
ENDBRANCH   7  10
ENDBRANCH   1   7
BRANCH   4  11
ATOM     11  C   UNL     1      18.030   9.494  37.184  0.00  0.00    +0.000 C 
BRANCH  11  12
ATOM     12  S   UNL     1      18.985  10.780  38.061  0.00  0.00    +0.000 S 
BRANCH  12  13
ATOM     13  C   UNL     1      20.695  10.768  37.632  0.00  0.00    +0.000 A 
ATOM     14  C   UNL     1      21.181   9.831  36.748  0.00  0.00    +0.000 A 
ATOM     15  C   UNL     1      22.503   9.760  36.366  0.00  0.00    +0.000 A 
ATOM     16  C   UNL     1      23.354  10.714  36.938  0.00  0.00    +0.000 A 
ATOM     17  C   UNL     1      22.873  11.653  37.823  0.00  0.00    +0.000 A 
ATOM     18  C   UNL     1      21.554  11.716  38.198  0.00  0.00    +0.000 A 
ATOM     19  N   UNL     1      21.060  12.688  39.113  0.00  0.00    +0.000 NA
ENDBRANCH  12  13
ENDBRANCH  11  12
ENDBRANCH   4  11
TORSDOF 5
ENDMDL
MODEL 2
REMARK VINA RESULT:      -6.2      1.452      1.906
REMARK  Name = 
REMARK  5 active torsions:
REMARK  status: ('A' for Active; 'I' for Inactive)
REMARK    1  A    between atoms: O_2  and  C_3
REMARK    2  A    between atoms: C_3  and  C_5
REMARK    3  A    between atoms: C_8  and  C_9
REMARK    4  A    between atoms: C_9  and  S_10
REMARK    5  A    between atoms: S_10  and  C_11
REMARK                            x       y       z     vdW  Elec       q    Type
REMARK                         _______ _______ _______ _____ _____    ______ ____
ROOT
ATOM      1  C   UNL     1      16.669  10.894  35.122  0.00  0.00    +0.000 A 
ATOM      2  C   UNL     1      17.405   9.761  34.907  0.00  0.00    +0.000 A 
ATOM      3  C   UNL     1      18.347   9.382  35.825  0.00  0.00    +0.000 A 
ATOM      4  C   UNL     1      18.573  10.117  36.960  0.00  0.00    +0.000 A 
ATOM      5  C   UNL     1      17.822  11.257  37.160  0.00  0.00    +0.000 A 
ATOM      6  C   UNL     1      16.864  11.676  36.266  0.00  0.00    +0.000 A 
ENDROOT
BRANCH   1   7
ATOM      7  C   UNL     1      15.666  11.289  34.125  0.00  0.00    +0.000 C 
ATOM      8  O   UNL     1      14.920  12.270  34.369  0.00  0.00    +0.000 OA
BRANCH   7  10
ATOM      9  C   UNL     1      16.036  11.100  31.703  0.00  0.00    +0.000 C 
ATOM     10  O   UNL     1      15.503  10.625  32.918  0.00  0.00    +0.000 OA
ENDBRANCH   7  10
ENDBRANCH   1   7
BRANCH   4  11
ATOM     11  C   UNL     1      19.616   9.697  37.966  0.00  0.00    +0.000 C 
BRANCH  11  12
ATOM     12  S   UNL     1      20.745  11.106  38.243  0.00  0.00    +0.000 S 
BRANCH  12  13
ATOM     13  C   UNL     1      22.292  10.909  37.421  0.00  0.00    +0.000 A 
ATOM     14  C   UNL     1      22.464   9.903  36.498  0.00  0.00    +0.000 A 
ATOM     15  C   UNL     1      23.642   9.687  35.818  0.00  0.00    +0.000 A 
ATOM     16  C   UNL     1      24.689  10.568  36.119  0.00  0.00    +0.000 A 
ATOM     17  C   UNL     1      24.523  11.577  37.041  0.00  0.00    +0.000 A 
ATOM     18  C   UNL     1      23.345  11.784  37.715  0.00  0.00    +0.000 A 
ATOM     19  N   UNL     1      23.176  12.828  38.668  0.00  0.00    +0.000 NA
ENDBRANCH  12  13
ENDBRANCH  11  12
ENDBRANCH   4  11
TORSDOF 5
ENDMDL
MODEL 3
REMARK VINA RESULT:      -6.0      2.566      3.521
REMARK  Name = 
REMARK  5 active torsions:
REMARK  status: ('A' for Active; 'I' for Inactive)
REMARK    1  A    between atoms: O_2  and  C_3
REMARK    2  A    between atoms: C_3  and  C_5
REMARK    3  A    between atoms: C_8  and  C_9
REMARK    4  A    between atoms: C_9  and  S_10
REMARK    5  A    between atoms: S_10  and  C_11
REMARK                            x       y       z     vdW  Elec       q    Type
REMARK                         _______ _______ _______ _____ _____    ______ ____
ROOT
ATOM      1  C   UNL     1      15.637  11.739  33.659  0.00  0.00    +0.000 A 
ATOM      2  C   UNL     1      16.549  10.867  33.131  0.00  0.00    +0.000 A 
ATOM      3  C   UNL     1      17.338  10.124  33.967  0.00  0.00    +0.000 A 
ATOM      4  C   UNL     1      17.235  10.235  35.329  0.00  0.00    +0.000 A 
ATOM      5  C   UNL     1      16.311  11.120  35.845  0.00  0.00    +0.000 A 
ATOM      6  C   UNL     1      15.496  11.886  35.044  0.00  0.00    +0.000 A 
ENDROOT
BRANCH   1   7
ATOM      7  C   UNL     1      14.802  12.533  32.748  0.00  0.00    +0.000 C 
ATOM      8  O   UNL     1      14.056  13.423  33.227  0.00  0.00    +0.000 OA
BRANCH   7  10
ATOM      9  C   UNL     1      15.183  13.347  30.461  0.00  0.00    +0.000 C 
ATOM     10  O   UNL     1      14.799  12.344  31.374  0.00  0.00    +0.000 OA
ENDBRANCH   7  10
ENDBRANCH   1   7
BRANCH   4  11
ATOM     11  C   UNL     1      18.111   9.416  36.246  0.00  0.00    +0.000 C 
BRANCH  11  12
ATOM     12  S   UNL     1      18.731  10.508  37.573  0.00  0.00    +0.000 S 
BRANCH  12  13
ATOM     13  C   UNL     1      18.117  10.060  39.163  0.00  0.00    +0.000 A 
ATOM     14  C   UNL     1      16.765   9.906  39.366  0.00  0.00    +0.000 A 
ATOM     15  C   UNL     1      16.213   9.558  40.580  0.00  0.00    +0.000 A 
ATOM     16  C   UNL     1      17.121   9.363  41.628  0.00  0.00    +0.000 A 
ATOM     17  C   UNL     1      18.475   9.516  41.431  0.00  0.00    +0.000 A 
ATOM     18  C   UNL     1      19.016   9.864  40.218  0.00  0.00    +0.000 A 
ATOM     19  N   UNL     1      20.417  10.022  40.017  0.00  0.00    +0.000 NA
ENDBRANCH  12  13
ENDBRANCH  11  12
ENDBRANCH   4  11
TORSDOF 5
ENDMDL
MODEL 4
REMARK VINA RESULT:      -5.8      3.934      7.272
REMARK  Name = 
REMARK  5 active torsions:
REMARK  status: ('A' for Active; 'I' for Inactive)
REMARK    1  A    between atoms: O_2  and  C_3
REMARK    2  A    between atoms: C_3  and  C_5
REMARK    3  A    between atoms: C_8  and  C_9
REMARK    4  A    between atoms: C_9  and  S_10
REMARK    5  A    between atoms: S_10  and  C_11
REMARK                            x       y       z     vdW  Elec       q    Type
REMARK                         _______ _______ _______ _____ _____    ______ ____
ROOT
ATOM      1  C   UNL     1      21.902  10.780  37.361  0.00  0.00    +0.000 A 
ATOM      2  C   UNL     1      21.172  11.612  38.164  0.00  0.00    +0.000 A 
ATOM      3  C   UNL     1      19.810  11.482  38.212  0.00  0.00    +0.000 A 
ATOM      4  C   UNL     1      19.158  10.533  37.468  0.00  0.00    +0.000 A 
ATOM      5  C   UNL     1      19.911   9.703  36.663  0.00  0.00    +0.000 A 
ATOM      6  C   UNL     1      21.281   9.796  36.583  0.00  0.00    +0.000 A 
ENDROOT
BRANCH   1   7
ATOM      7  C   UNL     1      23.363  10.936  37.317  0.00  0.00    +0.000 C 
ATOM      8  O   UNL     1      23.862  12.061  37.566  0.00  0.00    +0.000 OA
BRANCH   7  10
ATOM      9  C   UNL     1      25.116   9.335  37.947  0.00  0.00    +0.000 C 
ATOM     10  O   UNL     1      24.221   9.890  37.012  0.00  0.00    +0.000 OA
ENDBRANCH   7  10
ENDBRANCH   1   7
BRANCH   4  11
ATOM     11  C   UNL     1      17.656  10.398  37.521  0.00  0.00    +0.000 C 
BRANCH  11  12
ATOM     12  S   UNL     1      16.920  11.860  36.709  0.00  0.00    +0.000 S 
BRANCH  12  13
ATOM     13  C   UNL     1      16.490  11.558  35.027  0.00  0.00    +0.000 A 
ATOM     14  C   UNL     1      17.298  10.774  34.235  0.00  0.00    +0.000 A 
ATOM     15  C   UNL     1      17.027  10.495  32.913  0.00  0.00    +0.000 A 
ATOM     16  C   UNL     1      15.856  11.065  32.398  0.00  0.00    +0.000 A 
ATOM     17  C   UNL     1      15.044  11.850  33.186  0.00  0.00    +0.000 A 
ATOM     18  C   UNL     1      15.322  12.123  34.502  0.00  0.00    +0.000 A 
ATOM     19  N   UNL     1      14.481  12.936  35.314  0.00  0.00    +0.000 NA
ENDBRANCH  12  13
ENDBRANCH  11  12
ENDBRANCH   4  11
TORSDOF 5
ENDMDL
MODEL 5
REMARK VINA RESULT:      -5.8     17.894     18.998
REMARK  Name = 
REMARK  5 active torsions:
REMARK  status: ('A' for Active; 'I' for Inactive)
REMARK    1  A    between atoms: O_2  and  C_3
REMARK    2  A    between atoms: C_3  and  C_5
REMARK    3  A    between atoms: C_8  and  C_9
REMARK    4  A    between atoms: C_9  and  S_10
REMARK    5  A    between atoms: S_10  and  C_11
REMARK                            x       y       z     vdW  Elec       q    Type
REMARK                         _______ _______ _______ _____ _____    ______ ____
ROOT
ATOM      1  C   UNL     1      28.692  23.798  23.152  0.00  0.00    +0.000 A 
ATOM      2  C   UNL     1      27.492  23.607  23.780  0.00  0.00    +0.000 A 
ATOM      3  C   UNL     1      27.464  23.063  25.035  0.00  0.00    +0.000 A 
ATOM      4  C   UNL     1      28.618  22.701  25.681  0.00  0.00    +0.000 A 
ATOM      5  C   UNL     1      29.820  22.901  25.033  0.00  0.00    +0.000 A 
ATOM      6  C   UNL     1      29.897  23.445  23.772  0.00  0.00    +0.000 A 
ENDROOT
BRANCH   1   7
ATOM      7  C   UNL     1      28.704  24.379  21.802  0.00  0.00    +0.000 C 
ATOM      8  O   UNL     1      29.704  24.188  21.067  0.00  0.00    +0.000 OA
BRANCH   7  10
ATOM      9  C   UNL     1      27.622  26.541  21.365  0.00  0.00    +0.000 C 
ATOM     10  O   UNL     1      27.654  25.134  21.300  0.00  0.00    +0.000 OA
ENDBRANCH   7  10
ENDBRANCH   1   7
BRANCH   4  11
ATOM     11  C   UNL     1      28.581  22.097  27.063  0.00  0.00    +0.000 C 
BRANCH  11  12
ATOM     12  S   UNL     1      29.346  23.279  28.227  0.00  0.00    +0.000 S 
BRANCH  12  13
ATOM     13  C   UNL     1      30.617  22.545  29.204  0.00  0.00    +0.000 A 
ATOM     14  C   UNL     1      31.747  22.038  28.604  0.00  0.00    +0.000 A 
ATOM     15  C   UNL     1      32.779  21.450  29.302  0.00  0.00    +0.000 A 
ATOM     16  C   UNL     1      32.619  21.392  30.692  0.00  0.00    +0.000 A 
ATOM     17  C   UNL     1      31.490  21.898  31.298  0.00  0.00    +0.000 A 
ATOM     18  C   UNL     1      30.466  22.481  30.594  0.00  0.00    +0.000 A 
ATOM     19  N   UNL     1      29.300  23.003  31.222  0.00  0.00    +0.000 NA
ENDBRANCH  12  13
ENDBRANCH  11  12
ENDBRANCH   4  11
TORSDOF 5
ENDMDL
MODEL 6
REMARK VINA RESULT:      -5.7     16.052     17.146
REMARK  Name = 
REMARK  5 active torsions:
REMARK  status: ('A' for Active; 'I' for Inactive)
REMARK    1  A    between atoms: O_2  and  C_3
REMARK    2  A    between atoms: C_3  and  C_5
REMARK    3  A    between atoms: C_8  and  C_9
REMARK    4  A    between atoms: C_9  and  S_10
REMARK    5  A    between atoms: S_10  and  C_11
REMARK                            x       y       z     vdW  Elec       q    Type
REMARK                         _______ _______ _______ _____ _____    ______ ____
ROOT
ATOM      1  C   UNL     1      33.728   3.819  34.355  0.00  0.00    +0.000 A 
ATOM      2  C   UNL     1      33.366   5.079  33.964  0.00  0.00    +0.000 A 
ATOM      3  C   UNL     1      33.505   6.124  34.837  0.00  0.00    +0.000 A 
ATOM      4  C   UNL     1      34.000   5.937  36.101  0.00  0.00    +0.000 A 
ATOM      5  C   UNL     1      34.360   4.660  36.479  0.00  0.00    +0.000 A 
ATOM      6  C   UNL     1      34.239   3.579  35.637  0.00  0.00    +0.000 A 
ENDROOT
BRANCH   1   7
ATOM      7  C   UNL     1      33.569   2.707  33.409  0.00  0.00    +0.000 C 
ATOM      8  O   UNL     1      33.768   2.915  32.187  0.00  0.00    +0.000 OA
BRANCH   7  10
ATOM      9  C   UNL     1      33.741   0.263  33.224  0.00  0.00    +0.000 C 
ATOM     10  O   UNL     1      33.205   1.429  33.807  0.00  0.00    +0.000 OA
ENDBRANCH   7  10
ENDBRANCH   1   7
BRANCH   4  11
ATOM     11  C   UNL     1      34.146   7.094  37.060  0.00  0.00    +0.000 C 
BRANCH  11  12
ATOM     12  S   UNL     1      35.464   8.193  36.435  0.00  0.00    +0.000 S 
BRANCH  12  13
ATOM     13  C   UNL     1      34.946   9.874  36.316  0.00  0.00    +0.000 A 
ATOM     14  C   UNL     1      33.931  10.346  37.116  0.00  0.00    +0.000 A 
ATOM     15  C   UNL     1      33.473  11.645  37.079  0.00  0.00    +0.000 A 
ATOM     16  C   UNL     1      34.110  12.488  36.159  0.00  0.00    +0.000 A 
ATOM     17  C   UNL     1      35.126  12.022  35.355  0.00  0.00    +0.000 A 
ATOM     18  C   UNL     1      35.575  10.725  35.400  0.00  0.00    +0.000 A 
ATOM     19  N   UNL     1      36.626  10.246  34.567  0.00  0.00    +0.000 NA
ENDBRANCH  12  13
ENDBRANCH  11  12
ENDBRANCH   4  11
TORSDOF 5
ENDMDL
MODEL 7
REMARK VINA RESULT:      -5.7      3.105      4.790
REMARK  Name = 
REMARK  5 active torsions:
REMARK  status: ('A' for Active; 'I' for Inactive)
REMARK    1  A    between atoms: O_2  and  C_3
REMARK    2  A    between atoms: C_3  and  C_5
REMARK    3  A    between atoms: C_8  and  C_9
REMARK    4  A    between atoms: C_9  and  S_10
REMARK    5  A    between atoms: S_10  and  C_11
REMARK                            x       y       z     vdW  Elec       q    Type
REMARK                         _______ _______ _______ _____ _____    ______ ____
ROOT
ATOM      1  C   UNL     1      16.731  11.246  35.956  0.00  0.00    +0.000 A 
ATOM      2  C   UNL     1      17.087   9.933  35.809  0.00  0.00    +0.000 A 
ATOM      3  C   UNL     1      18.090   9.414  36.582  0.00  0.00    +0.000 A 
ATOM      4  C   UNL     1      18.751  10.183  37.505  0.00  0.00    +0.000 A 
ATOM      5  C   UNL     1      18.379  11.505  37.639  0.00  0.00    +0.000 A 
ATOM      6  C   UNL     1      17.377  12.071  36.885  0.00  0.00    +0.000 A 
ENDROOT
BRANCH   1   7
ATOM      7  C   UNL     1      15.656  11.790  35.115  0.00  0.00    +0.000 C 
ATOM      8  O   UNL     1      14.958  12.736  35.557  0.00  0.00    +0.000 OA
BRANCH   7  10
ATOM      9  C   UNL     1      16.160  11.608  32.717  0.00  0.00    +0.000 C 
ATOM     10  O   UNL     1      15.375  11.303  33.847  0.00  0.00    +0.000 OA
ENDBRANCH   7  10
ENDBRANCH   1   7
BRANCH   4  11
ATOM     11  C   UNL     1      19.859   9.606  38.351  0.00  0.00    +0.000 C 
BRANCH  11  12
ATOM     12  S   UNL     1      19.445   9.887  40.108  0.00  0.00    +0.000 S 
BRANCH  12  13
ATOM     13  C   UNL     1      17.980   9.042  40.604  0.00  0.00    +0.000 A 
ATOM     14  C   UNL     1      16.781   9.713  40.672  0.00  0.00    +0.000 A 
ATOM     15  C   UNL     1      15.596   9.120  41.051  0.00  0.00    +0.000 A 
ATOM     16  C   UNL     1      15.674   7.759  41.374  0.00  0.00    +0.000 A 
ATOM     17  C   UNL     1      16.871   7.082  41.308  0.00  0.00    +0.000 A 
ATOM     18  C   UNL     1      18.046   7.682  40.929  0.00  0.00    +0.000 A 
ATOM     19  N   UNL     1      19.282   6.979  40.862  0.00  0.00    +0.000 NA
ENDBRANCH  12  13
ENDBRANCH  11  12
ENDBRANCH   4  11
TORSDOF 5
ENDMDL
MODEL 8
REMARK VINA RESULT:      -5.6     18.223     19.372
REMARK  Name = 
REMARK  5 active torsions:
REMARK  status: ('A' for Active; 'I' for Inactive)
REMARK    1  A    between atoms: O_2  and  C_3
REMARK    2  A    between atoms: C_3  and  C_5
REMARK    3  A    between atoms: C_8  and  C_9
REMARK    4  A    between atoms: C_9  and  S_10
REMARK    5  A    between atoms: S_10  and  C_11
REMARK                            x       y       z     vdW  Elec       q    Type
REMARK                         _______ _______ _______ _____ _____    ______ ____
ROOT
ATOM      1  C   UNL     1      29.182  23.704  23.295  0.00  0.00    +0.000 A 
ATOM      2  C   UNL     1      28.270  23.121  24.130  0.00  0.00    +0.000 A 
ATOM      3  C   UNL     1      28.681  22.613  25.333  0.00  0.00    +0.000 A 
ATOM      4  C   UNL     1      29.995  22.673  25.721  0.00  0.00    +0.000 A 
ATOM      5  C   UNL     1      30.902  23.264  24.865  0.00  0.00    +0.000 A 
ATOM      6  C   UNL     1      30.535  23.789  23.648  0.00  0.00    +0.000 A 
ENDROOT
BRANCH   1   7
ATOM      7  C   UNL     1      28.726  24.240  22.005  0.00  0.00    +0.000 C 
ATOM      8  O   UNL     1      27.495  24.395  21.813  0.00  0.00    +0.000 OA
BRANCH   7  10
ATOM      9  C   UNL     1      29.552  25.828  20.323  0.00  0.00    +0.000 C 
ATOM     10  O   UNL     1      29.599  24.584  20.984  0.00  0.00    +0.000 OA
ENDBRANCH   7  10
ENDBRANCH   1   7
BRANCH   4  11
ATOM     11  C   UNL     1      30.443  22.107  27.046  0.00  0.00    +0.000 C 
BRANCH  11  12
ATOM     12  S   UNL     1      30.234  23.398  28.321  0.00  0.00    +0.000 S 
BRANCH  12  13
ATOM     13  C   UNL     1      28.563  23.558  28.859  0.00  0.00    +0.000 A 
ATOM     14  C   UNL     1      28.029  22.648  29.741  0.00  0.00    +0.000 A 
ATOM     15  C   UNL     1      26.732  22.708  30.205  0.00  0.00    +0.000 A 
ATOM     16  C   UNL     1      25.962  23.772  29.720  0.00  0.00    +0.000 A 
ATOM     17  C   UNL     1      26.491  24.687  28.837  0.00  0.00    +0.000 A 
ATOM     18  C   UNL     1      27.784  24.618  28.380  0.00  0.00    +0.000 A 
ATOM     19  N   UNL     1      28.329  25.564  27.467  0.00  0.00    +0.000 NA
ENDBRANCH  12  13
ENDBRANCH  11  12
ENDBRANCH   4  11
TORSDOF 5
ENDMDL
MODEL 9
REMARK VINA RESULT:      -5.6     17.552     18.639
REMARK  Name = 
REMARK  5 active torsions:
REMARK  status: ('A' for Active; 'I' for Inactive)
REMARK    1  A    between atoms: O_2  and  C_3
REMARK    2  A    between atoms: C_3  and  C_5
REMARK    3  A    between atoms: C_8  and  C_9
REMARK    4  A    between atoms: C_9  and  S_10
REMARK    5  A    between atoms: S_10  and  C_11
REMARK                            x       y       z     vdW  Elec       q    Type
REMARK                         _______ _______ _______ _____ _____    ______ ____
ROOT
ATOM      1  C   UNL     1      27.170  23.439  23.507  0.00  0.00    +0.000 A 
ATOM      2  C   UNL     1      28.458  23.271  23.934  0.00  0.00    +0.000 A 
ATOM      3  C   UNL     1      28.696  22.860  25.218  0.00  0.00    +0.000 A 
ATOM      4  C   UNL     1      27.669  22.612  26.090  0.00  0.00    +0.000 A 
ATOM      5  C   UNL     1      26.375  22.787  25.642  0.00  0.00    +0.000 A 
ATOM      6  C   UNL     1      26.087  23.198  24.361  0.00  0.00    +0.000 A 
ENDROOT
BRANCH   1   7
ATOM      7  C   UNL     1      26.930  23.886  22.128  0.00  0.00    +0.000 C 
ATOM      8  O   UNL     1      25.964  23.400  21.490  0.00  0.00    +0.000 OA
BRANCH   7  10
ATOM      9  C   UNL     1      27.562  26.216  21.671  0.00  0.00    +0.000 C 
ATOM     10  O   UNL     1      27.728  24.828  21.495  0.00  0.00    +0.000 OA
ENDBRANCH   7  10
ENDBRANCH   1   7
BRANCH   4  11
ATOM     11  C   UNL     1      27.938  22.163  27.505  0.00  0.00    +0.000 C 
BRANCH  11  12
ATOM     12  S   UNL     1      28.313  23.640  28.513  0.00  0.00    +0.000 S 
BRANCH  12  13
ATOM     13  C   UNL     1      26.963  24.772  28.587  0.00  0.00    +0.000 A 
ATOM     14  C   UNL     1      26.888  25.820  27.698  0.00  0.00    +0.000 A 
ATOM     15  C   UNL     1      25.866  26.744  27.695  0.00  0.00    +0.000 A 
ATOM     16  C   UNL     1      24.876  26.559  28.669  0.00  0.00    +0.000 A 
ATOM     17  C   UNL     1      24.946  25.512  29.561  0.00  0.00    +0.000 A 
ATOM     18  C   UNL     1      25.969  24.597  29.556  0.00  0.00    +0.000 A 
ATOM     19  N   UNL     1      26.039  23.515  30.480  0.00  0.00    +0.000 NA
ENDBRANCH  12  13
ENDBRANCH  11  12
ENDBRANCH   4  11
TORSDOF 5
ENDMDL
MODEL 10
REMARK VINA RESULT:      -5.6     18.350     19.499
REMARK  Name = 
REMARK  5 active torsions:
REMARK  status: ('A' for Active; 'I' for Inactive)
REMARK    1  A    between atoms: O_2  and  C_3
REMARK    2  A    between atoms: C_3  and  C_5
REMARK    3  A    between atoms: C_8  and  C_9
REMARK    4  A    between atoms: C_9  and  S_10
REMARK    5  A    between atoms: S_10  and  C_11
REMARK                            x       y       z     vdW  Elec       q    Type
REMARK                         _______ _______ _______ _____ _____    ______ ____
ROOT
ATOM      1  C   UNL     1      29.448  24.357  22.975  0.00  0.00    +0.000 A 
ATOM      2  C   UNL     1      30.144  25.306  23.671  0.00  0.00    +0.000 A 
ATOM      3  C   UNL     1      30.594  25.025  24.932  0.00  0.00    +0.000 A 
ATOM      4  C   UNL     1      30.363  23.807  25.518  0.00  0.00    +0.000 A 
ATOM      5  C   UNL     1      29.659  22.861  24.801  0.00  0.00    +0.000 A 
ATOM      6  C   UNL     1      29.187  23.098  23.530  0.00  0.00    +0.000 A 
ENDROOT
BRANCH   1   7
ATOM      7  C   UNL     1      28.966  24.676  21.624  0.00  0.00    +0.000 C 
ATOM      8  O   UNL     1      29.730  24.485  20.645  0.00  0.00    +0.000 OA
BRANCH   7  10
ATOM      9  C   UNL     1      27.442  26.555  21.197  0.00  0.00    +0.000 C 
ATOM     10  O   UNL     1      27.698  25.181  21.379  0.00  0.00    +0.000 OA
ENDBRANCH   7  10
ENDBRANCH   1   7
BRANCH   4  11
ATOM     11  C   UNL     1      30.858  23.505  26.911  0.00  0.00    +0.000 C 
BRANCH  11  12
ATOM     12  S   UNL     1      29.813  22.184  27.617  0.00  0.00    +0.000 S 
BRANCH  12  13
ATOM     13  C   UNL     1      28.349  22.808  28.374  0.00  0.00    +0.000 A 
ATOM     14  C   UNL     1      27.288  23.218  27.599  0.00  0.00    +0.000 A 
ATOM     15  C   UNL     1      26.113  23.716  28.119  0.00  0.00    +0.000 A 
ATOM     16  C   UNL     1      26.049  23.788  29.516  0.00  0.00    +0.000 A 
ATOM     17  C   UNL     1      27.107  23.379  30.297  0.00  0.00    +0.000 A 
ATOM     18  C   UNL     1      28.274  22.885  29.769  0.00  0.00    +0.000 A 
ATOM     19  N   UNL     1      29.367  22.463  30.579  0.00  0.00    +0.000 NA
ENDBRANCH  12  13
ENDBRANCH  11  12
ENDBRANCH   4  11
TORSDOF 5
ENDMDL
