MODEL 1
REMARK VINA RESULT:      -8.6      0.000      0.000
REMARK  Name = 
REMARK  7 active torsions:
REMARK  status: ('A' for Active; 'I' for Inactive)
REMARK    1  A    between atoms: C_5  and  N_6
REMARK    2  A    between atoms: C_7  and  C_8
REMARK    3  A    between atoms: C_8  and  C_9
REMARK    4  A    between atoms: C_17  and  S_18
REMARK    5  A    between atoms: S_18  and  C_19
REMARK    6  A    between atoms: C_19  and  C_20
REMARK    7  A    between atoms: N_22  and  C_23
REMARK                            x       y       z     vdW  Elec       q    Type
REMARK                         _______ _______ _______ _____ _____    ______ ____
ROOT
ATOM      1  N   UNL     1      36.467   0.169  15.696  0.00  0.00    +0.000 N 
ATOM      2  C   UNL     1      35.492  -0.312  16.488  0.00  0.00    +0.000 A 
ATOM      3  N   UNL     1      34.805   0.765  16.926  0.00  0.00    +0.000 NA
ATOM      4  N   UNL     1      35.310   1.869  16.445  0.00  0.00    +0.000 NA
ATOM      5  C   UNL     1      36.363   1.509  15.664  0.00  0.00    +0.000 A 
ENDROOT
BRANCH   1  10
ATOM      6  C   UNL     1      40.636  -2.687  13.076  0.00  0.00    +0.000 C 
ATOM      7  C   UNL     1      39.513  -1.965  13.703  0.00  0.00    +0.000 A 
ATOM      8  C   UNL     1      39.748  -1.317  14.914  0.00  0.00    +0.000 A 
ATOM      9  C   UNL     1      38.712  -0.635  15.520  0.00  0.00    +0.000 A 
ATOM     10  C   UNL     1      37.459  -0.557  14.994  0.00  0.00    +0.000 A 
ATOM     11  C   UNL     1      37.213  -1.193  13.797  0.00  0.00    +0.000 A 
ATOM     12  C   UNL     1      38.250  -1.889  13.171  0.00  0.00    +0.000 A 
ENDBRANCH   1  10
BRANCH   2  13
ATOM     13  C   UNL     1      35.238  -1.742  16.802  0.00  0.00    +0.000 C 
BRANCH  13  14
ATOM     14  C   UNL     1      36.408  -2.351  17.458  0.00  0.00    +0.000 A 
ATOM     15  C   UNL     1      36.974  -3.480  16.918  0.00  0.00    +0.000 A 
ATOM     16  C   UNL     1      38.054  -4.109  17.452  0.00  0.00    +0.000 A 
ATOM     17  C   UNL     1      38.637  -3.617  18.595  0.00  0.00    +0.000 A 
ATOM     18  C   UNL     1      38.097  -2.486  19.165  0.00  0.00    +0.000 A 
ATOM     19  C   UNL     1      36.981  -1.845  18.602  0.00  0.00    +0.000 A 
ENDBRANCH  13  14
ENDBRANCH   2  13
BRANCH   5  20
ATOM     20  S   UNL     1      37.360   2.707  14.796  0.00  0.00    +0.000 S 
BRANCH  20  21
ATOM     21  C   UNL     1      37.131   4.357  15.510  0.00  0.00    +0.000 C 
BRANCH  21  22
ATOM     22  C   UNL     1      38.130   4.665  16.536  0.00  0.00    +0.000 C 
ATOM     23  O   UNL     1      38.396   3.781  17.387  0.00  0.00    +0.000 OA
ATOM     24  N   UNL     1      38.823   5.897  16.637  0.00  0.00    +0.000 NA
BRANCH  24  25
ATOM     25  C   UNL     1      39.784   6.127  17.663  0.00  0.00    +0.000 A 
ATOM     26  C   UNL     1      39.438   6.173  19.007  0.00  0.00    +0.000 A 
ATOM     27  C   UNL     1      40.386   6.399  19.996  0.00  0.00    +0.000 A 
ATOM     28  C   UNL     1      41.697   6.580  19.630  0.00  0.00    +0.000 A 
ATOM     29  C   UNL     1      42.072   6.539  18.286  0.00  0.00    +0.000 A 
ATOM     30  C   UNL     1      41.105   6.311  17.314  0.00  0.00    +0.000 A 
ATOM     31  C   UNL     1      41.462   6.258  15.864  0.00  0.00    +0.000 C 
ENDBRANCH  24  25
ENDBRANCH  21  22
ENDBRANCH  20  21
ENDBRANCH   5  20
TORSDOF 7
ENDMDL
MODEL 2
REMARK VINA RESULT:      -8.5      2.397      7.598
REMARK  Name = 
REMARK  7 active torsions:
REMARK  status: ('A' for Active; 'I' for Inactive)
REMARK    1  A    between atoms: C_5  and  N_6
REMARK    2  A    between atoms: C_7  and  C_8
REMARK    3  A    between atoms: C_8  and  C_9
REMARK    4  A    between atoms: C_17  and  S_18
REMARK    5  A    between atoms: S_18  and  C_19
REMARK    6  A    between atoms: C_19  and  C_20
REMARK    7  A    between atoms: N_22  and  C_23
REMARK                            x       y       z     vdW  Elec       q    Type
REMARK                         _______ _______ _______ _____ _____    ______ ____
ROOT
ATOM      1  N   UNL     1      37.037   3.917  15.651  0.00  0.00    +0.000 N 
ATOM      2  C   UNL     1      37.881   4.403  16.579  0.00  0.00    +0.000 A 
ATOM      3  N   UNL     1      37.788   3.570  17.638  0.00  0.00    +0.000 NA
ATOM      4  N   UNL     1      36.937   2.608  17.403  0.00  0.00    +0.000 NA
ATOM      5  C   UNL     1      36.452   2.813  16.150  0.00  0.00    +0.000 A 
ENDROOT
BRANCH   1  10
ATOM      6  C   UNL     1      35.745   6.134  10.571  0.00  0.00    +0.000 C 
ATOM      7  C   UNL     1      36.132   5.524  11.857  0.00  0.00    +0.000 A 
ATOM      8  C   UNL     1      35.399   5.870  12.990  0.00  0.00    +0.000 A 
ATOM      9  C   UNL     1      35.742   5.312  14.205  0.00  0.00    +0.000 A 
ATOM     10  C   UNL     1      36.768   4.430  14.361  0.00  0.00    +0.000 A 
ATOM     11  C   UNL     1      37.500   4.079  13.248  0.00  0.00    +0.000 A 
ATOM     12  C   UNL     1      37.167   4.635  12.011  0.00  0.00    +0.000 A 
ENDBRANCH   1  10
BRANCH   2  13
ATOM     13  C   UNL     1      38.734   5.613  16.445  0.00  0.00    +0.000 C 
BRANCH  13  14
ATOM     14  C   UNL     1      38.947   6.251  17.755  0.00  0.00    +0.000 A 
ATOM     15  C   UNL     1      39.976   5.820  18.557  0.00  0.00    +0.000 A 
ATOM     16  C   UNL     1      40.249   6.348  19.779  0.00  0.00    +0.000 A 
ATOM     17  C   UNL     1      39.474   7.371  20.271  0.00  0.00    +0.000 A 
ATOM     18  C   UNL     1      38.434   7.830  19.495  0.00  0.00    +0.000 A 
ATOM     19  C   UNL     1      38.163   7.275  18.234  0.00  0.00    +0.000 A 
ENDBRANCH  13  14
ENDBRANCH   2  13
BRANCH   5  20
ATOM     20  S   UNL     1      35.247   1.729  15.405  0.00  0.00    +0.000 S 
BRANCH  20  21
ATOM     21  C   UNL     1      35.499   0.023  15.964  0.00  0.00    +0.000 C 
BRANCH  21  22
ATOM     22  C   UNL     1      36.735  -0.560  15.437  0.00  0.00    +0.000 C 
ATOM     23  O   UNL     1      36.670  -1.222  14.372  0.00  0.00    +0.000 OA
ATOM     24  N   UNL     1      38.007  -0.429  16.047  0.00  0.00    +0.000 NA
BRANCH  24  25
ATOM     25  C   UNL     1      39.169  -1.024  15.476  0.00  0.00    +0.000 A 
ATOM     26  C   UNL     1      39.501  -2.356  15.690  0.00  0.00    +0.000 A 
ATOM     27  C   UNL     1      40.638  -2.922  15.128  0.00  0.00    +0.000 A 
ATOM     28  C   UNL     1      41.450  -2.142  14.342  0.00  0.00    +0.000 A 
ATOM     29  C   UNL     1      41.139  -0.800  14.112  0.00  0.00    +0.000 A 
ATOM     30  C   UNL     1      39.996  -0.256  14.685  0.00  0.00    +0.000 A 
ATOM     31  C   UNL     1      39.625   1.175  14.464  0.00  0.00    +0.000 C 
ENDBRANCH  24  25
ENDBRANCH  21  22
ENDBRANCH  20  21
ENDBRANCH   5  20
TORSDOF 7
ENDMDL
MODEL 3
REMARK VINA RESULT:      -8.1      1.441      2.296
REMARK  Name = 
REMARK  7 active torsions:
REMARK  status: ('A' for Active; 'I' for Inactive)
REMARK    1  A    between atoms: C_5  and  N_6
REMARK    2  A    between atoms: C_7  and  C_8
REMARK    3  A    between atoms: C_8  and  C_9
REMARK    4  A    between atoms: C_17  and  S_18
REMARK    5  A    between atoms: S_18  and  C_19
REMARK    6  A    between atoms: C_19  and  C_20
REMARK    7  A    between atoms: N_22  and  C_23
REMARK                            x       y       z     vdW  Elec       q    Type
REMARK                         _______ _______ _______ _____ _____    ______ ____
ROOT
ATOM      1  N   UNL     1      36.563  -0.145  15.671  0.00  0.00    +0.000 N 
ATOM      2  C   UNL     1      35.804  -0.500  16.724  0.00  0.00    +0.000 A 
ATOM      3  N   UNL     1      34.915   0.502  16.895  0.00  0.00    +0.000 NA
ATOM      4  N   UNL     1      35.093   1.443  16.007  0.00  0.00    +0.000 NA
ATOM      5  C   UNL     1      36.133   1.049  15.225  0.00  0.00    +0.000 A 
ENDROOT
BRANCH   1  10
ATOM      6  C   UNL     1      40.715  -3.095  13.132  0.00  0.00    +0.000 C 
ATOM      7  C   UNL     1      39.685  -2.310  13.839  0.00  0.00    +0.000 A 
ATOM      8  C   UNL     1      38.397  -2.295  13.307  0.00  0.00    +0.000 A 
ATOM      9  C   UNL     1      37.417  -1.568  13.950  0.00  0.00    +0.000 A 
ATOM     10  C   UNL     1      37.638  -0.857  15.091  0.00  0.00    +0.000 A 
ATOM     11  C   UNL     1      38.907  -0.865  15.627  0.00  0.00    +0.000 A 
ATOM     12  C   UNL     1      39.911  -1.595  14.988  0.00  0.00    +0.000 A 
ENDBRANCH   1  10
BRANCH   2  13
ATOM     13  C   UNL     1      35.933  -1.748  17.521  0.00  0.00    +0.000 C 
BRANCH  13  14
ATOM     14  C   UNL     1      35.657  -2.932  16.690  0.00  0.00    +0.000 A 
ATOM     15  C   UNL     1      34.493  -2.991  15.962  0.00  0.00    +0.000 A 
ATOM     16  C   UNL     1      34.155  -4.041  15.169  0.00  0.00    +0.000 A 
ATOM     17  C   UNL     1      34.999  -5.121  15.066  0.00  0.00    +0.000 A 
ATOM     18  C   UNL     1      36.175  -5.097  15.780  0.00  0.00    +0.000 A 
ATOM     19  C   UNL     1      36.513  -4.005  16.596  0.00  0.00    +0.000 A 
ENDBRANCH  13  14
ENDBRANCH   2  13
BRANCH   5  20
ATOM     20  S   UNL     1      36.731   2.037  13.866  0.00  0.00    +0.000 S 
BRANCH  20  21
ATOM     21  C   UNL     1      36.192   3.758  14.050  0.00  0.00    +0.000 C 
BRANCH  21  22
ATOM     22  C   UNL     1      37.034   4.509  14.985  0.00  0.00    +0.000 C 
ATOM     23  O   UNL     1      36.786   5.728  15.157  0.00  0.00    +0.000 OA
ATOM     24  N   UNL     1      38.115   3.955  15.714  0.00  0.00    +0.000 NA
BRANCH  24  25
ATOM     25  C   UNL     1      38.892   4.746  16.608  0.00  0.00    +0.000 A 
ATOM     26  C   UNL     1      38.587   4.855  17.959  0.00  0.00    +0.000 A 
ATOM     27  C   UNL     1      39.353   5.630  18.818  0.00  0.00    +0.000 A 
ATOM     28  C   UNL     1      40.438   6.305  18.315  0.00  0.00    +0.000 A 
ATOM     29  C   UNL     1      40.766   6.213  16.961  0.00  0.00    +0.000 A 
ATOM     30  C   UNL     1      39.985   5.430  16.120  0.00  0.00    +0.000 A 
ATOM     31  C   UNL     1      40.300   5.303  14.665  0.00  0.00    +0.000 C 
ENDBRANCH  24  25
ENDBRANCH  21  22
ENDBRANCH  20  21
ENDBRANCH   5  20
TORSDOF 7
ENDMDL
MODEL 4
REMARK VINA RESULT:      -8.0      2.555      8.317
REMARK  Name = 
REMARK  7 active torsions:
REMARK  status: ('A' for Active; 'I' for Inactive)
REMARK    1  A    between atoms: C_5  and  N_6
REMARK    2  A    between atoms: C_7  and  C_8
REMARK    3  A    between atoms: C_8  and  C_9
REMARK    4  A    between atoms: C_17  and  S_18
REMARK    5  A    between atoms: S_18  and  C_19
REMARK    6  A    between atoms: C_19  and  C_20
REMARK    7  A    between atoms: N_22  and  C_23
REMARK                            x       y       z     vdW  Elec       q    Type
REMARK                         _______ _______ _______ _____ _____    ______ ____
ROOT
ATOM      1  N   UNL     1      36.997   4.041  15.729  0.00  0.00    +0.000 N 
ATOM      2  C   UNL     1      37.873   4.520  16.631  0.00  0.00    +0.000 A 
ATOM      3  N   UNL     1      37.861   3.644  17.660  0.00  0.00    +0.000 NA
ATOM      4  N   UNL     1      37.029   2.664  17.431  0.00  0.00    +0.000 NA
ATOM      5  C   UNL     1      36.474   2.900  16.213  0.00  0.00    +0.000 A 
ENDROOT
BRANCH   1  10
ATOM      6  C   UNL     1      35.790   6.117  10.569  0.00  0.00    +0.000 C 
ATOM      7  C   UNL     1      36.050   5.616  11.932  0.00  0.00    +0.000 A 
ATOM      8  C   UNL     1      37.097   4.714  12.108  0.00  0.00    +0.000 A 
ATOM      9  C   UNL     1      37.360   4.232  13.374  0.00  0.00    +0.000 A 
ATOM     10  C   UNL     1      36.646   4.594  14.476  0.00  0.00    +0.000 A 
ATOM     11  C   UNL     1      35.608   5.486  14.316  0.00  0.00    +0.000 A 
ATOM     12  C   UNL     1      35.328   5.982  13.041  0.00  0.00    +0.000 A 
ENDBRANCH   1  10
BRANCH   2  13
ATOM     13  C   UNL     1      38.680   5.761  16.502  0.00  0.00    +0.000 C 
BRANCH  13  14
ATOM     14  C   UNL     1      38.900   6.382  17.819  0.00  0.00    +0.000 A 
ATOM     15  C   UNL     1      39.918   5.924  18.621  0.00  0.00    +0.000 A 
ATOM     16  C   UNL     1      40.196   6.436  19.849  0.00  0.00    +0.000 A 
ATOM     17  C   UNL     1      39.438   7.467  20.348  0.00  0.00    +0.000 A 
ATOM     18  C   UNL     1      38.408   7.952  19.573  0.00  0.00    +0.000 A 
ATOM     19  C   UNL     1      38.132   7.415  18.305  0.00  0.00    +0.000 A 
ENDBRANCH  13  14
ENDBRANCH   2  13
BRANCH   5  20
ATOM     20  S   UNL     1      35.266   1.806  15.488  0.00  0.00    +0.000 S 
BRANCH  20  21
ATOM     21  C   UNL     1      34.782   0.523  16.674  0.00  0.00    +0.000 C 
BRANCH  21  22
ATOM     22  C   UNL     1      35.673  -0.639  16.633  0.00  0.00    +0.000 C 
ATOM     23  O   UNL     1      36.567  -0.669  15.752  0.00  0.00    +0.000 OA
ATOM     24  N   UNL     1      35.598  -1.739  17.523  0.00  0.00    +0.000 NA
BRANCH  24  25
ATOM     25  C   UNL     1      36.500  -2.837  17.425  0.00  0.00    +0.000 A 
ATOM     26  C   UNL     1      36.278  -3.904  16.563  0.00  0.00    +0.000 A 
ATOM     27  C   UNL     1      37.166  -4.968  16.479  0.00  0.00    +0.000 A 
ATOM     28  C   UNL     1      38.289  -4.961  17.268  0.00  0.00    +0.000 A 
ATOM     29  C   UNL     1      38.535  -3.901  18.143  0.00  0.00    +0.000 A 
ATOM     30  C   UNL     1      37.633  -2.846  18.210  0.00  0.00    +0.000 A 
ATOM     31  C   UNL     1      37.857  -1.692  19.131  0.00  0.00    +0.000 C 
ENDBRANCH  24  25
ENDBRANCH  21  22
ENDBRANCH  20  21
ENDBRANCH   5  20
TORSDOF 7
ENDMDL
MODEL 5
REMARK VINA RESULT:      -7.8      2.448      8.318
REMARK  Name = 
REMARK  7 active torsions:
REMARK  status: ('A' for Active; 'I' for Inactive)
REMARK    1  A    between atoms: C_5  and  N_6
REMARK    2  A    between atoms: C_7  and  C_8
REMARK    3  A    between atoms: C_8  and  C_9
REMARK    4  A    between atoms: C_17  and  S_18
REMARK    5  A    between atoms: S_18  and  C_19
REMARK    6  A    between atoms: C_19  and  C_20
REMARK    7  A    between atoms: N_22  and  C_23
REMARK                            x       y       z     vdW  Elec       q    Type
REMARK                         _______ _______ _______ _____ _____    ______ ____
ROOT
ATOM      1  N   UNL     1      37.967   4.581  16.379  0.00  0.00    +0.000 N 
ATOM      2  C   UNL     1      38.572   4.842  17.552  0.00  0.00    +0.000 A 
ATOM      3  N   UNL     1      38.140   3.893  18.411  0.00  0.00    +0.000 NA
ATOM      4  N   UNL     1      37.309   3.074  17.824  0.00  0.00    +0.000 NA
ATOM      5  C   UNL     1      37.189   3.496  16.537  0.00  0.00    +0.000 A 
ENDROOT
BRANCH   1  10
ATOM      6  C   UNL     1      38.233   7.579  11.548  0.00  0.00    +0.000 C 
ATOM      7  C   UNL     1      38.220   6.765  12.779  0.00  0.00    +0.000 A 
ATOM      8  C   UNL     1      37.243   7.042  13.733  0.00  0.00    +0.000 A 
ATOM      9  C   UNL     1      37.210   6.294  14.892  0.00  0.00    +0.000 A 
ATOM     10  C   UNL     1      38.088   5.287  15.159  0.00  0.00    +0.000 A 
ATOM     11  C   UNL     1      39.058   5.003  14.223  0.00  0.00    +0.000 A 
ATOM     12  C   UNL     1      39.106   5.752  13.045  0.00  0.00    +0.000 A 
ENDBRANCH   1  10
BRANCH   2  13
ATOM     13  C   UNL     1      39.520   5.953  17.826  0.00  0.00    +0.000 C 
BRANCH  13  14
ATOM     14  C   UNL     1      38.896   6.974  18.686  0.00  0.00    +0.000 A 
ATOM     15  C   UNL     1      39.395   7.190  19.948  0.00  0.00    +0.000 A 
ATOM     16  C   UNL     1      38.886   8.109  20.811  0.00  0.00    +0.000 A 
ATOM     17  C   UNL     1      37.813   8.881  20.433  0.00  0.00    +0.000 A 
ATOM     18  C   UNL     1      37.287   8.692  19.175  0.00  0.00    +0.000 A 
ATOM     19  C   UNL     1      37.823   7.740  18.294  0.00  0.00    +0.000 A 
ENDBRANCH  13  14
ENDBRANCH   2  13
BRANCH   5  20
ATOM     20  S   UNL     1      36.144   2.663  15.355  0.00  0.00    +0.000 S 
BRANCH  20  21
ATOM     21  C   UNL     1      35.198   1.346  16.165  0.00  0.00    +0.000 C 
BRANCH  21  22
ATOM     22  C   UNL     1      35.940   0.085  16.228  0.00  0.00    +0.000 C 
ATOM     23  O   UNL     1      35.348  -0.969  15.890  0.00  0.00    +0.000 OA
ATOM     24  N   UNL     1      37.289  -0.032  16.647  0.00  0.00    +0.000 NA
BRANCH  24  25
ATOM     25  C   UNL     1      37.949  -1.294  16.684  0.00  0.00    +0.000 A 
ATOM     26  C   UNL     1      38.530  -1.860  15.556  0.00  0.00    +0.000 A 
ATOM     27  C   UNL     1      39.169  -3.091  15.607  0.00  0.00    +0.000 A 
ATOM     28  C   UNL     1      39.228  -3.761  16.804  0.00  0.00    +0.000 A 
ATOM     29  C   UNL     1      38.652  -3.214  17.953  0.00  0.00    +0.000 A 
ATOM     30  C   UNL     1      38.017  -1.980  17.877  0.00  0.00    +0.000 A 
ATOM     31  C   UNL     1      37.388  -1.358  19.082  0.00  0.00    +0.000 C 
ENDBRANCH  24  25
ENDBRANCH  21  22
ENDBRANCH  20  21
ENDBRANCH   5  20
TORSDOF 7
ENDMDL
MODEL 6
REMARK VINA RESULT:      -7.7      1.589      2.191
REMARK  Name = 
REMARK  7 active torsions:
REMARK  status: ('A' for Active; 'I' for Inactive)
REMARK    1  A    between atoms: C_5  and  N_6
REMARK    2  A    between atoms: C_7  and  C_8
REMARK    3  A    between atoms: C_8  and  C_9
REMARK    4  A    between atoms: C_17  and  S_18
REMARK    5  A    between atoms: S_18  and  C_19
REMARK    6  A    between atoms: C_19  and  C_20
REMARK    7  A    between atoms: N_22  and  C_23
REMARK                            x       y       z     vdW  Elec       q    Type
REMARK                         _______ _______ _______ _____ _____    ______ ____
ROOT
ATOM      1  N   UNL     1      37.132   1.871  15.046  0.00  0.00    +0.000 N 
ATOM      2  C   UNL     1      36.129   1.722  15.931  0.00  0.00    +0.000 A 
ATOM      3  N   UNL     1      35.920   2.945  16.464  0.00  0.00    +0.000 NA
ATOM      4  N   UNL     1      36.740   3.824  15.954  0.00  0.00    +0.000 NA
ATOM      5  C   UNL     1      37.513   3.161  15.054  0.00  0.00    +0.000 A 
ENDROOT
BRANCH   1  10
ATOM      6  C   UNL     1      39.716  -2.131  11.932  0.00  0.00    +0.000 C 
ATOM      7  C   UNL     1      38.997  -1.089  12.690  0.00  0.00    +0.000 A 
ATOM      8  C   UNL     1      39.522  -0.697  13.919  0.00  0.00    +0.000 A 
ATOM      9  C   UNL     1      38.868   0.277  14.646  0.00  0.00    +0.000 A 
ATOM     10  C   UNL     1      37.724   0.884  14.224  0.00  0.00    +0.000 A 
ATOM     11  C   UNL     1      37.195   0.505  13.009  0.00  0.00    +0.000 A 
ATOM     12  C   UNL     1      37.845  -0.479  12.262  0.00  0.00    +0.000 A 
ENDBRANCH   1  10
BRANCH   2  13
ATOM     13  C   UNL     1      35.410   0.459  16.241  0.00  0.00    +0.000 C 
BRANCH  13  14
ATOM     14  C   UNL     1      36.140  -0.325  17.252  0.00  0.00    +0.000 A 
ATOM     15  C   UNL     1      36.730  -1.512  16.890  0.00  0.00    +0.000 A 
ATOM     16  C   UNL     1      37.423  -2.301  17.753  0.00  0.00    +0.000 A 
ATOM     17  C   UNL     1      37.560  -1.923  19.067  0.00  0.00    +0.000 A 
ATOM     18  C   UNL     1      36.982  -0.739  19.466  0.00  0.00    +0.000 A 
ATOM     19  C   UNL     1      36.269   0.068  18.564  0.00  0.00    +0.000 A 
ENDBRANCH  13  14
ENDBRANCH   2  13
BRANCH   5  20
ATOM     20  S   UNL     1      38.786   3.976  14.107  0.00  0.00    +0.000 S 
BRANCH  20  21
ATOM     21  C   UNL     1      38.655   5.775  14.288  0.00  0.00    +0.000 C 
BRANCH  21  22
ATOM     22  C   UNL     1      39.364   6.269  15.471  0.00  0.00    +0.000 C 
ATOM     23  O   UNL     1      39.237   7.481  15.773  0.00  0.00    +0.000 OA
ATOM     24  N   UNL     1      40.187   5.472  16.304  0.00  0.00    +0.000 NA
BRANCH  24  25
ATOM     25  C   UNL     1      40.847   6.021  17.441  0.00  0.00    +0.000 A 
ATOM     26  C   UNL     1      42.090   6.635  17.352  0.00  0.00    +0.000 A 
ATOM     27  C   UNL     1      42.721   7.165  18.470  0.00  0.00    +0.000 A 
ATOM     28  C   UNL     1      42.097   7.078  19.690  0.00  0.00    +0.000 A 
ATOM     29  C   UNL     1      40.848   6.465  19.806  0.00  0.00    +0.000 A 
ATOM     30  C   UNL     1      40.235   5.943  18.674  0.00  0.00    +0.000 A 
ATOM     31  C   UNL     1      38.898   5.279  18.753  0.00  0.00    +0.000 C 
ENDBRANCH  24  25
ENDBRANCH  21  22
ENDBRANCH  20  21
ENDBRANCH   5  20
TORSDOF 7
ENDMDL
MODEL 7
REMARK VINA RESULT:      -7.7      1.968      2.586
REMARK  Name = 
REMARK  7 active torsions:
REMARK  status: ('A' for Active; 'I' for Inactive)
REMARK    1  A    between atoms: C_5  and  N_6
REMARK    2  A    between atoms: C_7  and  C_8
REMARK    3  A    between atoms: C_8  and  C_9
REMARK    4  A    between atoms: C_17  and  S_18
REMARK    5  A    between atoms: S_18  and  C_19
REMARK    6  A    between atoms: C_19  and  C_20
REMARK    7  A    between atoms: N_22  and  C_23
REMARK                            x       y       z     vdW  Elec       q    Type
REMARK                         _______ _______ _______ _____ _____    ______ ____
ROOT
ATOM      1  N   UNL     1      37.349   0.554  15.047  0.00  0.00    +0.000 N 
ATOM      2  C   UNL     1      37.594  -0.560  15.760  0.00  0.00    +0.000 A 
ATOM      3  N   UNL     1      37.163  -0.300  17.013  0.00  0.00    +0.000 NA
ATOM      4  N   UNL     1      36.671   0.906  17.098  0.00  0.00    +0.000 NA
ATOM      5  C   UNL     1      36.781   1.461  15.862  0.00  0.00    +0.000 A 
ENDROOT
BRANCH   1  10
ATOM      6  C   UNL     1      38.689   1.588   9.613  0.00  0.00    +0.000 C 
ATOM      7  C   UNL     1      38.279   1.299  11.000  0.00  0.00    +0.000 A 
ATOM      8  C   UNL     1      39.208   1.519  12.015  0.00  0.00    +0.000 A 
ATOM      9  C   UNL     1      38.846   1.257  13.321  0.00  0.00    +0.000 A 
ATOM     10  C   UNL     1      37.618   0.791  13.679  0.00  0.00    +0.000 A 
ATOM     11  C   UNL     1      36.689   0.570  12.684  0.00  0.00    +0.000 A 
ATOM     12  C   UNL     1      37.040   0.829  11.358  0.00  0.00    +0.000 A 
ENDBRANCH   1  10
BRANCH   2  13
ATOM     13  C   UNL     1      38.214  -1.812  15.253  0.00  0.00    +0.000 C 
BRANCH  13  14
ATOM     14  C   UNL     1      37.290  -2.950  15.396  0.00  0.00    +0.000 A 
ATOM     15  C   UNL     1      36.132  -2.978  14.656  0.00  0.00    +0.000 A 
ATOM     16  C   UNL     1      35.222  -3.985  14.722  0.00  0.00    +0.000 A 
ATOM     17  C   UNL     1      35.439  -5.049  15.564  0.00  0.00    +0.000 A 
ATOM     18  C   UNL     1      36.589  -5.056  16.321  0.00  0.00    +0.000 A 
ATOM     19  C   UNL     1      37.521  -4.009  16.243  0.00  0.00    +0.000 A 
ENDBRANCH  13  14
ENDBRANCH   2  13
BRANCH   5  20
ATOM     20  S   UNL     1      36.229   3.120  15.509  0.00  0.00    +0.000 S 
BRANCH  20  21
ATOM     21  C   UNL     1      37.640   4.184  15.108  0.00  0.00    +0.000 C 
BRANCH  21  22
ATOM     22  C   UNL     1      38.374   4.611  16.302  0.00  0.00    +0.000 C 
ATOM     23  O   UNL     1      38.465   3.805  17.261  0.00  0.00    +0.000 OA
ATOM     24  N   UNL     1      38.994   5.876  16.453  0.00  0.00    +0.000 NA
BRANCH  24  25
ATOM     25  C   UNL     1      39.693   6.224  17.645  0.00  0.00    +0.000 A 
ATOM     26  C   UNL     1      39.046   6.388  18.863  0.00  0.00    +0.000 A 
ATOM     27  C   UNL     1      39.741   6.727  20.016  0.00  0.00    +0.000 A 
ATOM     28  C   UNL     1      41.101   6.903  19.945  0.00  0.00    +0.000 A 
ATOM     29  C   UNL     1      41.775   6.745  18.732  0.00  0.00    +0.000 A 
ATOM     30  C   UNL     1      41.058   6.405  17.592  0.00  0.00    +0.000 A 
ATOM     31  C   UNL     1      41.740   6.224  16.274  0.00  0.00    +0.000 C 
ENDBRANCH  24  25
ENDBRANCH  21  22
ENDBRANCH  20  21
ENDBRANCH   5  20
TORSDOF 7
ENDMDL
MODEL 8
REMARK VINA RESULT:      -7.6      3.215      5.673
REMARK  Name = 
REMARK  7 active torsions:
REMARK  status: ('A' for Active; 'I' for Inactive)
REMARK    1  A    between atoms: C_5  and  N_6
REMARK    2  A    between atoms: C_7  and  C_8
REMARK    3  A    between atoms: C_8  and  C_9
REMARK    4  A    between atoms: C_17  and  S_18
REMARK    5  A    between atoms: S_18  and  C_19
REMARK    6  A    between atoms: C_19  and  C_20
REMARK    7  A    between atoms: N_22  and  C_23
REMARK                            x       y       z     vdW  Elec       q    Type
REMARK                         _______ _______ _______ _____ _____    ______ ____
ROOT
ATOM      1  N   UNL     1      38.104   4.859  14.871  0.00  0.00    +0.000 N 
ATOM      2  C   UNL     1      37.813   3.621  14.431  0.00  0.00    +0.000 A 
ATOM      3  N   UNL     1      37.100   3.790  13.296  0.00  0.00    +0.000 NA
ATOM      4  N   UNL     1      36.944   5.058  13.026  0.00  0.00    +0.000 NA
ATOM      5  C   UNL     1      37.573   5.748  14.013  0.00  0.00    +0.000 A 
ENDROOT
BRANCH   1  10
ATOM      6  C   UNL     1      40.834   6.227  19.674  0.00  0.00    +0.000 C 
ATOM      7  C   UNL     1      40.181   5.898  18.393  0.00  0.00    +0.000 A 
ATOM      8  C   UNL     1      38.929   5.287  18.437  0.00  0.00    +0.000 A 
ATOM      9  C   UNL     1      38.298   4.970  17.252  0.00  0.00    +0.000 A 
ATOM     10  C   UNL     1      38.834   5.224  16.026  0.00  0.00    +0.000 A 
ATOM     11  C   UNL     1      40.072   5.828  15.969  0.00  0.00    +0.000 A 
ATOM     12  C   UNL     1      40.725   6.154  17.159  0.00  0.00    +0.000 A 
ENDBRANCH   1  10
BRANCH   2  13
ATOM     13  C   UNL     1      38.206   2.342  15.076  0.00  0.00    +0.000 C 
BRANCH  13  14
ATOM     14  C   UNL     1      37.030   1.655  15.637  0.00  0.00    +0.000 A 
ATOM     15  C   UNL     1      36.871   0.306  15.426  0.00  0.00    +0.000 A 
ATOM     16  C   UNL     1      35.820  -0.411  15.905  0.00  0.00    +0.000 A 
ATOM     17  C   UNL     1      34.844   0.215  16.643  0.00  0.00    +0.000 A 
ATOM     18  C   UNL     1      34.970   1.566  16.875  0.00  0.00    +0.000 A 
ATOM     19  C   UNL     1      36.061   2.295  16.375  0.00  0.00    +0.000 A 
ENDBRANCH  13  14
ENDBRANCH   2  13
BRANCH   5  20
ATOM     20  S   UNL     1      37.617   7.531  14.052  0.00  0.00    +0.000 S 
BRANCH  20  21
ATOM     21  C   UNL     1      36.229   8.178  15.021  0.00  0.00    +0.000 C 
BRANCH  21  22
ATOM     22  C   UNL     1      36.654   8.712  16.317  0.00  0.00    +0.000 C 
ATOM     23  O   UNL     1      35.941   9.593  16.857  0.00  0.00    +0.000 OA
ATOM     24  N   UNL     1      37.819   8.301  17.010  0.00  0.00    +0.000 NA
BRANCH  24  25
ATOM     25  C   UNL     1      38.172   8.865  18.270  0.00  0.00    +0.000 A 
ATOM     26  C   UNL     1      37.457   8.593  19.430  0.00  0.00    +0.000 A 
ATOM     27  C   UNL     1      37.812   9.151  20.651  0.00  0.00    +0.000 A 
ATOM     28  C   UNL     1      38.897   9.990  20.708  0.00  0.00    +0.000 A 
ATOM     29  C   UNL     1      39.632  10.280  19.557  0.00  0.00    +0.000 A 
ATOM     30  C   UNL     1      39.258   9.710  18.346  0.00  0.00    +0.000 A 
ATOM     31  C   UNL     1      40.017   9.992  17.090  0.00  0.00    +0.000 C 
ENDBRANCH  24  25
ENDBRANCH  21  22
ENDBRANCH  20  21
ENDBRANCH   5  20
TORSDOF 7
ENDMDL
MODEL 9
REMARK VINA RESULT:      -7.5      2.643      4.956
REMARK  Name = 
REMARK  7 active torsions:
REMARK  status: ('A' for Active; 'I' for Inactive)
REMARK    1  A    between atoms: C_5  and  N_6
REMARK    2  A    between atoms: C_7  and  C_8
REMARK    3  A    between atoms: C_8  and  C_9
REMARK    4  A    between atoms: C_17  and  S_18
REMARK    5  A    between atoms: S_18  and  C_19
REMARK    6  A    between atoms: C_19  and  C_20
REMARK    7  A    between atoms: N_22  and  C_23
REMARK                            x       y       z     vdW  Elec       q    Type
REMARK                         _______ _______ _______ _____ _____    ______ ____
ROOT
ATOM      1  N   UNL     1      36.876   4.176  15.462  0.00  0.00    +0.000 N 
ATOM      2  C   UNL     1      36.311   3.142  16.111  0.00  0.00    +0.000 A 
ATOM      3  N   UNL     1      37.012   2.994  17.255  0.00  0.00    +0.000 NA
ATOM      4  N   UNL     1      37.969   3.880  17.335  0.00  0.00    +0.000 NA
ATOM      5  C   UNL     1      37.896   4.636  16.208  0.00  0.00    +0.000 A 
ENDROOT
BRANCH   1  10
ATOM      6  C   UNL     1      35.216   6.568  10.571  0.00  0.00    +0.000 C 
ATOM      7  C   UNL     1      35.691   5.908  11.802  0.00  0.00    +0.000 A 
ATOM      8  C   UNL     1      35.136   6.312  13.015  0.00  0.00    +0.000 A 
ATOM      9  C   UNL     1      35.563   5.709  14.180  0.00  0.00    +0.000 A 
ATOM     10  C   UNL     1      36.508   4.729  14.213  0.00  0.00    +0.000 A 
ATOM     11  C   UNL     1      37.065   4.320  13.020  0.00  0.00    +0.000 A 
ATOM     12  C   UNL     1      36.644   4.921  11.832  0.00  0.00    +0.000 A 
ENDBRANCH   1  10
BRANCH   2  13
ATOM     13  C   UNL     1      35.150   2.339  15.645  0.00  0.00    +0.000 C 
BRANCH  13  14
ATOM     14  C   UNL     1      35.385   0.902  15.866  0.00  0.00    +0.000 A 
ATOM     15  C   UNL     1      34.747   0.264  16.903  0.00  0.00    +0.000 A 
ATOM     16  C   UNL     1      34.902  -1.057  17.182  0.00  0.00    +0.000 A 
ATOM     17  C   UNL     1      35.734  -1.828  16.407  0.00  0.00    +0.000 A 
ATOM     18  C   UNL     1      36.391  -1.223  15.359  0.00  0.00    +0.000 A 
ATOM     19  C   UNL     1      36.222   0.143  15.080  0.00  0.00    +0.000 A 
ENDBRANCH  13  14
ENDBRANCH   2  13
BRANCH   5  20
ATOM     20  S   UNL     1      39.022   5.982  15.889  0.00  0.00    +0.000 S 
BRANCH  20  21
ATOM     21  C   UNL     1      38.845   7.268  17.154  0.00  0.00    +0.000 C 
BRANCH  21  22
ATOM     22  C   UNL     1      40.022   7.362  18.022  0.00  0.00    +0.000 C 
ATOM     23  O   UNL     1      40.247   8.456  18.597  0.00  0.00    +0.000 OA
ATOM     24  N   UNL     1      40.929   6.301  18.261  0.00  0.00    +0.000 NA
BRANCH  24  25
ATOM     25  C   UNL     1      42.054   6.464  19.119  0.00  0.00    +0.000 A 
ATOM     26  C   UNL     1      41.959   6.337  20.499  0.00  0.00    +0.000 A 
ATOM     27  C   UNL     1      43.065   6.500  21.323  0.00  0.00    +0.000 A 
ATOM     28  C   UNL     1      44.280   6.793  20.755  0.00  0.00    +0.000 A 
ATOM     29  C   UNL     1      44.403   6.928  19.370  0.00  0.00    +0.000 A 
ATOM     30  C   UNL     1      43.282   6.760  18.566  0.00  0.00    +0.000 A 
ATOM     31  C   UNL     1      43.368   6.894  17.080  0.00  0.00    +0.000 C 
ENDBRANCH  24  25
ENDBRANCH  21  22
ENDBRANCH  20  21
ENDBRANCH   5  20
TORSDOF 7
ENDMDL
MODEL 10
REMARK VINA RESULT:      -7.4     26.084     29.438
REMARK  Name = 
REMARK  7 active torsions:
REMARK  status: ('A' for Active; 'I' for Inactive)
REMARK    1  A    between atoms: C_5  and  N_6
REMARK    2  A    between atoms: C_7  and  C_8
REMARK    3  A    between atoms: C_8  and  C_9
REMARK    4  A    between atoms: C_17  and  S_18
REMARK    5  A    between atoms: S_18  and  C_19
REMARK    6  A    between atoms: C_19  and  C_20
REMARK    7  A    between atoms: N_22  and  C_23
REMARK                            x       y       z     vdW  Elec       q    Type
REMARK                         _______ _______ _______ _____ _____    ______ ____
ROOT
ATOM      1  N   UNL     1      26.329  15.824  38.360  0.00  0.00    +0.000 N 
ATOM      2  C   UNL     1      26.601  16.407  37.179  0.00  0.00    +0.000 A 
ATOM      3  N   UNL     1      27.882  16.085  36.894  0.00  0.00    +0.000 NA
ATOM      4  N   UNL     1      28.399  15.343  37.836  0.00  0.00    +0.000 NA
ATOM      5  C   UNL     1      27.428  15.169  38.772  0.00  0.00    +0.000 A 
ENDROOT
BRANCH   1  10
ATOM      6  C   UNL     1      21.561  16.185  41.448  0.00  0.00    +0.000 C 
ATOM      7  C   UNL     1      22.768  16.038  40.613  0.00  0.00    +0.000 A 
ATOM      8  C   UNL     1      23.824  16.920  40.831  0.00  0.00    +0.000 A 
ATOM      9  C   UNL     1      24.964  16.802  40.063  0.00  0.00    +0.000 A 
ATOM     10  C   UNL     1      25.119  15.860  39.092  0.00  0.00    +0.000 A 
ATOM     11  C   UNL     1      24.081  14.981  38.866  0.00  0.00    +0.000 A 
ATOM     12  C   UNL     1      22.920  15.088  39.635  0.00  0.00    +0.000 A 
ENDBRANCH   1  10
BRANCH   2  13
ATOM     13  C   UNL     1      25.668  17.230  36.367  0.00  0.00    +0.000 C 
BRANCH  13  14
ATOM     14  C   UNL     1      25.439  16.617  35.048  0.00  0.00    +0.000 A 
ATOM     15  C   UNL     1      25.698  15.279  34.871  0.00  0.00    +0.000 A 
ATOM     16  C   UNL     1      25.516  14.628  33.692  0.00  0.00    +0.000 A 
ATOM     17  C   UNL     1      25.049  15.314  32.596  0.00  0.00    +0.000 A 
ATOM     18  C   UNL     1      24.778  16.656  32.736  0.00  0.00    +0.000 A 
ATOM     19  C   UNL     1      24.970  17.317  33.960  0.00  0.00    +0.000 A 
ENDBRANCH  13  14
ENDBRANCH   2  13
BRANCH   5  20
ATOM     20  S   UNL     1      27.694  14.209  40.252  0.00  0.00    +0.000 S 
BRANCH  20  21
ATOM     21  C   UNL     1      26.360  13.001  40.471  0.00  0.00    +0.000 C 
BRANCH  21  22
ATOM     22  C   UNL     1      26.801  11.809  41.199  0.00  0.00    +0.000 C 
ATOM     23  O   UNL     1      27.068  11.926  42.420  0.00  0.00    +0.000 OA
ATOM     24  N   UNL     1      26.947  10.524  40.619  0.00  0.00    +0.000 NA
BRANCH  24  25
ATOM     25  C   UNL     1      27.381   9.407  41.390  0.00  0.00    +0.000 A 
ATOM     26  C   UNL     1      26.498   8.624  42.122  0.00  0.00    +0.000 A 
ATOM     27  C   UNL     1      26.935   7.538  42.869  0.00  0.00    +0.000 A 
ATOM     28  C   UNL     1      28.275   7.235  42.880  0.00  0.00    +0.000 A 
ATOM     29  C   UNL     1      29.183   8.008  42.154  0.00  0.00    +0.000 A 
ATOM     30  C   UNL     1      28.722   9.089  41.413  0.00  0.00    +0.000 A 
ATOM     31  C   UNL     1      29.659   9.942  40.620  0.00  0.00    +0.000 C 
ENDBRANCH  24  25
ENDBRANCH  21  22
ENDBRANCH  20  21
ENDBRANCH   5  20
TORSDOF 7
ENDMDL
