MODEL 1
REMARK VINA RESULT:      -7.2      0.000      0.000
REMARK  Name = 
REMARK  3 active torsions:
REMARK  status: ('A' for Active; 'I' for Inactive)
REMARK    1  A    between atoms: C_6  and  C_7
REMARK    2  A    between atoms: C_11  and  N_12
REMARK    3  A    between atoms: C_13  and  C_15
REMARK                            x       y       z     vdW  Elec       q    Type
REMARK                         _______ _______ _______ _____ _____    ______ ____
ROOT
ATOM      1  C   UNL     1      17.752   8.898  35.458  0.00  0.00    +0.000 C 
ATOM      2  C   UNL     1      18.555   9.695  36.453  0.00  0.00    +0.000 A 
ATOM      3  C   UNL     1      19.929   9.678  36.377  0.00  0.00    +0.000 A 
ATOM      4  C   UNL     1      20.694  10.402  37.283  0.00  0.00    +0.000 A 
ATOM      5  O   UNL     1      22.077  10.343  37.150  0.00  0.00    +0.000 OA
ATOM      6  C   UNL     1      20.105  11.154  38.282  0.00  0.00    +0.000 A 
ATOM      7  C   UNL     1      18.736  11.159  38.344  0.00  0.00    +0.000 A 
ATOM      8  C   UNL     1      17.965  10.442  37.447  0.00  0.00    +0.000 A 
ENDROOT
BRANCH   6   9
ATOM      9  C   UNL     1      20.999  11.901  39.208  0.00  0.00    +0.000 C 
ATOM     10  C   UNL     1      20.831  11.414  40.634  0.00  0.00    +0.000 C 
ATOM     11  C   UNL     1      20.764  13.398  39.107  0.00  0.00    +0.000 C 
ENDBRANCH   6   9
BRANCH   8  12
ATOM     12  N   UNL     1      16.524  10.464  37.524  0.00  0.00    +0.000 NA
ATOM     13  C   UNL     1      15.807  11.652  37.242  0.00  0.00    +0.000 C 
ATOM     14  O   UNL     1      16.402  12.703  36.923  0.00  0.00    +0.000 OA
BRANCH  13  15
ATOM     15  C   UNL     1      14.365  11.648  37.324  0.00  0.00    +0.000 A 
ATOM     16  C   UNL     1      13.759  10.758  38.200  0.00  0.00    +0.000 A 
ATOM     17  C   UNL     1      12.387  10.731  38.307  0.00  0.00    +0.000 A 
ATOM     18  C   UNL     1      11.588  11.574  37.557  0.00  0.00    +0.000 A 
ATOM     19  C   UNL     1      12.193  12.440  36.702  0.00  0.00    +0.000 A 
ATOM     20  C   UNL     1      13.559  12.480  36.585  0.00  0.00    +0.000 A 
ENDBRANCH  13  15
ENDBRANCH   8  12
TORSDOF 3
ENDMDL
MODEL 2
REMARK VINA RESULT:      -6.1      3.111      7.115
REMARK  Name = 
REMARK  3 active torsions:
REMARK  status: ('A' for Active; 'I' for Inactive)
REMARK    1  A    between atoms: C_6  and  C_7
REMARK    2  A    between atoms: C_11  and  N_12
REMARK    3  A    between atoms: C_13  and  C_15
REMARK                            x       y       z     vdW  Elec       q    Type
REMARK                         _______ _______ _______ _____ _____    ______ ____
ROOT
ATOM      1  C   UNL     1      17.627  11.250  36.488  0.00  0.00    +0.000 C 
ATOM      2  C   UNL     1      17.471  10.511  37.792  0.00  0.00    +0.000 A 
ATOM      3  C   UNL     1      16.260  10.542  38.444  0.00  0.00    +0.000 A 
ATOM      4  C   UNL     1      16.090   9.870  39.648  0.00  0.00    +0.000 A 
ATOM      5  O   UNL     1      14.841   9.943  40.254  0.00  0.00    +0.000 OA
ATOM      6  C   UNL     1      17.123   9.156  40.225  0.00  0.00    +0.000 A 
ATOM      7  C   UNL     1      18.322   9.136  39.562  0.00  0.00    +0.000 A 
ATOM      8  C   UNL     1      18.502   9.800  38.364  0.00  0.00    +0.000 A 
ENDROOT
BRANCH   6   9
ATOM      9  C   UNL     1      16.853   8.463  41.514  0.00  0.00    +0.000 C 
ATOM     10  C   UNL     1      17.956   8.741  42.519  0.00  0.00    +0.000 C 
ATOM     11  C   UNL     1      16.662   6.972  41.305  0.00  0.00    +0.000 C 
ENDBRANCH   6   9
BRANCH   8  12
ATOM     12  N   UNL     1      19.771   9.762  37.677  0.00  0.00    +0.000 NA
ATOM     13  C   UNL     1      20.845  10.579  38.106  0.00  0.00    +0.000 C 
ATOM     14  O   UNL     1      20.719  11.349  39.081  0.00  0.00    +0.000 OA
BRANCH  13  15
ATOM     15  C   UNL     1      22.106  10.522  37.403  0.00  0.00    +0.000 A 
ATOM     16  C   UNL     1      23.057  11.494  37.678  0.00  0.00    +0.000 A 
ATOM     17  C   UNL     1      24.271  11.467  37.030  0.00  0.00    +0.000 A 
ATOM     18  C   UNL     1      24.572  10.488  36.102  0.00  0.00    +0.000 A 
ATOM     19  C   UNL     1      23.632   9.541  35.841  0.00  0.00    +0.000 A 
ATOM     20  C   UNL     1      22.418   9.554  36.479  0.00  0.00    +0.000 A 
ENDBRANCH  13  15
ENDBRANCH   8  12
TORSDOF 3
ENDMDL
MODEL 3
REMARK VINA RESULT:      -6.1      1.971      2.903
REMARK  Name = 
REMARK  3 active torsions:
REMARK  status: ('A' for Active; 'I' for Inactive)
REMARK    1  A    between atoms: C_6  and  C_7
REMARK    2  A    between atoms: C_11  and  N_12
REMARK    3  A    between atoms: C_13  and  C_15
REMARK                            x       y       z     vdW  Elec       q    Type
REMARK                         _______ _______ _______ _____ _____    ______ ____
ROOT
ATOM      1  C   UNL     1      17.651   9.498  40.315  0.00  0.00    +0.000 C 
ATOM      2  C   UNL     1      18.952   9.713  39.586  0.00  0.00    +0.000 A 
ATOM      3  C   UNL     1      20.080   9.048  40.010  0.00  0.00    +0.000 A 
ATOM      4  C   UNL     1      21.292   9.229  39.356  0.00  0.00    +0.000 A 
ATOM      5  O   UNL     1      22.393   8.527  39.835  0.00  0.00    +0.000 OA
ATOM      6  C   UNL     1      21.405  10.077  38.271  0.00  0.00    +0.000 A 
ATOM      7  C   UNL     1      20.271  10.732  37.862  0.00  0.00    +0.000 A 
ATOM      8  C   UNL     1      19.060  10.559  38.505  0.00  0.00    +0.000 A 
ENDROOT
BRANCH   6   9
ATOM      9  C   UNL     1      22.740  10.210  37.628  0.00  0.00    +0.000 C 
ATOM     10  C   UNL     1      23.395  11.525  38.007  0.00  0.00    +0.000 C 
ATOM     11  C   UNL     1      22.640  10.060  36.120  0.00  0.00    +0.000 C 
ENDBRANCH   6   9
BRANCH   8  12
ATOM     12  N   UNL     1      17.876  11.252  38.057  0.00  0.00    +0.000 NA
ATOM     13  C   UNL     1      17.092  10.728  37.001  0.00  0.00    +0.000 C 
ATOM     14  O   UNL     1      17.407   9.660  36.435  0.00  0.00    +0.000 OA
BRANCH  13  15
ATOM     15  C   UNL     1      15.911  11.440  36.572  0.00  0.00    +0.000 A 
ATOM     16  C   UNL     1      14.853  11.556  37.463  0.00  0.00    +0.000 A 
ATOM     17  C   UNL     1      13.714  12.232  37.088  0.00  0.00    +0.000 A 
ATOM     18  C   UNL     1      13.594  12.804  35.835  0.00  0.00    +0.000 A 
ATOM     19  C   UNL     1      14.636  12.683  34.972  0.00  0.00    +0.000 A 
ATOM     20  C   UNL     1      15.778  12.014  35.330  0.00  0.00    +0.000 A 
ENDBRANCH  13  15
ENDBRANCH   8  12
TORSDOF 3
ENDMDL
MODEL 4
REMARK VINA RESULT:      -5.9     19.221     21.481
REMARK  Name = 
REMARK  3 active torsions:
REMARK  status: ('A' for Active; 'I' for Inactive)
REMARK    1  A    between atoms: C_6  and  C_7
REMARK    2  A    between atoms: C_11  and  N_12
REMARK    3  A    between atoms: C_13  and  C_15
REMARK                            x       y       z     vdW  Elec       q    Type
REMARK                         _______ _______ _______ _____ _____    ______ ____
ROOT
ATOM      1  C   UNL     1      31.767  23.245  24.488  0.00  0.00    +0.000 C 
ATOM      2  C   UNL     1      30.285  23.496  24.390  0.00  0.00    +0.000 A 
ATOM      3  C   UNL     1      29.775  24.090  23.258  0.00  0.00    +0.000 A 
ATOM      4  C   UNL     1      28.413  24.334  23.142  0.00  0.00    +0.000 A 
ATOM      5  O   UNL     1      27.964  24.937  21.973  0.00  0.00    +0.000 OA
ATOM      6  C   UNL     1      27.533  23.993  24.152  0.00  0.00    +0.000 A 
ATOM      7  C   UNL     1      28.057  23.402  25.273  0.00  0.00    +0.000 A 
ATOM      8  C   UNL     1      29.411  23.155  25.398  0.00  0.00    +0.000 A 
ENDROOT
BRANCH   6   9
ATOM      9  C   UNL     1      26.089  24.287  23.944  0.00  0.00    +0.000 C 
ATOM     10  C   UNL     1      25.454  24.812  25.218  0.00  0.00    +0.000 C 
ATOM     11  C   UNL     1      25.350  23.066  23.425  0.00  0.00    +0.000 C 
ENDBRANCH   6   9
BRANCH   8  12
ATOM     12  N   UNL     1      29.944  22.526  26.583  0.00  0.00    +0.000 NA
ATOM     13  C   UNL     1      30.318  23.306  27.704  0.00  0.00    +0.000 C 
ATOM     14  O   UNL     1      30.197  24.550  27.692  0.00  0.00    +0.000 OA
BRANCH  13  15
ATOM     15  C   UNL     1      30.848  22.654  28.878  0.00  0.00    +0.000 A 
ATOM     16  C   UNL     1      32.038  21.951  28.759  0.00  0.00    +0.000 A 
ATOM     17  C   UNL     1      32.574  21.321  29.860  0.00  0.00    +0.000 A 
ATOM     18  C   UNL     1      31.952  21.370  31.093  0.00  0.00    +0.000 A 
ATOM     19  C   UNL     1      30.786  22.061  31.197  0.00  0.00    +0.000 A 
ATOM     20  C   UNL     1      30.240  22.695  30.110  0.00  0.00    +0.000 A 
ENDBRANCH  13  15
ENDBRANCH   8  12
TORSDOF 3
ENDMDL
MODEL 5
REMARK VINA RESULT:      -5.9     21.154     23.918
REMARK  Name = 
REMARK  3 active torsions:
REMARK  status: ('A' for Active; 'I' for Inactive)
REMARK    1  A    between atoms: C_6  and  C_7
REMARK    2  A    between atoms: C_11  and  N_12
REMARK    3  A    between atoms: C_13  and  C_15
REMARK                            x       y       z     vdW  Elec       q    Type
REMARK                         _______ _______ _______ _____ _____    ______ ____
ROOT
ATOM      1  C   UNL     1      31.070  22.294  27.113  0.00  0.00    +0.000 C 
ATOM      2  C   UNL     1      30.057  22.771  26.105  0.00  0.00    +0.000 A 
ATOM      3  C   UNL     1      28.721  22.524  26.324  0.00  0.00    +0.000 A 
ATOM      4  C   UNL     1      27.766  22.952  25.410  0.00  0.00    +0.000 A 
ATOM      5  O   UNL     1      26.434  22.670  25.692  0.00  0.00    +0.000 OA
ATOM      6  C   UNL     1      28.124  23.632  24.261  0.00  0.00    +0.000 A 
ATOM      7  C   UNL     1      29.459  23.869  24.059  0.00  0.00    +0.000 A 
ATOM      8  C   UNL     1      30.417  23.448  24.961  0.00  0.00    +0.000 A 
ENDROOT
BRANCH   6   9
ATOM      9  C   UNL     1      27.037  24.056  23.338  0.00  0.00    +0.000 C 
ATOM     10  C   UNL     1      27.475  23.931  21.891  0.00  0.00    +0.000 C 
ATOM     11  C   UNL     1      26.572  25.467  23.651  0.00  0.00    +0.000 C 
ENDBRANCH   6   9
BRANCH   8  12
ATOM     12  N   UNL     1      31.818  23.712  24.734  0.00  0.00    +0.000 NA
ATOM     13  C   UNL     1      32.387  24.952  25.115  0.00  0.00    +0.000 C 
ATOM     14  O   UNL     1      31.692  25.841  25.651  0.00  0.00    +0.000 OA
BRANCH  13  15
ATOM     15  C   UNL     1      33.791  25.191  24.878  0.00  0.00    +0.000 A 
ATOM     16  C   UNL     1      34.284  26.471  25.087  0.00  0.00    +0.000 A 
ATOM     17  C   UNL     1      35.619  26.734  24.875  0.00  0.00    +0.000 A 
ATOM     18  C   UNL     1      36.490  25.746  24.456  0.00  0.00    +0.000 A 
ATOM     19  C   UNL     1      35.996  24.496  24.255  0.00  0.00    +0.000 A 
ATOM     20  C   UNL     1      34.669  24.219  24.462  0.00  0.00    +0.000 A 
ENDBRANCH  13  15
ENDBRANCH   8  12
TORSDOF 3
ENDMDL
MODEL 6
REMARK VINA RESULT:      -5.8      2.579      3.882
REMARK  Name = 
REMARK  3 active torsions:
REMARK  status: ('A' for Active; 'I' for Inactive)
REMARK    1  A    between atoms: C_6  and  C_7
REMARK    2  A    between atoms: C_11  and  N_12
REMARK    3  A    between atoms: C_13  and  C_15
REMARK                            x       y       z     vdW  Elec       q    Type
REMARK                         _______ _______ _______ _____ _____    ______ ____
ROOT
ATOM      1  C   UNL     1      19.594   8.688  40.066  0.00  0.00    +0.000 C 
ATOM      2  C   UNL     1      20.780   9.199  39.290  0.00  0.00    +0.000 A 
ATOM      3  C   UNL     1      22.029   8.684  39.552  0.00  0.00    +0.000 A 
ATOM      4  C   UNL     1      23.140   9.138  38.852  0.00  0.00    +0.000 A 
ATOM      5  O   UNL     1      24.372   8.576  39.166  0.00  0.00    +0.000 OA
ATOM      6  C   UNL     1      23.028  10.114  37.880  0.00  0.00    +0.000 A 
ATOM      7  C   UNL     1      21.777  10.616  37.632  0.00  0.00    +0.000 A 
ATOM      8  C   UNL     1      20.665  10.171  38.322  0.00  0.00    +0.000 A 
ENDROOT
BRANCH   6   9
ATOM      9  C   UNL     1      24.268  10.540  37.176  0.00  0.00    +0.000 C 
ATOM     10  C   UNL     1      24.464  12.040  37.284  0.00  0.00    +0.000 C 
ATOM     11  C   UNL     1      24.258  10.089  35.727  0.00  0.00    +0.000 C 
ENDBRANCH   6   9
BRANCH   8  12
ATOM     12  N   UNL     1      19.354  10.707  38.042  0.00  0.00    +0.000 NA
ATOM     13  C   UNL     1      18.622  10.266  36.914  0.00  0.00    +0.000 C 
ATOM     14  O   UNL     1      19.093   9.408  36.137  0.00  0.00    +0.000 OA
BRANCH  13  15
ATOM     15  C   UNL     1      17.312  10.816  36.657  0.00  0.00    +0.000 A 
ATOM     16  C   UNL     1      16.967  11.108  35.345  0.00  0.00    +0.000 A 
ATOM     17  C   UNL     1      15.725  11.629  35.063  0.00  0.00    +0.000 A 
ATOM     18  C   UNL     1      14.802  11.874  36.063  0.00  0.00    +0.000 A 
ATOM     19  C   UNL     1      15.151  11.584  37.344  0.00  0.00    +0.000 A 
ATOM     20  C   UNL     1      16.385  11.064  37.640  0.00  0.00    +0.000 A 
ENDBRANCH  13  15
ENDBRANCH   8  12
TORSDOF 3
ENDMDL
MODEL 7
REMARK VINA RESULT:      -5.8     18.076     20.108
REMARK  Name = 
REMARK  3 active torsions:
REMARK  status: ('A' for Active; 'I' for Inactive)
REMARK    1  A    between atoms: C_6  and  C_7
REMARK    2  A    between atoms: C_11  and  N_12
REMARK    3  A    between atoms: C_13  and  C_15
REMARK                            x       y       z     vdW  Elec       q    Type
REMARK                         _______ _______ _______ _____ _____    ______ ____
ROOT
ATOM      1  C   UNL     1      34.120   0.070  38.602  0.00  0.00    +0.000 C 
ATOM      2  C   UNL     1      34.071   1.265  37.685  0.00  0.00    +0.000 A 
ATOM      3  C   UNL     1      34.075   2.530  38.226  0.00  0.00    +0.000 A 
ATOM      4  C   UNL     1      34.028   3.649  37.404  0.00  0.00    +0.000 A 
ATOM      5  O   UNL     1      34.035   4.898  38.015  0.00  0.00    +0.000 OA
ATOM      6  C   UNL     1      33.976   3.528  36.028  0.00  0.00    +0.000 A 
ATOM      7  C   UNL     1      33.973   2.260  35.506  0.00  0.00    +0.000 A 
ATOM      8  C   UNL     1      34.019   1.141  36.315  0.00  0.00    +0.000 A 
ENDROOT
BRANCH   6   9
ATOM      9  C   UNL     1      33.932   4.778  35.222  0.00  0.00    +0.000 C 
ATOM     10  C   UNL     1      33.089   4.589  33.975  0.00  0.00    +0.000 C 
ATOM     11  C   UNL     1      35.331   5.255  34.872  0.00  0.00    +0.000 C 
ENDBRANCH   6   9
BRANCH   8  12
ATOM     12  N   UNL     1      34.021  -0.186  35.747  0.00  0.00    +0.000 NA
ATOM     13  C   UNL     1      32.863  -0.699  35.113  0.00  0.00    +0.000 C 
ATOM     14  O   UNL     1      31.819  -0.018  35.034  0.00  0.00    +0.000 OA
BRANCH  13  15
ATOM     15  C   UNL     1      32.891  -2.029  34.552  0.00  0.00    +0.000 A 
ATOM     16  C   UNL     1      32.123  -3.014  35.156  0.00  0.00    +0.000 A 
ATOM     17  C   UNL     1      32.123  -4.292  34.644  0.00  0.00    +0.000 A 
ATOM     18  C   UNL     1      32.874  -4.624  33.532  0.00  0.00    +0.000 A 
ATOM     19  C   UNL     1      33.622  -3.650  32.949  0.00  0.00    +0.000 A 
ATOM     20  C   UNL     1      33.632  -2.372  33.446  0.00  0.00    +0.000 A 
ENDBRANCH  13  15
ENDBRANCH   8  12
TORSDOF 3
ENDMDL
MODEL 8
REMARK VINA RESULT:      -5.7     20.568     23.280
REMARK  Name = 
REMARK  3 active torsions:
REMARK  status: ('A' for Active; 'I' for Inactive)
REMARK    1  A    between atoms: C_6  and  C_7
REMARK    2  A    between atoms: C_11  and  N_12
REMARK    3  A    between atoms: C_13  and  C_15
REMARK                            x       y       z     vdW  Elec       q    Type
REMARK                         _______ _______ _______ _____ _____    ______ ____
ROOT
ATOM      1  C   UNL     1      29.429  24.601  22.400  0.00  0.00    +0.000 C 
ATOM      2  C   UNL     1      28.810  24.215  23.718  0.00  0.00    +0.000 A 
ATOM      3  C   UNL     1      27.561  23.638  23.732  0.00  0.00    +0.000 A 
ATOM      4  C   UNL     1      26.966  23.274  24.934  0.00  0.00    +0.000 A 
ATOM      5  O   UNL     1      25.703  22.695  24.877  0.00  0.00    +0.000 OA
ATOM      6  C   UNL     1      27.603  23.479  26.143  0.00  0.00    +0.000 A 
ATOM      7  C   UNL     1      28.847  24.056  26.110  0.00  0.00    +0.000 A 
ATOM      8  C   UNL     1      29.447  24.421  24.921  0.00  0.00    +0.000 A 
ENDROOT
BRANCH   6   9
ATOM      9  C   UNL     1      26.896  23.056  27.382  0.00  0.00    +0.000 C 
ATOM     10  C   UNL     1      26.140  24.219  27.998  0.00  0.00    +0.000 C 
ATOM     11  C   UNL     1      27.859  22.437  28.379  0.00  0.00    +0.000 C 
ENDBRANCH   6   9
BRANCH   8  12
ATOM     12  N   UNL     1      30.760  25.022  24.906  0.00  0.00    +0.000 NA
ATOM     13  C   UNL     1      31.918  24.216  24.790  0.00  0.00    +0.000 C 
ATOM     14  O   UNL     1      31.830  22.973  24.701  0.00  0.00    +0.000 OA
BRANCH  13  15
ATOM     15  C   UNL     1      33.220  24.840  24.776  0.00  0.00    +0.000 A 
ATOM     16  C   UNL     1      33.309  26.183  25.115  0.00  0.00    +0.000 A 
ATOM     17  C   UNL     1      34.535  26.809  25.116  0.00  0.00    +0.000 A 
ATOM     18  C   UNL     1      35.692  26.129  24.785  0.00  0.00    +0.000 A 
ATOM     19  C   UNL     1      35.592  24.815  24.455  0.00  0.00    +0.000 A 
ATOM     20  C   UNL     1      34.379  24.177  24.450  0.00  0.00    +0.000 A 
ENDBRANCH  13  15
ENDBRANCH   8  12
TORSDOF 3
ENDMDL
MODEL 9
REMARK VINA RESULT:      -5.7     18.214     19.877
REMARK  Name = 
REMARK  3 active torsions:
REMARK  status: ('A' for Active; 'I' for Inactive)
REMARK    1  A    between atoms: C_6  and  C_7
REMARK    2  A    between atoms: C_11  and  N_12
REMARK    3  A    between atoms: C_13  and  C_15
REMARK                            x       y       z     vdW  Elec       q    Type
REMARK                         _______ _______ _______ _____ _____    ______ ____
ROOT
ATOM      1  C   UNL     1      27.326  22.644  28.691  0.00  0.00    +0.000 C 
ATOM      2  C   UNL     1      27.656  22.898  27.242  0.00  0.00    +0.000 A 
ATOM      3  C   UNL     1      28.838  22.418  26.727  0.00  0.00    +0.000 A 
ATOM      4  C   UNL     1      29.168  22.640  25.396  0.00  0.00    +0.000 A 
ATOM      5  O   UNL     1      30.377  22.128  24.938  0.00  0.00    +0.000 OA
ATOM      6  C   UNL     1      28.328  23.344  24.554  0.00  0.00    +0.000 A 
ATOM      7  C   UNL     1      27.155  23.815  25.085  0.00  0.00    +0.000 A 
ATOM      8  C   UNL     1      26.817  23.600  26.407  0.00  0.00    +0.000 A 
ENDROOT
BRANCH   6   9
ATOM      9  C   UNL     1      28.757  23.533  23.142  0.00  0.00    +0.000 C 
ATOM     10  C   UNL     1      29.725  24.694  23.021  0.00  0.00    +0.000 C 
ATOM     11  C   UNL     1      27.561  23.717  22.226  0.00  0.00    +0.000 C 
ENDBRANCH   6   9
BRANCH   8  12
ATOM     12  N   UNL     1      25.574  24.099  26.947  0.00  0.00    +0.000 NA
ATOM     13  C   UNL     1      25.476  25.432  27.412  0.00  0.00    +0.000 C 
ATOM     14  O   UNL     1      26.458  26.203  27.369  0.00  0.00    +0.000 OA
BRANCH  13  15
ATOM     15  C   UNL     1      24.221  25.908  27.946  0.00  0.00    +0.000 A 
ATOM     16  C   UNL     1      24.178  26.295  29.277  0.00  0.00    +0.000 A 
ATOM     17  C   UNL     1      22.999  26.758  29.818  0.00  0.00    +0.000 A 
ATOM     18  C   UNL     1      21.845  26.848  29.062  0.00  0.00    +0.000 A 
ATOM     19  C   UNL     1      21.900  26.465  27.759  0.00  0.00    +0.000 A 
ATOM     20  C   UNL     1      23.067  26.003  27.206  0.00  0.00    +0.000 A 
ENDBRANCH  13  15
ENDBRANCH   8  12
TORSDOF 3
ENDMDL
MODEL 10
REMARK VINA RESULT:      -5.7     18.542     20.787
REMARK  Name = 
REMARK  3 active torsions:
REMARK  status: ('A' for Active; 'I' for Inactive)
REMARK    1  A    between atoms: C_6  and  C_7
REMARK    2  A    between atoms: C_11  and  N_12
REMARK    3  A    between atoms: C_13  and  C_15
REMARK                            x       y       z     vdW  Elec       q    Type
REMARK                         _______ _______ _______ _____ _____    ______ ____
ROOT
ATOM      1  C   UNL     1      24.941  26.517  26.529  0.00  0.00    +0.000 C 
ATOM      2  C   UNL     1      25.524  25.548  27.525  0.00  0.00    +0.000 A 
ATOM      3  C   UNL     1      25.133  25.621  28.843  0.00  0.00    +0.000 A 
ATOM      4  C   UNL     1      25.656  24.741  29.782  0.00  0.00    +0.000 A 
ATOM      5  O   UNL     1      25.219  24.868  31.096  0.00  0.00    +0.000 OA
ATOM      6  C   UNL     1      26.578  23.774  29.428  0.00  0.00    +0.000 A 
ATOM      7  C   UNL     1      26.956  23.717  28.111  0.00  0.00    +0.000 A 
ATOM      8  C   UNL     1      26.442  24.587  27.169  0.00  0.00    +0.000 A 
ENDROOT
BRANCH   6   9
ATOM      9  C   UNL     1      27.084  22.871  30.497  0.00  0.00    +0.000 C 
ATOM     10  C   UNL     1      28.583  22.670  30.372  0.00  0.00    +0.000 C 
ATOM     11  C   UNL     1      26.349  21.543  30.486  0.00  0.00    +0.000 C 
ENDBRANCH   6   9
BRANCH   8  12
ATOM     12  N   UNL     1      26.848  24.507  25.786  0.00  0.00    +0.000 NA
ATOM     13  C   UNL     1      28.017  25.169  25.340  0.00  0.00    +0.000 C 
ATOM     14  O   UNL     1      28.720  25.836  26.129  0.00  0.00    +0.000 OA
BRANCH  13  15
ATOM     15  C   UNL     1      28.403  25.073  23.952  0.00  0.00    +0.000 A 
ATOM     16  C   UNL     1      28.064  23.923  23.253  0.00  0.00    +0.000 A 
ATOM     17  C   UNL     1      28.412  23.800  21.927  0.00  0.00    +0.000 A 
ATOM     18  C   UNL     1      29.098  24.801  21.265  0.00  0.00    +0.000 A 
ATOM     19  C   UNL     1      29.424  25.923  21.960  0.00  0.00    +0.000 A 
ATOM     20  C   UNL     1      29.084  26.061  23.281  0.00  0.00    +0.000 A 
ENDBRANCH  13  15
ENDBRANCH   8  12
TORSDOF 3
ENDMDL
