MODEL 1
REMARK VINA RESULT:      -7.1      0.000      0.000
REMARK  Name = 
REMARK  2 active torsions:
REMARK  status: ('A' for Active; 'I' for Inactive)
REMARK    1  A    between atoms: N_6  and  C_7
REMARK    2  A    between atoms: C_7  and  C_8
REMARK                            x       y       z     vdW  Elec       q    Type
REMARK                         _______ _______ _______ _____ _____    ______ ____
ROOT
ATOM      1  C   UNL     1      15.882  10.913  33.166  0.00  0.00    +0.000 C 
ATOM      2  O   UNL     1      16.771  10.153  32.723  0.00  0.00    +0.000 OA
ATOM      3  N   UNL     1      15.898  11.289  34.530  0.00  0.00    +0.000 N 
ATOM      4  C   UNL     1      14.867  12.176  35.067  0.00  0.00    +0.000 C 
ATOM      5  C   UNL     1      15.026  12.420  36.524  0.00  0.00    +0.000 C 
ATOM      6  C   UNL     1      16.482  12.741  36.887  0.00  0.00    +0.000 C 
ATOM      7  C   UNL     1      17.231  11.495  36.591  0.00  0.00    +0.000 A 
ATOM      8  C   UNL     1      18.219  11.022  37.451  0.00  0.00    +0.000 A 
ATOM      9  C   UNL     1      18.840   9.852  37.062  0.00  0.00    +0.000 A 
ATOM     10  C   UNL     1      18.533   9.168  35.911  0.00  0.00    +0.000 A 
ATOM     11  C   UNL     1      17.555   9.663  35.089  0.00  0.00    +0.000 A 
ATOM     12  C   UNL     1      16.907  10.825  35.432  0.00  0.00    +0.000 A 
ENDROOT
BRANCH   1  13
ATOM     13  C   UNL     1      14.817  11.426  32.296  0.00  0.00    +0.000 C 
BRANCH  13  19
ATOM     14  N   UNL     1      13.475  14.107  32.385  0.00  0.00    +0.000 NA
ATOM     15  C   UNL     1      14.656  13.794  31.611  0.00  0.00    +0.000 A 
ATOM     16  S   UNL     1      15.574  14.796  30.585  0.00  0.00    +0.000 S 
ATOM     17  C   UNL     1      16.741  13.651  30.103  0.00  0.00    +0.000 A 
ATOM     18  C   UNL     1      16.340  12.541  30.781  0.00  0.00    +0.000 A 
ATOM     19  N   UNL     1      15.289  12.616  31.540  0.00  0.00    +0.000 N 
ENDBRANCH  13  19
ENDBRANCH   1  13
TORSDOF 2
ENDMDL
MODEL 2
REMARK VINA RESULT:      -6.8      3.404      6.023
REMARK  Name = 
REMARK  2 active torsions:
REMARK  status: ('A' for Active; 'I' for Inactive)
REMARK    1  A    between atoms: N_6  and  C_7
REMARK    2  A    between atoms: C_7  and  C_8
REMARK                            x       y       z     vdW  Elec       q    Type
REMARK                         _______ _______ _______ _____ _____    ______ ____
ROOT
ATOM      1  C   UNL     1      18.035   9.571  36.109  0.00  0.00    +0.000 C 
ATOM      2  O   UNL     1      18.136   8.732  35.187  0.00  0.00    +0.000 OA
ATOM      3  N   UNL     1      17.284  10.752  35.903  0.00  0.00    +0.000 N 
ATOM      4  C   UNL     1      17.153  11.745  36.968  0.00  0.00    +0.000 C 
ATOM      5  C   UNL     1      16.367  12.934  36.548  0.00  0.00    +0.000 C 
ATOM      6  C   UNL     1      15.083  12.529  35.810  0.00  0.00    +0.000 C 
ATOM      7  C   UNL     1      15.553  11.880  34.561  0.00  0.00    +0.000 A 
ATOM      8  C   UNL     1      14.931  12.127  33.339  0.00  0.00    +0.000 A 
ATOM      9  C   UNL     1      15.464  11.462  32.252  0.00  0.00    +0.000 A 
ATOM     10  C   UNL     1      16.535  10.606  32.329  0.00  0.00    +0.000 A 
ATOM     11  C   UNL     1      17.121  10.387  33.548  0.00  0.00    +0.000 A 
ATOM     12  C   UNL     1      16.628  11.025  34.660  0.00  0.00    +0.000 A 
ENDROOT
BRANCH   1  13
ATOM     13  C   UNL     1      18.681   9.354  37.408  0.00  0.00    +0.000 C 
BRANCH  13  19
ATOM     14  N   UNL     1      19.716  11.223  39.513  0.00  0.00    +0.000 NA
ATOM     15  C   UNL     1      20.473  10.757  38.372  0.00  0.00    +0.000 A 
ATOM     16  S   UNL     1      22.075  11.110  37.917  0.00  0.00    +0.000 S 
ATOM     17  C   UNL     1      22.142  10.168  36.498  0.00  0.00    +0.000 A 
ATOM     18  C   UNL     1      20.893   9.626  36.464  0.00  0.00    +0.000 A 
ATOM     19  N   UNL     1      20.055   9.924  37.410  0.00  0.00    +0.000 N 
ENDBRANCH  13  19
ENDBRANCH   1  13
TORSDOF 2
ENDMDL
MODEL 3
REMARK VINA RESULT:      -6.5     18.434     20.500
REMARK  Name = 
REMARK  2 active torsions:
REMARK  status: ('A' for Active; 'I' for Inactive)
REMARK    1  A    between atoms: N_6  and  C_7
REMARK    2  A    between atoms: C_7  and  C_8
REMARK                            x       y       z     vdW  Elec       q    Type
REMARK                         _______ _______ _______ _____ _____    ______ ____
ROOT
ATOM      1  C   UNL     1      28.621  24.231  22.638  0.00  0.00    +0.000 C 
ATOM      2  O   UNL     1      29.871  24.260  22.682  0.00  0.00    +0.000 OA
ATOM      3  N   UNL     1      27.896  23.648  23.704  0.00  0.00    +0.000 N 
ATOM      4  C   UNL     1      26.435  23.604  23.672  0.00  0.00    +0.000 C 
ATOM      5  C   UNL     1      25.858  22.914  24.855  0.00  0.00    +0.000 C 
ATOM      6  C   UNL     1      26.514  23.388  26.159  0.00  0.00    +0.000 C 
ATOM      7  C   UNL     1      27.924  22.934  26.062  0.00  0.00    +0.000 A 
ATOM      8  C   UNL     1      28.583  22.382  27.157  0.00  0.00    +0.000 A 
ATOM      9  C   UNL     1      29.892  21.999  26.935  0.00  0.00    +0.000 A 
ATOM     10  C   UNL     1      30.535  22.137  25.730  0.00  0.00    +0.000 A 
ATOM     11  C   UNL     1      29.855  22.684  24.675  0.00  0.00    +0.000 A 
ATOM     12  C   UNL     1      28.551  23.082  24.844  0.00  0.00    +0.000 A 
ENDROOT
BRANCH   1  13
ATOM     13  C   UNL     1      27.887  24.794  21.499  0.00  0.00    +0.000 C 
BRANCH  13  19
ATOM     14  N   UNL     1      29.908  26.159  19.752  0.00  0.00    +0.000 NA
ATOM     15  C   UNL     1      28.987  26.833  20.641  0.00  0.00    +0.000 A 
ATOM     16  S   UNL     1      28.792  28.498  20.938  0.00  0.00    +0.000 S 
ATOM     17  C   UNL     1      27.532  28.399  22.081  0.00  0.00    +0.000 A 
ATOM     18  C   UNL     1      27.335  27.054  22.164  0.00  0.00    +0.000 A 
ATOM     19  N   UNL     1      28.070  26.268  21.437  0.00  0.00    +0.000 N 
ENDBRANCH  13  19
ENDBRANCH   1  13
TORSDOF 2
ENDMDL
MODEL 4
REMARK VINA RESULT:      -6.4      3.126      4.663
REMARK  Name = 
REMARK  2 active torsions:
REMARK  status: ('A' for Active; 'I' for Inactive)
REMARK    1  A    between atoms: N_6  and  C_7
REMARK    2  A    between atoms: C_7  and  C_8
REMARK                            x       y       z     vdW  Elec       q    Type
REMARK                         _______ _______ _______ _____ _____    ______ ____
ROOT
ATOM      1  C   UNL     1      16.371  11.358  37.571  0.00  0.00    +0.000 C 
ATOM      2  O   UNL     1      15.173  11.120  37.837  0.00  0.00    +0.000 OA
ATOM      3  N   UNL     1      17.394  10.715  38.308  0.00  0.00    +0.000 N 
ATOM      4  C   UNL     1      18.801  10.979  38.012  0.00  0.00    +0.000 C 
ATOM      5  C   UNL     1      19.723  10.248  38.919  0.00  0.00    +0.000 C 
ATOM      6  C   UNL     1      19.307   8.780  39.082  0.00  0.00    +0.000 C 
ATOM      7  C   UNL     1      17.997   8.831  39.776  0.00  0.00    +0.000 A 
ATOM      8  C   UNL     1      17.686   7.944  40.804  0.00  0.00    +0.000 A 
ATOM      9  C   UNL     1      16.435   8.097  41.368  0.00  0.00    +0.000 A 
ATOM     10  C   UNL     1      15.528   9.048  40.971  0.00  0.00    +0.000 A 
ATOM     11  C   UNL     1      15.867   9.904  39.957  0.00  0.00    +0.000 A 
ATOM     12  C   UNL     1      17.101   9.793  39.362  0.00  0.00    +0.000 A 
ENDROOT
BRANCH   1  13
ATOM     13  C   UNL     1      16.742  12.293  36.502  0.00  0.00    +0.000 C 
BRANCH  13  19
ATOM     14  N   UNL     1      14.308  13.109  34.951  0.00  0.00    +0.000 NA
ATOM     15  C   UNL     1      15.280  12.131  34.516  0.00  0.00    +0.000 A 
ATOM     16  S   UNL     1      15.326  11.212  33.084  0.00  0.00    +0.000 S 
ATOM     17  C   UNL     1      16.765  10.351  33.389  0.00  0.00    +0.000 A 
ATOM     18  C   UNL     1      17.129  10.839  34.607  0.00  0.00    +0.000 A 
ATOM     19  N   UNL     1      16.379  11.736  35.172  0.00  0.00    +0.000 N 
ENDBRANCH  13  19
ENDBRANCH   1  13
TORSDOF 2
ENDMDL
MODEL 5
REMARK VINA RESULT:      -6.4     16.307     19.066
REMARK  Name = 
REMARK  2 active torsions:
REMARK  status: ('A' for Active; 'I' for Inactive)
REMARK    1  A    between atoms: N_6  and  C_7
REMARK    2  A    between atoms: C_7  and  C_8
REMARK                            x       y       z     vdW  Elec       q    Type
REMARK                         _______ _______ _______ _____ _____    ______ ____
ROOT
ATOM      1  C   UNL     1      27.469  22.877  26.856  0.00  0.00    +0.000 C 
ATOM      2  O   UNL     1      26.306  23.270  26.618  0.00  0.00    +0.000 OA
ATOM      3  N   UNL     1      28.426  22.849  25.814  0.00  0.00    +0.000 N 
ATOM      4  C   UNL     1      29.791  22.393  26.071  0.00  0.00    +0.000 C 
ATOM      5  C   UNL     1      30.634  22.393  24.847  0.00  0.00    +0.000 C 
ATOM      6  C   UNL     1      30.471  23.695  24.051  0.00  0.00    +0.000 C 
ATOM      7  C   UNL     1      29.063  23.681  23.584  0.00  0.00    +0.000 A 
ATOM      8  C   UNL     1      28.724  24.077  22.293  0.00  0.00    +0.000 A 
ATOM      9  C   UNL     1      27.380  24.016  21.982  0.00  0.00    +0.000 A 
ATOM     10  C   UNL     1      26.410  23.599  22.861  0.00  0.00    +0.000 A 
ATOM     11  C   UNL     1      26.780  23.217  24.123  0.00  0.00    +0.000 A 
ATOM     12  C   UNL     1      28.106  23.259  24.481  0.00  0.00    +0.000 A 
ENDROOT
BRANCH   1  13
ATOM     13  C   UNL     1      27.865  22.442  28.200  0.00  0.00    +0.000 C 
BRANCH  13  19
ATOM     14  N   UNL     1      26.024  22.272  30.562  0.00  0.00    +0.000 NA
ATOM     15  C   UNL     1      26.836  23.420  30.223  0.00  0.00    +0.000 A 
ATOM     16  S   UNL     1      26.977  24.920  31.017  0.00  0.00    +0.000 S 
ATOM     17  C   UNL     1      28.110  25.647  29.971  0.00  0.00    +0.000 A 
ATOM     18  C   UNL     1      28.314  24.662  29.053  0.00  0.00    +0.000 A 
ATOM     19  N   UNL     1      27.671  23.542  29.183  0.00  0.00    +0.000 N 
ENDBRANCH  13  19
ENDBRANCH   1  13
TORSDOF 2
ENDMDL
MODEL 6
REMARK VINA RESULT:      -6.2      2.526      5.770
REMARK  Name = 
REMARK  2 active torsions:
REMARK  status: ('A' for Active; 'I' for Inactive)
REMARK    1  A    between atoms: N_6  and  C_7
REMARK    2  A    between atoms: C_7  and  C_8
REMARK                            x       y       z     vdW  Elec       q    Type
REMARK                         _______ _______ _______ _____ _____    ______ ____
ROOT
ATOM      1  C   UNL     1      15.823  10.921  34.324  0.00  0.00    +0.000 C 
ATOM      2  O   UNL     1      16.414  10.295  33.417  0.00  0.00    +0.000 OA
ATOM      3  N   UNL     1      15.195  12.154  34.028  0.00  0.00    +0.000 N 
ATOM      4  C   UNL     1      14.498  12.903  35.074  0.00  0.00    +0.000 C 
ATOM      5  C   UNL     1      13.943  14.190  34.582  0.00  0.00    +0.000 C 
ATOM      6  C   UNL     1      13.213  14.015  33.244  0.00  0.00    +0.000 C 
ATOM      7  C   UNL     1      14.272  13.626  32.281  0.00  0.00    +0.000 A 
ATOM      8  C   UNL     1      14.312  14.158  30.995  0.00  0.00    +0.000 A 
ATOM      9  C   UNL     1      15.349  13.715  30.197  0.00  0.00    +0.000 A 
ATOM     10  C   UNL     1      16.298  12.811  30.607  0.00  0.00    +0.000 A 
ATOM     11  C   UNL     1      16.227  12.308  31.880  0.00  0.00    +0.000 A 
ATOM     12  C   UNL     1      15.214  12.718  32.713  0.00  0.00    +0.000 A 
ENDROOT
BRANCH   1  13
ATOM     13  C   UNL     1      15.764  10.401  35.695  0.00  0.00    +0.000 C 
BRANCH  13  19
ATOM     14  N   UNL     1      17.934   8.340  35.492  0.00  0.00    +0.000 NA
ATOM     15  C   UNL     1      18.029   9.575  36.238  0.00  0.00    +0.000 A 
ATOM     16  S   UNL     1      19.322  10.185  37.163  0.00  0.00    +0.000 S 
ATOM     17  C   UNL     1      18.597  11.642  37.669  0.00  0.00    +0.000 A 
ATOM     18  C   UNL     1      17.373  11.566  37.077  0.00  0.00    +0.000 A 
ATOM     19  N   UNL     1      17.090  10.523  36.356  0.00  0.00    +0.000 N 
ENDBRANCH  13  19
ENDBRANCH   1  13
TORSDOF 2
ENDMDL
MODEL 7
REMARK VINA RESULT:      -6.1      3.852      5.801
REMARK  Name = 
REMARK  2 active torsions:
REMARK  status: ('A' for Active; 'I' for Inactive)
REMARK    1  A    between atoms: N_6  and  C_7
REMARK    2  A    between atoms: C_7  and  C_8
REMARK                            x       y       z     vdW  Elec       q    Type
REMARK                         _______ _______ _______ _____ _____    ______ ____
ROOT
ATOM      1  C   UNL     1      17.153  10.525  38.140  0.00  0.00    +0.000 C 
ATOM      2  O   UNL     1      15.934  10.726  38.338  0.00  0.00    +0.000 OA
ATOM      3  N   UNL     1      17.861   9.633  38.979  0.00  0.00    +0.000 N 
ATOM      4  C   UNL     1      19.286   9.384  38.765  0.00  0.00    +0.000 C 
ATOM      5  C   UNL     1      19.862   8.455  39.771  0.00  0.00    +0.000 C 
ATOM      6  C   UNL     1      18.964   7.229  39.986  0.00  0.00    +0.000 C 
ATOM      7  C   UNL     1      17.720   7.771  40.587  0.00  0.00    +0.000 A 
ATOM      8  C   UNL     1      17.080   7.120  41.638  0.00  0.00    +0.000 A 
ATOM      9  C   UNL     1      15.932   7.727  42.107  0.00  0.00    +0.000 A 
ATOM     10  C   UNL     1      15.422   8.896  41.598  0.00  0.00    +0.000 A 
ATOM     11  C   UNL     1      16.078   9.509  40.563  0.00  0.00    +0.000 A 
ATOM     12  C   UNL     1      17.225   8.944  40.061  0.00  0.00    +0.000 A 
ENDROOT
BRANCH   1  13
ATOM     13  C   UNL     1      17.867  11.198  37.049  0.00  0.00    +0.000 C 
BRANCH  13  19
ATOM     14  N   UNL     1      18.024   8.880  35.152  0.00  0.00    +0.000 NA
ATOM     15  C   UNL     1      17.196  10.051  34.966  0.00  0.00    +0.000 A 
ATOM     16  S   UNL     1      16.131  10.433  33.694  0.00  0.00    +0.000 S 
ATOM     17  C   UNL     1      15.594  11.945  34.267  0.00  0.00    +0.000 A 
ATOM     18  C   UNL     1      16.286  12.063  35.434  0.00  0.00    +0.000 A 
ATOM     19  N   UNL     1      17.092  11.107  35.783  0.00  0.00    +0.000 N 
ENDBRANCH  13  19
ENDBRANCH   1  13
TORSDOF 2
ENDMDL
MODEL 8
REMARK VINA RESULT:      -6.1      4.164      6.901
REMARK  Name = 
REMARK  2 active torsions:
REMARK  status: ('A' for Active; 'I' for Inactive)
REMARK    1  A    between atoms: N_6  and  C_7
REMARK    2  A    between atoms: C_7  and  C_8
REMARK                            x       y       z     vdW  Elec       q    Type
REMARK                         _______ _______ _______ _____ _____    ______ ____
ROOT
ATOM      1  C   UNL     1      17.563   9.945  38.050  0.00  0.00    +0.000 C 
ATOM      2  O   UNL     1      16.935  10.419  39.022  0.00  0.00    +0.000 OA
ATOM      3  N   UNL     1      17.141  10.239  36.732  0.00  0.00    +0.000 N 
ATOM      4  C   UNL     1      17.861   9.694  35.582  0.00  0.00    +0.000 C 
ATOM      5  C   UNL     1      17.242  10.076  34.286  0.00  0.00    +0.000 C 
ATOM      6  C   UNL     1      16.893  11.570  34.247  0.00  0.00    +0.000 C 
ATOM      7  C   UNL     1      15.837  11.740  35.276  0.00  0.00    +0.000 A 
ATOM      8  C   UNL     1      14.724  12.544  35.046  0.00  0.00    +0.000 A 
ATOM      9  C   UNL     1      13.815  12.618  36.083  0.00  0.00    +0.000 A 
ATOM     10  C   UNL     1      13.963  11.957  37.278  0.00  0.00    +0.000 A 
ATOM     11  C   UNL     1      15.071  11.175  37.470  0.00  0.00    +0.000 A 
ATOM     12  C   UNL     1      16.005  11.070  36.468  0.00  0.00    +0.000 A 
ENDROOT
BRANCH   1  13
ATOM     13  C   UNL     1      18.736   9.086  38.249  0.00  0.00    +0.000 C 
BRANCH  13  19
ATOM     14  N   UNL     1      21.167   9.772  36.631  0.00  0.00    +0.000 NA
ATOM     15  C   UNL     1      20.948  10.160  38.007  0.00  0.00    +0.000 A 
ATOM     16  S   UNL     1      21.945  11.066  39.048  0.00  0.00    +0.000 S 
ATOM     17  C   UNL     1      20.945  11.044  40.428  0.00  0.00    +0.000 A 
ATOM     18  C   UNL     1      19.877  10.322  39.988  0.00  0.00    +0.000 A 
ATOM     19  N   UNL     1      19.882   9.879  38.767  0.00  0.00    +0.000 N 
ENDBRANCH  13  19
ENDBRANCH   1  13
TORSDOF 2
ENDMDL
MODEL 9
REMARK VINA RESULT:      -6.1     16.489     17.888
REMARK  Name = 
REMARK  2 active torsions:
REMARK  status: ('A' for Active; 'I' for Inactive)
REMARK    1  A    between atoms: N_6  and  C_7
REMARK    2  A    between atoms: C_7  and  C_8
REMARK                            x       y       z     vdW  Elec       q    Type
REMARK                         _______ _______ _______ _____ _____    ______ ____
ROOT
ATOM      1  C   UNL     1      25.927  23.636  26.048  0.00  0.00    +0.000 C 
ATOM      2  O   UNL     1      24.982  24.432  25.856  0.00  0.00    +0.000 OA
ATOM      3  N   UNL     1      26.505  23.532  27.336  0.00  0.00    +0.000 N 
ATOM      4  C   UNL     1      27.610  22.607  27.581  0.00  0.00    +0.000 C 
ATOM      5  C   UNL     1      28.110  22.672  28.979  0.00  0.00    +0.000 C 
ATOM      6  C   UNL     1      26.957  22.666  29.991  0.00  0.00    +0.000 C 
ATOM      7  C   UNL     1      26.234  23.939  29.750  0.00  0.00    +0.000 A 
ATOM      8  C   UNL     1      25.770  24.720  30.806  0.00  0.00    +0.000 A 
ATOM      9  C   UNL     1      25.113  25.881  30.448  0.00  0.00    +0.000 A 
ATOM     10  C   UNL     1      24.910  26.275  29.148  0.00  0.00    +0.000 A 
ATOM     11  C   UNL     1      25.380  25.482  28.135  0.00  0.00    +0.000 A 
ATOM     12  C   UNL     1      26.040  24.316  28.439  0.00  0.00    +0.000 A 
ENDROOT
BRANCH   1  13
ATOM     13  C   UNL     1      26.452  22.801  24.961  0.00  0.00    +0.000 C 
BRANCH  13  19
ATOM     14  N   UNL     1      25.520  22.920  22.112  0.00  0.00    +0.000 NA
ATOM     15  C   UNL     1      26.635  23.665  22.653  0.00  0.00    +0.000 A 
ATOM     16  S   UNL     1      27.682  24.762  21.879  0.00  0.00    +0.000 S 
ATOM     17  C   UNL     1      28.664  25.152  23.216  0.00  0.00    +0.000 A 
ATOM     18  C   UNL     1      28.108  24.393  24.201  0.00  0.00    +0.000 A 
ATOM     19  N   UNL     1      27.086  23.646  23.914  0.00  0.00    +0.000 N 
ENDBRANCH  13  19
ENDBRANCH   1  13
TORSDOF 2
ENDMDL
MODEL 10
REMARK VINA RESULT:      -6.0      3.998      6.798
REMARK  Name = 
REMARK  2 active torsions:
REMARK  status: ('A' for Active; 'I' for Inactive)
REMARK    1  A    between atoms: N_6  and  C_7
REMARK    2  A    between atoms: C_7  and  C_8
REMARK                            x       y       z     vdW  Elec       q    Type
REMARK                         _______ _______ _______ _____ _____    ______ ____
ROOT
ATOM      1  C   UNL     1      18.455  10.614  36.796  0.00  0.00    +0.000 C 
ATOM      2  O   UNL     1      18.950   9.678  36.130  0.00  0.00    +0.000 OA
ATOM      3  N   UNL     1      17.388  11.370  36.256  0.00  0.00    +0.000 N 
ATOM      4  C   UNL     1      16.795  12.468  37.018  0.00  0.00    +0.000 C 
ATOM      5  C   UNL     1      15.720  13.169  36.268  0.00  0.00    +0.000 C 
ATOM      6  C   UNL     1      14.754  12.177  35.607  0.00  0.00    +0.000 C 
ATOM      7  C   UNL     1      15.573  11.469  34.592  0.00  0.00    +0.000 A 
ATOM      8  C   UNL     1      15.071  11.191  33.323  0.00  0.00    +0.000 A 
ATOM      9  C   UNL     1      15.934  10.528  32.472  0.00  0.00    +0.000 A 
ATOM     10  C   UNL     1      17.209  10.150  32.816  0.00  0.00    +0.000 A 
ATOM     11  C   UNL     1      17.668  10.440  34.074  0.00  0.00    +0.000 A 
ATOM     12  C   UNL     1      16.848  11.099  34.958  0.00  0.00    +0.000 A 
ENDROOT
BRANCH   1  13
ATOM     13  C   UNL     1      18.959  10.946  38.133  0.00  0.00    +0.000 C 
BRANCH  13  19
ATOM     14  N   UNL     1      21.169   9.214  39.189  0.00  0.00    +0.000 NA
ATOM     15  C   UNL     1      19.768   9.062  39.512  0.00  0.00    +0.000 A 
ATOM     16  S   UNL     1      19.008   7.924  40.526  0.00  0.00    +0.000 S 
ATOM     17  C   UNL     1      17.401   8.457  40.334  0.00  0.00    +0.000 A 
ATOM     18  C   UNL     1      17.555   9.506  39.479  0.00  0.00    +0.000 A 
ATOM     19  N   UNL     1      18.749   9.808  39.068  0.00  0.00    +0.000 N 
ENDBRANCH  13  19
ENDBRANCH   1  13
TORSDOF 2
ENDMDL
