MODEL 1
REMARK VINA RESULT:      -6.9      0.000      0.000
REMARK  Name = 
REMARK  2 active torsions:
REMARK  status: ('A' for Active; 'I' for Inactive)
REMARK    1  A    between atoms: C_5  and  C_6
REMARK    2  A    between atoms: C_11  and  N_12
REMARK                            x       y       z     vdW  Elec       q    Type
REMARK                         _______ _______ _______ _____ _____    ______ ____
ROOT
ATOM      1  N   UNL     1      33.974   4.899  35.697  0.00  0.00    +0.000 N 
ATOM      2  C   UNL     1      33.253   5.557  34.631  0.00  0.00    +0.000 C 
ATOM      3  C   UNL     1      33.986   3.518  35.924  0.00  0.00    +0.000 A 
ATOM      4  N   UNL     1      34.135   3.022  37.190  0.00  0.00    +0.000 NA
ATOM      5  C   UNL     1      34.109   1.722  37.472  0.00  0.00    +0.000 A 
ATOM      6  N   UNL     1      33.930   0.819  36.509  0.00  0.00    +0.000 NA
ATOM      7  C   UNL     1      33.779   1.219  35.262  0.00  0.00    +0.000 A 
ATOM      8  N   UNL     1      33.597   0.537  34.129  0.00  0.00    +0.000 NA
ATOM      9  C   UNL     1      33.506   1.383  33.098  0.00  0.00    +0.000 A 
ATOM     10  C   UNL     1      33.633   2.670  33.595  0.00  0.00    +0.000 A 
ATOM     11  F   UNL     1      33.602   3.752  32.855  0.00  0.00    +0.000 F 
ATOM     12  C   UNL     1      33.803   2.550  34.944  0.00  0.00    +0.000 A 
ENDROOT
BRANCH   1  19
ATOM     13  C   UNL     1      36.353   6.297  34.752  0.00  0.00    +0.000 C 
ATOM     14  C   UNL     1      36.288   5.504  36.152  0.00  0.00    +0.000 C 
ATOM     15  C   UNL     1      37.091   6.591  37.033  0.00  0.00    +0.000 C 
ATOM     16  C   UNL     1      36.176   7.647  37.522  0.00  0.00    +0.000 C 
ATOM     17  C   UNL     1      35.703   8.173  36.037  0.00  0.00    +0.000 C 
ATOM     18  C   UNL     1      34.392   7.224  35.899  0.00  0.00    +0.000 C 
ATOM     19  C   UNL     1      34.728   5.848  36.677  0.00  0.00    +0.000 C 
BRANCH  17  20
ATOM     20  C   UNL     1      34.936   9.515  36.569  0.00  0.00    +0.000 C 
ATOM     21  C   UNL     1      34.079   9.188  37.712  0.00  0.00    +0.000 C 
ATOM     22  C   UNL     1      34.398  10.311  35.487  0.00  0.00    +0.000 C 
ATOM     23  O   UNL     1      36.070  10.199  37.084  0.00  0.00    +0.000 OA
ENDBRANCH  17  20
ENDBRANCH   1  19
TORSDOF 2
ENDMDL
MODEL 2
REMARK VINA RESULT:      -6.8     20.056     23.228
REMARK  Name = 
REMARK  2 active torsions:
REMARK  status: ('A' for Active; 'I' for Inactive)
REMARK    1  A    between atoms: C_5  and  C_6
REMARK    2  A    between atoms: C_11  and  N_12
REMARK                            x       y       z     vdW  Elec       q    Type
REMARK                         _______ _______ _______ _____ _____    ______ ____
ROOT
ATOM      1  N   UNL     1      26.878  24.051  26.272  0.00  0.00    +0.000 N 
ATOM      2  C   UNL     1      27.106  22.717  25.766  0.00  0.00    +0.000 C 
ATOM      3  C   UNL     1      26.370  24.352  27.541  0.00  0.00    +0.000 A 
ATOM      4  N   UNL     1      25.632  25.486  27.744  0.00  0.00    +0.000 NA
ATOM      5  C   UNL     1      25.086  25.800  28.916  0.00  0.00    +0.000 A 
ATOM      6  N   UNL     1      25.236  25.005  29.974  0.00  0.00    +0.000 NA
ATOM      7  C   UNL     1      25.935  23.893  29.857  0.00  0.00    +0.000 A 
ATOM      8  N   UNL     1      26.241  22.942  30.743  0.00  0.00    +0.000 NA
ATOM      9  C   UNL     1      26.989  22.000  30.160  0.00  0.00    +0.000 A 
ATOM     10  C   UNL     1      27.171  22.365  28.836  0.00  0.00    +0.000 A 
ATOM     11  F   UNL     1      27.869  21.670  27.970  0.00  0.00    +0.000 F 
ATOM     12  C   UNL     1      26.508  23.546  28.664  0.00  0.00    +0.000 A 
ENDROOT
BRANCH   1  19
ATOM     13  C   UNL     1      29.653  24.646  25.600  0.00  0.00    +0.000 C 
ATOM     14  C   UNL     1      28.578  25.774  26.006  0.00  0.00    +0.000 C 
ATOM     15  C   UNL     1      29.012  26.869  24.903  0.00  0.00    +0.000 C 
ATOM     16  C   UNL     1      28.336  26.607  23.613  0.00  0.00    +0.000 C 
ATOM     17  C   UNL     1      28.968  25.106  23.383  0.00  0.00    +0.000 C 
ATOM     18  C   UNL     1      27.761  24.274  24.083  0.00  0.00    +0.000 C 
ATOM     19  C   UNL     1      27.178  25.205  25.268  0.00  0.00    +0.000 C 
BRANCH  17  20
ATOM     20  C   UNL     1      28.465  24.944  21.836  0.00  0.00    +0.000 C 
ATOM     21  C   UNL     1      28.558  26.229  21.138  0.00  0.00    +0.000 C 
ATOM     22  C   UNL     1      27.248  24.168  21.727  0.00  0.00    +0.000 C 
ATOM     23  O   UNL     1      29.535  24.137  21.364  0.00  0.00    +0.000 OA
ENDBRANCH  17  20
ENDBRANCH   1  19
TORSDOF 2
ENDMDL
MODEL 3
REMARK VINA RESULT:      -6.5     20.832     23.610
REMARK  Name = 
REMARK  2 active torsions:
REMARK  status: ('A' for Active; 'I' for Inactive)
REMARK    1  A    between atoms: C_5  and  C_6
REMARK    2  A    between atoms: C_11  and  N_12
REMARK                            x       y       z     vdW  Elec       q    Type
REMARK                         _______ _______ _______ _____ _____    ______ ____
ROOT
ATOM      1  N   UNL     1      27.287  24.903  27.119  0.00  0.00    +0.000 N 
ATOM      2  C   UNL     1      27.743  26.270  27.013  0.00  0.00    +0.000 C 
ATOM      3  C   UNL     1      26.852  24.293  28.301  0.00  0.00    +0.000 A 
ATOM      4  N   UNL     1      27.017  22.948  28.491  0.00  0.00    +0.000 NA
ATOM      5  C   UNL     1      26.665  22.321  29.611  0.00  0.00    +0.000 A 
ATOM      6  N   UNL     1      26.123  22.991  30.626  0.00  0.00    +0.000 NA
ATOM      7  C   UNL     1      25.932  24.292  30.519  0.00  0.00    +0.000 A 
ATOM      8  N   UNL     1      25.411  25.183  31.365  0.00  0.00    +0.000 NA
ATOM      9  C   UNL     1      25.415  26.397  30.807  0.00  0.00    +0.000 A 
ATOM     10  C   UNL     1      25.967  26.278  29.542  0.00  0.00    +0.000 A 
ATOM     11  F   UNL     1      26.116  27.279  28.707  0.00  0.00    +0.000 F 
ATOM     12  C   UNL     1      26.284  24.961  29.378  0.00  0.00    +0.000 A 
ENDROOT
BRANCH   1  19
ATOM     13  C   UNL     1      25.259  25.328  25.067  0.00  0.00    +0.000 C 
ATOM     14  C   UNL     1      25.708  23.870  25.581  0.00  0.00    +0.000 C 
ATOM     15  C   UNL     1      25.738  23.150  24.138  0.00  0.00    +0.000 C 
ATOM     16  C   UNL     1      27.038  23.376  23.467  0.00  0.00    +0.000 C 
ATOM     17  C   UNL     1      26.929  25.017  23.420  0.00  0.00    +0.000 C 
ATOM     18  C   UNL     1      27.701  25.307  24.820  0.00  0.00    +0.000 C 
ATOM     19  C   UNL     1      27.362  24.071  25.804  0.00  0.00    +0.000 C 
BRANCH  17  20
ATOM     20  C   UNL     1      28.207  25.243  22.426  0.00  0.00    +0.000 C 
ATOM     21  C   UNL     1      28.713  23.953  21.951  0.00  0.00    +0.000 C 
ATOM     22  C   UNL     1      29.141  26.223  22.938  0.00  0.00    +0.000 C 
ATOM     23  O   UNL     1      27.509  25.840  21.341  0.00  0.00    +0.000 OA
ENDBRANCH  17  20
ENDBRANCH   1  19
TORSDOF 2
ENDMDL
MODEL 4
REMARK VINA RESULT:      -6.3     20.393     23.426
REMARK  Name = 
REMARK  2 active torsions:
REMARK  status: ('A' for Active; 'I' for Inactive)
REMARK    1  A    between atoms: C_5  and  C_6
REMARK    2  A    between atoms: C_11  and  N_12
REMARK                            x       y       z     vdW  Elec       q    Type
REMARK                         _______ _______ _______ _____ _____    ______ ____
ROOT
ATOM      1  N   UNL     1      28.470  24.612  25.959  0.00  0.00    +0.000 N 
ATOM      2  C   UNL     1      28.956  23.251  25.958  0.00  0.00    +0.000 C 
ATOM      3  C   UNL     1      28.683  25.541  24.935  0.00  0.00    +0.000 A 
ATOM      4  N   UNL     1      28.759  26.878  25.213  0.00  0.00    +0.000 NA
ATOM      5  C   UNL     1      29.005  27.802  24.287  0.00  0.00    +0.000 A 
ATOM      6  N   UNL     1      29.194  27.459  23.014  0.00  0.00    +0.000 NA
ATOM      7  C   UNL     1      29.136  26.188  22.667  0.00  0.00    +0.000 A 
ATOM      8  N   UNL     1      29.276  25.586  21.484  0.00  0.00    +0.000 NA
ATOM      9  C   UNL     1      29.122  24.266  21.625  0.00  0.00    +0.000 A 
ATOM     10  C   UNL     1      28.872  24.010  22.963  0.00  0.00    +0.000 A 
ATOM     11  F   UNL     1      28.659  22.813  23.457  0.00  0.00    +0.000 F 
ATOM     12  C   UNL     1      28.883  25.218  23.599  0.00  0.00    +0.000 A 
ENDROOT
BRANCH   1  19
ATOM     13  C   UNL     1      25.731  23.694  26.357  0.00  0.00    +0.000 C 
ATOM     14  C   UNL     1      26.190  25.224  26.554  0.00  0.00    +0.000 C 
ATOM     15  C   UNL     1      25.338  25.518  27.893  0.00  0.00    +0.000 C 
ATOM     16  C   UNL     1      26.085  25.079  29.094  0.00  0.00    +0.000 C 
ATOM     17  C   UNL     1      26.184  23.492  28.670  0.00  0.00    +0.000 C 
ATOM     18  C   UNL     1      27.621  23.578  27.917  0.00  0.00    +0.000 C 
ATOM     19  C   UNL     1      27.711  25.047  27.249  0.00  0.00    +0.000 C 
BRANCH  17  20
ATOM     20  C   UNL     1      26.736  22.965  30.116  0.00  0.00    +0.000 C 
ATOM     21  C   UNL     1      28.140  23.347  30.291  0.00  0.00    +0.000 C 
ATOM     22  C   UNL     1      26.333  21.605  30.401  0.00  0.00    +0.000 C 
ATOM     23  O   UNL     1      25.967  23.825  30.946  0.00  0.00    +0.000 OA
ENDBRANCH  17  20
ENDBRANCH   1  19
TORSDOF 2
ENDMDL
MODEL 5
REMARK VINA RESULT:      -6.3     20.926     22.764
REMARK  Name = 
REMARK  2 active torsions:
REMARK  status: ('A' for Active; 'I' for Inactive)
REMARK    1  A    between atoms: C_5  and  C_6
REMARK    2  A    between atoms: C_11  and  N_12
REMARK                            x       y       z     vdW  Elec       q    Type
REMARK                         _______ _______ _______ _____ _____    ______ ____
ROOT
ATOM      1  N   UNL     1      29.157  24.782  24.694  0.00  0.00    +0.000 N 
ATOM      2  C   UNL     1      29.669  25.632  23.644  0.00  0.00    +0.000 C 
ATOM      3  C   UNL     1      27.896  24.177  24.694  0.00  0.00    +0.000 A 
ATOM      4  N   UNL     1      27.244  23.925  25.870  0.00  0.00    +0.000 NA
ATOM      5  C   UNL     1      26.026  23.394  25.929  0.00  0.00    +0.000 A 
ATOM      6  N   UNL     1      25.365  23.076  24.817  0.00  0.00    +0.000 NA
ATOM      7  C   UNL     1      25.927  23.289  23.643  0.00  0.00    +0.000 A 
ATOM      8  N   UNL     1      25.498  23.058  22.401  0.00  0.00    +0.000 NA
ATOM      9  C   UNL     1      26.430  23.433  21.520  0.00  0.00    +0.000 A 
ATOM     10  C   UNL     1      27.509  23.929  22.233  0.00  0.00    +0.000 A 
ATOM     11  F   UNL     1      28.612  24.379  21.682  0.00  0.00    +0.000 F 
ATOM     12  C   UNL     1      27.180  23.832  23.554  0.00  0.00    +0.000 A 
ENDROOT
BRANCH   1  19
ATOM     13  C   UNL     1      31.197  22.699  24.628  0.00  0.00    +0.000 C 
ATOM     14  C   UNL     1      30.208  22.932  25.877  0.00  0.00    +0.000 C 
ATOM     15  C   UNL     1      31.305  22.722  27.041  0.00  0.00    +0.000 C 
ATOM     16  C   UNL     1      32.032  23.984  27.308  0.00  0.00    +0.000 C 
ATOM     17  C   UNL     1      32.653  24.153  25.795  0.00  0.00    +0.000 C 
ATOM     18  C   UNL     1      31.458  25.073  25.191  0.00  0.00    +0.000 C 
ATOM     19  C   UNL     1      30.096  24.608  25.927  0.00  0.00    +0.000 C 
BRANCH  17  20
ATOM     20  C   UNL     1      33.683  25.367  26.169  0.00  0.00    +0.000 C 
ATOM     21  C   UNL     1      33.510  26.483  25.236  0.00  0.00    +0.000 C 
ATOM     22  C   UNL     1      35.018  24.891  26.462  0.00  0.00    +0.000 C 
ATOM     23  O   UNL     1      33.086  25.758  27.398  0.00  0.00    +0.000 OA
ENDBRANCH  17  20
ENDBRANCH   1  19
TORSDOF 2
ENDMDL
MODEL 6
REMARK VINA RESULT:      -6.2     21.997     24.981
REMARK  Name = 
REMARK  2 active torsions:
REMARK  status: ('A' for Active; 'I' for Inactive)
REMARK    1  A    between atoms: C_5  and  C_6
REMARK    2  A    between atoms: C_11  and  N_12
REMARK                            x       y       z     vdW  Elec       q    Type
REMARK                         _______ _______ _______ _____ _____    ______ ____
ROOT
ATOM      1  N   UNL     1      16.428  -9.545  26.028  0.00  0.00    +0.000 N 
ATOM      2  C   UNL     1      17.147 -10.796  25.965  0.00  0.00    +0.000 C 
ATOM      3  C   UNL     1      15.051  -9.421  26.243  0.00  0.00    +0.000 A 
ATOM      4  N   UNL     1      14.355  -8.369  25.713  0.00  0.00    +0.000 NA
ATOM      5  C   UNL     1      13.040  -8.224  25.846  0.00  0.00    +0.000 A 
ATOM      6  N   UNL     1      12.319  -9.120  26.519  0.00  0.00    +0.000 NA
ATOM      7  C   UNL     1      12.918 -10.162  27.060  0.00  0.00    +0.000 A 
ATOM      8  N   UNL     1      12.443 -11.182  27.779  0.00  0.00    +0.000 NA
ATOM      9  C   UNL     1      13.443 -12.000  28.123  0.00  0.00    +0.000 A 
ATOM     10  C   UNL     1      14.614 -11.480  27.598  0.00  0.00    +0.000 A 
ATOM     11  F   UNL     1      15.797 -12.026  27.753  0.00  0.00    +0.000 F 
ATOM     12  C   UNL     1      14.271 -10.335  26.940  0.00  0.00    +0.000 A 
ENDROOT
BRANCH   1  19
ATOM     13  C   UNL     1      18.140  -8.540  28.165  0.00  0.00    +0.000 C 
ATOM     14  C   UNL     1      17.152  -7.603  27.306  0.00  0.00    +0.000 C 
ATOM     15  C   UNL     1      18.163  -6.359  27.126  0.00  0.00    +0.000 C 
ATOM     16  C   UNL     1      19.058  -6.576  25.967  0.00  0.00    +0.000 C 
ATOM     17  C   UNL     1      19.752  -7.956  26.535  0.00  0.00    +0.000 C 
ATOM     18  C   UNL     1      18.727  -8.998  25.826  0.00  0.00    +0.000 C 
ATOM     19  C   UNL     1      17.286  -8.269  25.768  0.00  0.00    +0.000 C 
BRANCH  17  20
ATOM     20  C   UNL     1      20.934  -8.027  25.408  0.00  0.00    +0.000 C 
ATOM     21  C   UNL     1      21.465  -6.686  25.147  0.00  0.00    +0.000 C 
ATOM     22  C   UNL     1      20.585  -8.878  24.291  0.00  0.00    +0.000 C 
ATOM     23  O   UNL     1      21.906  -8.713  26.186  0.00  0.00    +0.000 OA
ENDBRANCH  17  20
ENDBRANCH   1  19
TORSDOF 2
ENDMDL
MODEL 7
REMARK VINA RESULT:      -6.2     20.737     22.527
REMARK  Name = 
REMARK  2 active torsions:
REMARK  status: ('A' for Active; 'I' for Inactive)
REMARK    1  A    between atoms: C_5  and  C_6
REMARK    2  A    between atoms: C_11  and  N_12
REMARK                            x       y       z     vdW  Elec       q    Type
REMARK                         _______ _______ _______ _____ _____    ______ ____
ROOT
ATOM      1  N   UNL     1      27.375  24.477  26.449  0.00  0.00    +0.000 N 
ATOM      2  C   UNL     1      28.350  25.526  26.640  0.00  0.00    +0.000 C 
ATOM      3  C   UNL     1      26.975  23.970  25.207  0.00  0.00    +0.000 A 
ATOM      4  N   UNL     1      25.711  23.477  25.031  0.00  0.00    +0.000 NA
ATOM      5  C   UNL     1      25.262  23.025  23.864  0.00  0.00    +0.000 A 
ATOM      6  N   UNL     1      26.041  23.031  22.783  0.00  0.00    +0.000 NA
ATOM      7  C   UNL     1      27.273  23.491  22.873  0.00  0.00    +0.000 A 
ATOM      8  N   UNL     1      28.246  23.600  21.966  0.00  0.00    +0.000 NA
ATOM      9  C   UNL     1      29.339  24.122  22.531  0.00  0.00    +0.000 A 
ATOM     10  C   UNL     1      29.052  24.360  23.865  0.00  0.00    +0.000 A 
ATOM     11  F   UNL     1      29.907  24.862  24.724  0.00  0.00    +0.000 F 
ATOM     12  C   UNL     1      27.762  23.961  24.062  0.00  0.00    +0.000 A 
ENDROOT
BRANCH   1  19
ATOM     13  C   UNL     1      29.040  23.199  28.474  0.00  0.00    +0.000 C 
ATOM     14  C   UNL     1      27.654  22.575  27.942  0.00  0.00    +0.000 C 
ATOM     15  C   UNL     1      27.095  22.082  29.374  0.00  0.00    +0.000 C 
ATOM     16  C   UNL     1      26.397  23.187  30.070  0.00  0.00    +0.000 C 
ATOM     17  C   UNL     1      27.693  24.197  30.143  0.00  0.00    +0.000 C 
ATOM     18  C   UNL     1      27.398  24.999  28.762  0.00  0.00    +0.000 C 
ATOM     19  C   UNL     1      26.702  23.947  27.751  0.00  0.00    +0.000 C 
BRANCH  17  20
ATOM     20  C   UNL     1      27.010  25.277  31.163  0.00  0.00    +0.000 C 
ATOM     21  C   UNL     1      26.738  26.533  30.460  0.00  0.00    +0.000 C 
ATOM     22  C   UNL     1      27.667  25.316  32.451  0.00  0.00    +0.000 C 
ATOM     23  O   UNL     1      25.761  24.620  31.336  0.00  0.00    +0.000 OA
ENDBRANCH  17  20
ENDBRANCH   1  19
TORSDOF 2
ENDMDL
MODEL 8
REMARK VINA RESULT:      -6.2     19.237     22.395
REMARK  Name = 
REMARK  2 active torsions:
REMARK  status: ('A' for Active; 'I' for Inactive)
REMARK    1  A    between atoms: C_5  and  C_6
REMARK    2  A    between atoms: C_11  and  N_12
REMARK                            x       y       z     vdW  Elec       q    Type
REMARK                         _______ _______ _______ _____ _____    ______ ____
ROOT
ATOM      1  N   UNL     1      28.616  23.225  26.452  0.00  0.00    +0.000 N 
ATOM      2  C   UNL     1      29.779  22.569  25.900  0.00  0.00    +0.000 C 
ATOM      3  C   UNL     1      28.191  23.120  27.781  0.00  0.00    +0.000 A 
ATOM      4  N   UNL     1      26.864  23.219  28.097  0.00  0.00    +0.000 NA
ATOM      5  C   UNL     1      26.397  23.082  29.336  0.00  0.00    +0.000 A 
ATOM      6  N   UNL     1      27.222  22.835  30.352  0.00  0.00    +0.000 NA
ATOM      7  C   UNL     1      28.517  22.727  30.128  0.00  0.00    +0.000 A 
ATOM      8  N   UNL     1      29.542  22.496  30.950  0.00  0.00    +0.000 NA
ATOM      9  C   UNL     1      30.686  22.482  30.259  0.00  0.00    +0.000 A 
ATOM     10  C   UNL     1      30.378  22.714  28.929  0.00  0.00    +0.000 A 
ATOM     11  F   UNL     1      31.268  22.777  27.967  0.00  0.00    +0.000 F 
ATOM     12  C   UNL     1      29.023  22.864  28.863  0.00  0.00    +0.000 A 
ENDROOT
BRANCH   1  19
ATOM     13  C   UNL     1      29.504  25.907  25.729  0.00  0.00    +0.000 C 
ATOM     14  C   UNL     1      27.988  25.557  26.145  0.00  0.00    +0.000 C 
ATOM     15  C   UNL     1      27.261  26.466  25.028  0.00  0.00    +0.000 C 
ATOM     16  C   UNL     1      27.142  25.727  23.750  0.00  0.00    +0.000 C 
ATOM     17  C   UNL     1      28.756  25.509  23.521  0.00  0.00    +0.000 C 
ATOM     18  C   UNL     1      28.865  24.060  24.246  0.00  0.00    +0.000 C 
ATOM     19  C   UNL     1      27.770  24.049  25.435  0.00  0.00    +0.000 C 
BRANCH  17  20
ATOM     20  C   UNL     1      28.637  24.965  21.983  0.00  0.00    +0.000 C 
ATOM     21  C   UNL     1      29.176  25.960  21.052  0.00  0.00    +0.000 C 
ATOM     22  C   UNL     1      27.351  24.362  21.707  0.00  0.00    +0.000 C 
ATOM     23  O   UNL     1      29.594  23.918  22.071  0.00  0.00    +0.000 OA
ENDBRANCH  17  20
ENDBRANCH   1  19
TORSDOF 2
ENDMDL
MODEL 9
REMARK VINA RESULT:      -6.0     21.843     24.128
REMARK  Name = 
REMARK  2 active torsions:
REMARK  status: ('A' for Active; 'I' for Inactive)
REMARK    1  A    between atoms: C_5  and  C_6
REMARK    2  A    between atoms: C_11  and  N_12
REMARK                            x       y       z     vdW  Elec       q    Type
REMARK                         _______ _______ _______ _____ _____    ______ ____
ROOT
ATOM      1  N   UNL     1      26.142  25.679  26.333  0.00  0.00    +0.000 N 
ATOM      2  C   UNL     1      26.017  26.253  25.013  0.00  0.00    +0.000 C 
ATOM      3  C   UNL     1      25.253  25.901  27.391  0.00  0.00    +0.000 A 
ATOM      4  N   UNL     1      25.692  25.868  28.687  0.00  0.00    +0.000 NA
ATOM      5  C   UNL     1      24.904  26.117  29.730  0.00  0.00    +0.000 A 
ATOM      6  N   UNL     1      23.618  26.417  29.557  0.00  0.00    +0.000 NA
ATOM      7  C   UNL     1      23.120  26.467  28.337  0.00  0.00    +0.000 A 
ATOM      8  N   UNL     1      21.889  26.730  27.894  0.00  0.00    +0.000 NA
ATOM      9  C   UNL     1      21.860  26.654  26.559  0.00  0.00    +0.000 A 
ATOM     10  C   UNL     1      23.135  26.328  26.128  0.00  0.00    +0.000 A 
ATOM     11  F   UNL     1      23.467  26.162  24.869  0.00  0.00    +0.000 F 
ATOM     12  C   UNL     1      23.908  26.215  27.247  0.00  0.00    +0.000 A 
ENDROOT
BRANCH   1  19
ATOM     13  C   UNL     1      26.278  23.043  25.091  0.00  0.00    +0.000 C 
ATOM     14  C   UNL     1      26.635  23.314  26.638  0.00  0.00    +0.000 C 
ATOM     15  C   UNL     1      27.934  22.361  26.712  0.00  0.00    +0.000 C 
ATOM     16  C   UNL     1      29.140  23.083  26.248  0.00  0.00    +0.000 C 
ATOM     17  C   UNL     1      28.590  23.386  24.727  0.00  0.00    +0.000 C 
ATOM     18  C   UNL     1      27.944  24.844  25.037  0.00  0.00    +0.000 C 
ATOM     19  C   UNL     1      27.411  24.803  26.563  0.00  0.00    +0.000 C 
BRANCH  17  20
ATOM     20  C   UNL     1      30.019  23.913  24.132  0.00  0.00    +0.000 C 
ATOM     21  C   UNL     1      31.092  22.987  24.501  0.00  0.00    +0.000 C 
ATOM     22  C   UNL     1      30.211  25.334  24.330  0.00  0.00    +0.000 C 
ATOM     23  O   UNL     1      29.746  23.703  22.753  0.00  0.00    +0.000 OA
ENDBRANCH  17  20
ENDBRANCH   1  19
TORSDOF 2
ENDMDL
MODEL 10
REMARK VINA RESULT:      -6.0     19.962     21.464
REMARK  Name = 
REMARK  2 active torsions:
REMARK  status: ('A' for Active; 'I' for Inactive)
REMARK    1  A    between atoms: C_5  and  C_6
REMARK    2  A    between atoms: C_11  and  N_12
REMARK                            x       y       z     vdW  Elec       q    Type
REMARK                         _______ _______ _______ _____ _____    ______ ____
ROOT
ATOM      1  N   UNL     1      25.869   3.300  15.895  0.00  0.00    +0.000 N 
ATOM      2  C   UNL     1      27.114   2.574  15.805  0.00  0.00    +0.000 C 
ATOM      3  C   UNL     1      24.605   2.713  16.023  0.00  0.00    +0.000 A 
ATOM      4  N   UNL     1      23.496   3.330  15.511  0.00  0.00    +0.000 NA
ATOM      5  C   UNL     1      22.277   2.798  15.563  0.00  0.00    +0.000 A 
ATOM      6  N   UNL     1      22.075   1.609  16.129  0.00  0.00    +0.000 NA
ATOM      7  C   UNL     1      23.095   0.952  16.644  0.00  0.00    +0.000 A 
ATOM      8  N   UNL     1      23.166  -0.227  17.265  0.00  0.00    +0.000 NA
ATOM      9  C   UNL     1      24.429  -0.477  17.626  0.00  0.00    +0.000 A 
ATOM     10  C   UNL     1      25.204   0.595  17.215  0.00  0.00    +0.000 A 
ATOM     11  F   UNL     1      26.497   0.689  17.417  0.00  0.00    +0.000 F 
ATOM     12  C   UNL     1      24.359   1.477  16.606  0.00  0.00    +0.000 A 
ENDROOT
BRANCH   1  19
ATOM     13  C   UNL     1      26.711   4.833  18.229  0.00  0.00    +0.000 C 
ATOM     14  C   UNL     1      25.444   5.230  17.318  0.00  0.00    +0.000 C 
ATOM     15  C   UNL     1      25.709   6.821  17.290  0.00  0.00    +0.000 C 
ATOM     16  C   UNL     1      26.665   7.173  16.215  0.00  0.00    +0.000 C 
ATOM     17  C   UNL     1      27.916   6.273  16.790  0.00  0.00    +0.000 C 
ATOM     18  C   UNL     1      27.596   4.924  15.942  0.00  0.00    +0.000 C 
ATOM     19  C   UNL     1      25.990   4.850  15.774  0.00  0.00    +0.000 C 
BRANCH  17  20
ATOM     20  C   UNL     1      29.046   6.890  15.783  0.00  0.00    +0.000 C 
ATOM     21  C   UNL     1      28.442   7.889  14.897  0.00  0.00    +0.000 C 
ATOM     22  C   UNL     1      29.901   5.869  15.217  0.00  0.00    +0.000 C 
ATOM     23  O   UNL     1      29.806   7.600  16.751  0.00  0.00    +0.000 OA
ENDBRANCH  17  20
ENDBRANCH   1  19
TORSDOF 2
ENDMDL
