
     RDKit          3D

 30 32  0  0  0  0  0  0  0  0999 V2000
   -9.2926   -0.9543   -0.7729 C   0  0  0  0  0  0  0  0  0  0  0  0
   -8.3751    0.1549   -0.6318 C   0  0  0  0  0  0  0  0  0  0  0  0
   -8.4801    1.1675    0.3574 C   0  0  0  0  0  0  0  0  0  0  0  0
   -7.5081    0.3833   -1.6913 O   0  0  0  0  0  0  0  0  0  0  0  0
   -6.1817    0.2980   -1.1708 C   0  0  0  0  0  0  0  0  0  0  0  0
   -5.0126    0.4344   -1.8910 C   0  0  0  0  0  0  0  0  0  0  0  0
   -3.7824    0.2740   -1.2499 C   0  0  0  0  0  0  0  0  0  0  0  0
   -3.7876   -0.0332    0.1511 C   0  0  0  0  0  0  0  0  0  0  0  0
   -2.5395   -0.5386    0.7126 C   0  0  0  0  0  0  0  0  0  0  0  0
   -2.1762   -0.1654    1.8369 O   0  0  0  0  0  0  0  0  0  0  0  0
   -1.8599   -1.4363   -0.0806 O   0  0  0  0  0  0  0  0  0  0  0  0
   -0.6176   -1.9205    0.3453 C   0  0  0  0  0  0  0  0  0  0  0  0
    0.3721   -0.8240   -0.0060 C   0  0  0  0  0  0  0  0  0  0  0  0
    0.0026    0.1620   -0.7562 O   0  0  0  0  0  0  0  0  0  0  0  0
    1.7243   -0.8159    0.4476 N   0  0  0  0  0  0  0  0  0  0  0  0
    2.5492    0.2603   -0.1069 C   0  0  0  0  0  0  0  0  0  0  0  0
    2.0522    0.8609   -1.3298 C   0  0  0  0  0  0  0  0  0  0  0  0
    2.9171    1.7689   -1.9302 C   0  0  0  0  0  0  0  0  0  0  0  0
    4.1417    2.1097   -1.4273 C   0  0  0  0  0  0  0  0  0  0  0  0
    4.5059    1.4704   -0.2331 C   0  0  0  0  0  0  0  0  0  0  0  0
    3.7211    0.5440    0.4367 C   0  0  0  0  0  0  0  0  0  0  0  0
    4.3545   -0.1969    1.9957 S   0  0  0  0  0  0  0  0  0  0  0  0
    6.1374   -0.1425    1.5790 C   0  0  0  0  0  0  0  0  0  0  0  0
    6.9016    0.9088    1.8133 C   0  0  0  0  0  0  0  0  0  0  0  0
    8.2010    1.0300    1.2279 C   0  0  0  0  0  0  0  0  0  0  0  0
    8.6432    0.0315    0.4028 C   0  0  0  0  0  0  0  0  0  0  0  0
    7.8368   -1.0672    0.1785 C   0  0  0  0  0  0  0  0  0  0  0  0
    6.5922   -1.1787    0.7530 C   0  0  0  0  0  0  0  0  0  0  0  0
   -4.9204   -0.1571    0.8251 C   0  0  0  0  0  0  0  0  0  0  0  0
   -6.1192    0.0048    0.2151 C   0  0  0  0  0  0  0  0  0  0  0  0
  1  2  1  0
  2  3  1  0
  2  4  1  0
  4  5  1  0
  5  6  2  0
  6  7  1  0
  7  8  2  0
  8  9  1  0
  9 10  2  0
  9 11  1  0
 11 12  1  0
 12 13  1  0
 13 14  2  0
 13 15  1  0
 15 16  1  0
 16 17  2  0
 17 18  1  0
 18 19  2  0
 19 20  1  0
 20 21  2  0
 21 22  1  0
 22 23  1  0
 23 24  2  0
 24 25  1  0
 25 26  2  0
 26 27  1  0
 27 28  2  0
  8 29  1  0
 29 30  2  0
 30  5  1  0
 21 16  1  0
 28 23  1  0
M  END
>  <zinc_id>  (1) 
ZINC000002617440

>  <smiles>  (1) 
CC(C)Oc1ccc(C(=O)OCC(=O)Nc2ccccc2Sc2ccccc2)cc1

$$$$
