
     RDKit          3D

 32 35  0  0  0  0  0  0  0  0999 V2000
    0.8895    2.4076   -0.0330 C   0  0  0  0  0  0  0  0  0  0  0  0
    1.3885    1.3769    0.9737 C   0  0  0  0  0  0  0  0  0  0  0  0
    1.8889    0.2220    0.1702 C   0  0  0  0  0  0  0  0  0  0  0  0
    0.9969   -0.6435   -0.3841 C   0  0  0  0  0  0  0  0  0  0  0  0
   -0.4613   -0.5138   -0.1961 C   0  0  0  0  0  0  0  0  0  0  0  0
   -1.2703   -1.2116   -0.8413 O   0  0  0  0  0  0  0  0  0  0  0  0
   -0.8887    0.4106    0.7236 N   0  0  0  0  0  0  0  0  0  0  0  0
   -2.4315    0.6311    1.0054 C   0  0  1  0  0  0  0  0  0  0  0  0
   -2.7939    1.1038   -0.5176 C   0  0  0  0  0  0  0  0  0  0  0  0
   -4.2320    1.4288   -0.3795 C   0  0  0  0  0  0  0  0  0  0  0  0
   -4.4845    2.7358    0.0947 C   0  0  0  0  0  0  0  0  0  0  0  0
   -5.7890    3.1212    0.2232 C   0  0  0  0  0  0  0  0  0  0  0  0
   -6.8426    2.3005   -0.0862 C   0  0  0  0  0  0  0  0  0  0  0  0
   -6.6070    1.0349   -0.5460 C   0  0  0  0  0  0  0  0  0  0  0  0
   -5.2976    0.6343   -0.6800 C   0  0  0  0  0  0  0  0  0  0  0  0
   -2.8134   -0.8943    0.9357 C   0  0  0  0  0  0  0  0  0  0  0  0
   -3.7818   -1.4253    0.2117 C   0  0  0  0  0  0  0  0  0  0  0  0
   -4.0627   -2.7663    0.2295 C   0  0  0  0  0  0  0  0  0  0  0  0
   -3.3056   -3.5798    1.0297 C   0  0  0  0  0  0  0  0  0  0  0  0
   -2.2815   -3.0886    1.8087 C   0  0  0  0  0  0  0  0  0  0  0  0
   -2.0466   -1.7004    1.7436 C   0  0  0  0  0  0  0  0  0  0  0  0
    1.4404   -1.7076   -1.1431 C   0  0  0  0  0  0  0  0  0  0  0  0
    2.7782   -1.8854   -1.3329 N   0  0  0  0  0  0  0  0  0  0  0  0
    3.5943   -1.0059   -0.7645 C   0  0  0  0  0  0  0  0  0  0  0  0
    4.9816   -0.9241   -0.7823 C   0  0  0  0  0  0  0  0  0  0  0  0
    5.3916    0.1638   -0.0523 C   0  0  0  0  0  0  0  0  0  0  0  0
    6.7845    0.6403    0.2054 C   0  0  0  0  0  0  0  0  0  0  0  0
    7.7444   -0.3161   -0.4790 C   0  0  0  0  0  0  0  0  0  0  0  0
    7.1123    0.6893    1.6630 C   0  0  0  0  0  0  0  0  0  0  0  0
    6.9501    1.9900   -0.4810 C   0  0  0  0  0  0  0  0  0  0  0  0
    4.2487    0.7303    0.4003 N   0  0  0  0  0  0  0  0  0  0  0  0
    3.2001    0.0416   -0.0201 N   0  0  0  0  0  0  0  0  0  0  0  0
  1  2  1  0
  2  3  1  0
  3  4  2  0
  4  5  1  0
  5  6  2  0
  5  7  1  0
  7  8  1  0
  8  9  1  6
  9 10  1  0
 10 11  2  0
 11 12  1  0
 12 13  2  0
 13 14  1  0
 14 15  2  0
  8 16  1  0
 16 17  2  0
 17 18  1  0
 18 19  2  0
 19 20  1  0
 20 21  2  0
  4 22  1  0
 22 23  2  0
 23 24  1  0
 24 25  2  0
 25 26  1  0
 26 27  1  0
 27 28  1  0
 27 29  1  0
 27 30  1  0
 26 31  2  0
 31 32  1  0
 32  3  1  0
 15 10  1  0
 21 16  1  0
 32 24  1  0
M  END
>  <zinc_id>  (1) 
ZINC000004357008

>  <smiles>  (1) 
CCc1c(C(=O)N[C@@H](Cc2ccccc2)c2ccccc2)cnc2cc(C(C)(C)C)nn12

$$$$
