
     RDKit          3D

 20 22  0  0  0  0  0  0  0  0999 V2000
    4.7108    2.0405    0.1054 C   0  0  0  0  0  0  0  0  0  0  0  0
    4.4458    1.1252   -1.0411 C   0  0  0  0  0  0  0  0  0  0  0  0
    5.5390    0.0565   -1.0956 C   0  0  0  0  0  0  0  0  0  0  0  0
    3.1291    0.4446   -0.9395 C   0  0  0  0  0  0  0  0  0  0  0  0
    2.7814   -0.4642   -1.9127 C   0  0  0  0  0  0  0  0  0  0  0  0
    1.5839   -1.1446   -1.9045 C   0  0  0  0  0  0  0  0  0  0  0  0
    0.6891   -0.9110   -0.8805 C   0  0  0  0  0  0  0  0  0  0  0  0
    0.9963   -0.0080    0.1164 C   0  0  0  0  0  0  0  0  0  0  0  0
    2.2307    0.6620    0.0649 C   0  0  0  0  0  0  0  0  0  0  0  0
    0.2161    0.3913    1.2742 C   0  0  0  0  0  0  0  0  0  0  0  0
    0.5046    1.4953    1.7867 O   0  0  0  0  0  0  0  0  0  0  0  0
   -0.8831   -0.3220    1.9464 C   0  0  0  0  0  0  0  0  0  0  0  0
   -2.0915   -0.4267    1.0861 C   0  0  0  0  0  0  0  0  0  0  0  0
   -3.2214    0.1553    1.6000 C   0  0  0  0  0  0  0  0  0  0  0  0
   -4.3789    0.0995    0.8578 C   0  0  0  0  0  0  0  0  0  0  0  0
   -5.6011    0.6915    1.3407 N   0  0  0  0  0  0  0  0  0  0  0  0
   -4.4471   -0.5160   -0.3771 C   0  0  0  0  0  0  0  0  0  0  0  0
   -3.2809   -1.0956   -0.8664 C   0  0  0  0  0  0  0  0  0  0  0  0
   -2.1154   -1.0491   -0.1379 C   0  0  0  0  0  0  0  0  0  0  0  0
   -0.8074   -1.8753   -1.0233 S   0  0  0  0  0  0  0  0  0  0  0  0
  1  2  1  0
  2  3  1  0
  2  4  1  0
  4  5  2  0
  5  6  1  0
  6  7  2  0
  7  8  1  0
  8  9  2  0
  8 10  1  0
 10 11  2  0
 10 12  1  0
 12 13  1  0
 13 14  2  0
 14 15  1  0
 15 16  1  0
 15 17  2  0
 17 18  1  0
 18 19  2  0
 19 20  1  0
  9  4  1  0
 19 13  1  0
 20  7  1  0
M  END
>  <zinc_id>  (1) 
ZINC000000347452

>  <smiles>  (1) 
CC(C)c1ccc2c(c1)C(=O)Cc1cc(N)ccc1S2

$$$$
