
     RDKit          3D

 20 22  0  0  0  0  0  0  0  0999 V2000
   -5.4148    0.1287    1.6594 C   0  0  0  0  0  0  0  0  0  0  0  0
   -4.1535    0.1066    0.8552 C   0  0  0  0  0  0  0  0  0  0  0  0
   -3.1692   -0.8319    1.0554 C   0  0  0  0  0  0  0  0  0  0  0  0
   -1.9997   -0.8489    0.3065 C   0  0  0  0  0  0  0  0  0  0  0  0
   -0.9030   -1.5930    0.2586 N   0  0  0  0  0  0  0  0  0  0  0  0
   -0.0525   -1.1598   -0.6863 C   0  0  0  0  0  0  0  0  0  0  0  0
    1.2800   -1.6656   -1.1023 C   0  0  0  0  0  0  0  0  0  0  0  0
    2.3588   -1.0325   -0.3441 C   0  0  0  0  0  0  0  0  0  0  0  0
    2.7933   -1.5968    0.8304 C   0  0  0  0  0  0  0  0  0  0  0  0
    3.8226   -1.0202    1.5830 C   0  0  0  0  0  0  0  0  0  0  0  0
    4.3913    0.1307    1.1157 C   0  0  0  0  0  0  0  0  0  0  0  0
    3.9501    0.6850   -0.0572 C   0  0  0  0  0  0  0  0  0  0  0  0
    4.5955    1.9382   -0.5312 C   0  0  0  0  0  0  0  0  0  0  0  0
    4.0481    2.3817   -1.7274 O   0  0  0  0  0  0  0  0  0  0  0  0
    2.9420    0.0994   -0.7719 N   0  0  0  0  0  0  0  0  0  0  0  0
   -0.6615   -0.0989   -1.2417 N   0  0  0  0  0  0  0  0  0  0  0  0
   -1.8628    0.1258   -0.6587 C   0  0  0  0  0  0  0  0  0  0  0  0
   -2.8584    1.0781   -0.8639 C   0  0  0  0  0  0  0  0  0  0  0  0
   -4.0133    1.0798   -0.1109 C   0  0  0  0  0  0  0  0  0  0  0  0
   -5.0931    2.0937   -0.3165 C   0  0  0  0  0  0  0  0  0  0  0  0
  1  2  1  0
  2  3  2  0
  3  4  1  0
  4  5  1  0
  5  6  2  0
  6  7  1  0
  7  8  1  0
  8  9  2  0
  9 10  1  0
 10 11  2  0
 11 12  1  0
 12 13  1  0
 13 14  1  0
 12 15  2  0
  6 16  1  0
 16 17  1  0
 17 18  1  0
 18 19  2  0
 19 20  1  0
 19  2  1  0
 17  4  2  0
 15  8  1  0
M  END
>  <zinc_id>  (1) 
ZINC000001017493

>  <smiles>  (1) 
Cc1cc2nc(Cc3cccc(CO)n3)[nH]c2cc1C

$$$$
