
     RDKit          3D

 20 21  0  0  0  0  0  0  0  0999 V2000
    0.7697    2.1259   -0.3391 C   0  0  0  0  0  0  0  0  0  0  0  0
    1.9064    1.3825    0.2866 C   0  0  0  0  0  0  0  0  0  0  0  0
    3.0678    2.0162    0.6731 C   0  0  0  0  0  0  0  0  0  0  0  0
    4.1056    1.3341    1.2448 C   0  0  0  0  0  0  0  0  0  0  0  0
    3.9406   -0.0308    1.4211 C   0  0  0  0  0  0  0  0  0  0  0  0
    2.7904   -0.6787    1.0420 C   0  0  0  0  0  0  0  0  0  0  0  0
    2.6533   -2.1497    1.2495 C   0  0  0  0  0  0  0  0  0  0  0  0
    1.7491    0.0253    0.4648 C   0  0  0  0  0  0  0  0  0  0  0  0
    0.5695   -0.6861    0.0847 N   0  0  0  0  0  0  0  0  0  0  0  0
    0.4388   -1.2507   -1.2140 C   0  0  0  0  0  0  0  0  0  0  0  0
    1.4038   -1.0945   -2.0062 O   0  0  0  0  0  0  0  0  0  0  0  0
   -0.7301   -1.9977   -1.6969 C   0  0  0  0  0  0  0  0  0  0  0  0
   -1.7849   -2.1364   -0.7466 N   0  0  0  0  0  0  0  0  0  0  0  0
   -2.4365   -0.9994   -0.2004 C   0  0  0  0  0  0  0  0  0  0  0  0
   -3.4605   -1.1913    0.7299 C   0  0  0  0  0  0  0  0  0  0  0  0
   -4.1089   -0.1021    1.2743 C   0  0  0  0  0  0  0  0  0  0  0  0
   -3.7188    1.1500    0.8762 C   0  0  0  0  0  0  0  0  0  0  0  0
   -2.7033    1.3696   -0.0476 C   0  0  0  0  0  0  0  0  0  0  0  0
   -2.3874    2.6455   -0.3797 F   0  0  0  0  0  0  0  0  0  0  0  0
   -2.0647    0.2683   -0.5826 C   0  0  0  0  0  0  0  0  0  0  0  0
  1  2  1  0
  2  3  2  0
  3  4  1  0
  4  5  2  0
  5  6  1  0
  6  7  1  0
  6  8  2  0
  8  9  1  0
  9 10  1  0
 10 11  2  0
 10 12  1  0
 12 13  1  0
 13 14  1  0
 14 15  2  0
 15 16  1  0
 16 17  2  0
 17 18  1  0
 18 19  1  0
 18 20  2  0
  8  2  1  0
 20 14  1  0
M  END
>  <zinc_id>  (1) 
ZINC000001507835

>  <smiles>  (1) 
Cc1cccc(C)c1NC(=O)CNc1cccc(F)c1

$$$$
