
     RDKit          3D

 30 33  0  0  0  0  0  0  0  0999 V2000
   -4.2849    2.3289   -2.6446 C   0  0  0  0  0  0  0  0  0  0  0  0
   -5.0439    1.0199   -2.5938 C   0  0  0  0  0  0  0  0  0  0  0  0
   -5.0206    0.4503   -1.3183 O   0  0  0  0  0  0  0  0  0  0  0  0
   -3.8380    0.0960   -0.6855 C   0  0  0  0  0  0  0  0  0  0  0  0
   -2.5880    0.2852   -1.2822 C   0  0  0  0  0  0  0  0  0  0  0  0
   -1.4338   -0.0795   -0.6219 C   0  0  0  0  0  0  0  0  0  0  0  0
   -1.5300   -0.6074    0.5765 C   0  0  0  0  0  0  0  0  0  0  0  0
   -2.7170   -0.8407    1.2634 C   0  0  0  0  0  0  0  0  0  0  0  0
   -3.8661   -0.4636    0.5748 C   0  0  0  0  0  0  0  0  0  0  0  0
   -5.0990   -0.6529    1.1697 O   0  0  0  0  0  0  0  0  0  0  0  0
   -5.2496   -1.2181    2.4608 C   0  0  0  0  0  0  0  0  0  0  0  0
   -4.6888   -2.6125    2.5539 C   0  0  0  0  0  0  0  0  0  0  0  0
   -0.2175   -1.0610    1.4133 C   0  0  2  0  0  0  0  0  0  0  0  0
    0.6164    0.3224    1.3128 C   0  0  0  0  0  0  0  0  0  0  0  0
   -0.0834    1.4746    1.3290 C   0  0  0  0  0  0  0  0  0  0  0  0
    0.6005    2.6695    1.2338 C   0  0  0  0  0  0  0  0  0  0  0  0
    1.9904    2.6342    1.1245 C   0  0  0  0  0  0  0  0  0  0  0  0
    2.6632    1.4337    1.1124 C   0  0  0  0  0  0  0  0  0  0  0  0
    1.9577    0.2300    1.2099 C   0  0  0  0  0  0  0  0  0  0  0  0
    2.6098   -0.9868    1.2026 O   0  0  0  0  0  0  0  0  0  0  0  0
    3.9687   -1.2211    1.1024 C   0  0  0  0  0  0  0  0  0  0  0  0
    4.5037   -0.6766   -0.1694 C   0  0  0  0  0  0  0  0  0  0  0  0
    4.4313   -1.3791   -1.3573 C   0  0  0  0  0  0  0  0  0  0  0  0
    4.9551   -0.8115   -2.4999 C   0  0  0  0  0  0  0  0  0  0  0  0
    5.5446    0.4386   -2.4678 C   0  0  0  0  0  0  0  0  0  0  0  0
    5.6187    1.1426   -1.2844 C   0  0  0  0  0  0  0  0  0  0  0  0
    5.0887    0.5585   -0.1494 C   0  0  0  0  0  0  0  0  0  0  0  0
    0.4515   -1.7700    0.1499 N   0  0  0  0  0  0  0  0  0  0  0  0
    0.8133   -0.8506   -0.8087 C   0  0  0  0  0  0  0  0  0  0  0  0
   -0.1529    0.1472   -1.3064 C   0  0  0  0  0  0  0  0  0  0  0  0
  1  2  1  0
  2  3  1  0
  3  4  1  0
  4  5  2  0
  5  6  1  0
  6  7  2  0
  7  8  1  0
  8  9  2  0
  9 10  1  0
 10 11  1  0
 11 12  1  0
  7 13  1  0
 13 14  1  6
 14 15  2  0
 15 16  1  0
 16 17  2  0
 17 18  1  0
 18 19  2  0
 19 20  1  0
 20 21  1  0
 21 22  1  0
 22 23  2  0
 23 24  1  0
 24 25  2  0
 25 26  1  0
 26 27  2  0
 13 28  1  0
 28 29  1  0
 29 30  1  0
  9  4  1  0
 19 14  1  0
 27 22  1  0
 30  6  1  0
M  END
>  <zinc_id>  (1) 
ZINC000003703747

>  <smiles>  (1) 
CCOc1cc2c(cc1OCC)[C@H](c1ccccc1OCc1ccccc1)NCC2

$$$$
