
     RDKit          3D

 18 19  0  0  0  0  0  0  0  0999 V2000
    0.0535    0.3962    0.7627 O   0  0  0  0  0  0  0  0  0  0  0  0
   -0.1332   -0.8307    0.7374 C   0  0  0  0  0  0  0  0  0  0  0  0
   -1.4309   -1.3994    1.1792 C   0  0  0  0  0  0  0  0  0  0  0  0
   -2.3400   -0.2749    1.6069 C   0  0  0  0  0  0  0  0  0  0  0  0
   -2.5548    0.6430    0.4517 C   0  0  0  0  0  0  0  0  0  0  0  0
   -3.4424    1.8075    0.7410 C   0  0  0  0  0  0  0  0  0  0  0  0
   -4.8453    1.4855    0.2769 C   0  0  0  0  0  0  0  0  0  0  0  0
   -5.0622   -0.0144    0.2364 C   0  0  0  0  0  0  0  0  0  0  0  0
   -4.1876   -0.6837   -0.7963 C   0  0  0  0  0  0  0  0  0  0  0  0
   -2.8164   -0.0352   -0.8485 C   0  0  0  0  0  0  0  0  0  0  0  0
    0.9170   -1.6700    0.2790 N   0  0  0  0  0  0  0  0  0  0  0  0
    2.1354   -1.0650   -0.1303 C   0  0  0  0  0  0  0  0  0  0  0  0
    2.3106    0.2943   -0.0904 C   0  0  0  0  0  0  0  0  0  0  0  0
    3.5372    0.7941   -0.5109 C   0  0  0  0  0  0  0  0  0  0  0  0
    4.5575   -0.0047   -0.9550 C   0  0  0  0  0  0  0  0  0  0  0  0
    5.7915    0.5030   -1.3777 O   0  0  0  0  0  0  0  0  0  0  0  0
    4.3604   -1.3713   -0.9873 C   0  0  0  0  0  0  0  0  0  0  0  0
    3.1495   -1.9002   -0.5748 C   0  0  0  0  0  0  0  0  0  0  0  0
  1  2  2  0
  2  3  1  0
  3  4  1  0
  4  5  1  0
  5  6  1  0
  6  7  1  0
  7  8  1  0
  8  9  1  0
  9 10  1  0
  2 11  1  0
 11 12  1  0
 12 13  2  0
 13 14  1  0
 14 15  2  0
 15 16  1  0
 15 17  1  0
 17 18  2  0
 10  5  1  0
 18 12  1  0
M  END
>  <zinc_id>  (1) 
ZINC000000527767

>  <smiles>  (1) 
O=C(CCC1CCCCC1)Nc1ccc(O)cc1

$$$$
