
     RDKit          3D

 21 23  0  0  0  0  0  0  0  0999 V2000
    0.9872   -2.3724   -0.6960 C   0  0  0  0  0  0  0  0  0  0  0  0
    1.3405   -1.3155    0.4785 C   0  0  2  0  0  0  0  0  0  0  0  0
    0.0724   -0.5148    0.4344 N   0  0  0  0  0  0  0  0  0  0  0  0
   -0.9511   -0.6280   -0.5074 C   0  0  0  0  0  0  0  0  0  0  0  0
   -0.8913   -1.4446   -1.4387 O   0  0  0  0  0  0  0  0  0  0  0  0
   -2.1129    0.2550   -0.3758 C   0  0  0  0  0  0  0  0  0  0  0  0
   -2.5932    1.0285   -1.3760 C   0  0  0  0  0  0  0  0  0  0  0  0
   -3.6067    1.9294   -1.2320 C   0  0  0  0  0  0  0  0  0  0  0  0
   -4.1816    2.0547    0.0257 C   0  0  0  0  0  0  0  0  0  0  0  0
   -3.7341    1.2964    1.0592 C   0  0  0  0  0  0  0  0  0  0  0  0
   -2.6970    0.3911    0.8693 C   0  0  0  0  0  0  0  0  0  0  0  0
   -2.3244   -0.3821    1.9787 N   0  0  0  0  0  4  0  0  0  0  0  0
   -2.4874    0.0389    3.1205 O   0  0  0  0  0  0  0  0  0  0  0  0
   -1.7826   -1.6221    1.8274 O   0  0  0  0  0  1  0  0  0  0  0  0
    2.1921   -0.2493   -0.5046 C   0  0  2  0  0  0  0  0  0  0  0  0
    3.3545   -1.2742   -0.9343 C   0  0  0  0  0  0  0  0  0  0  0  0
    4.6244   -0.3024   -0.8581 C   0  0  1  0  0  0  0  0  0  0  0  0
    3.9744    1.1025   -1.2565 C   0  0  0  0  0  0  0  0  0  0  0  0
    3.5229    1.7427   -0.0476 C   0  0  0  0  0  0  0  0  0  0  0  0
    2.9378    0.4888    0.7854 C   0  0  2  0  0  0  0  0  0  0  0  0
    4.3559   -0.2225    0.7414 C   0  0  0  0  0  0  0  0  0  0  0  0
  2  1  1  6
  2  3  1  0
  3  4  1  0
  4  5  2  0
  4  6  1  0
  6  7  2  0
  7  8  1  0
  8  9  2  0
  9 10  1  0
 10 11  2  0
 11 12  1  0
 12 13  2  0
 12 14  1  0
  2 15  1  0
 15 16  1  6
 17 16  1  6
 17 18  1  0
 18 19  1  0
 20 19  1  6
 20 21  1  0
 11  6  1  0
 20 15  1  0
 21 17  1  0
M  CHG  2  12   1  14  -1
M  END
>  <zinc_id>  (1) 
ZINC000000474273

>  <smiles>  (1) 
C[C@H](NC(=O)c1ccccc1[N+](=O)[O-])[C@@H]1C[C@H]2CC[C@@H]1C2

$$$$
