
     RDKit          3D

 19 21  0  0  0  0  0  0  0  0999 V2000
   -4.7963    1.1350    1.4655 C   0  0  0  0  0  0  0  0  0  0  0  0
   -3.6446    0.6265    0.6586 C   0  0  0  0  0  0  0  0  0  0  0  0
   -2.4368    0.2872    1.2347 C   0  0  0  0  0  0  0  0  0  0  0  0
   -1.3720   -0.1873    0.4595 C   0  0  0  0  0  0  0  0  0  0  0  0
   -0.1967   -0.5130    1.0512 N   0  0  0  0  0  0  0  0  0  0  0  0
    0.8566   -0.9720    0.3574 C   0  0  0  0  0  0  0  0  0  0  0  0
    2.1547   -1.3383    0.9683 C   0  0  0  0  0  0  0  0  0  0  0  0
    3.1989   -0.2807    0.7129 C   0  0  0  0  0  0  0  0  0  0  0  0
    3.4758    0.8008    1.5021 C   0  0  0  0  0  0  0  0  0  0  0  0
    4.4393    1.6249    1.1047 C   0  0  0  0  0  0  0  0  0  0  0  0
    5.0869    1.3388   -0.0605 C   0  0  0  0  0  0  0  0  0  0  0  0
    4.3118   -0.0924   -0.5626 S   0  0  0  0  0  0  0  0  0  0  0  0
    0.7128   -1.1082   -1.0039 C   0  0  0  0  0  0  0  0  0  0  0  0
    1.6919   -1.5372   -1.6663 O   0  0  0  0  0  0  0  0  0  0  0  0
   -0.4610   -0.7873   -1.6269 N   0  0  0  0  0  0  0  0  0  0  0  0
   -1.5003   -0.3294   -0.9056 C   0  0  0  0  0  0  0  0  0  0  0  0
   -2.7115    0.0102   -1.4880 C   0  0  0  0  0  0  0  0  0  0  0  0
   -3.7489    0.4758   -0.7085 C   0  0  0  0  0  0  0  0  0  0  0  0
   -5.0604    0.8465   -1.3183 C   0  0  0  0  0  0  0  0  0  0  0  0
  1  2  1  0
  2  3  2  0
  3  4  1  0
  4  5  1  0
  5  6  2  0
  6  7  1  0
  7  8  1  0
  8  9  2  0
  9 10  1  0
 10 11  2  0
 11 12  1  0
  6 13  1  0
 13 14  2  0
 13 15  1  0
 15 16  1  0
 16 17  1  0
 17 18  2  0
 18 19  1  0
 18  2  1  0
 16  4  2  0
 12  8  1  0
M  END
>  <zinc_id>  (1) 
ZINC000000104765

>  <smiles>  (1) 
Cc1cc2nc(Cc3cccs3)c(=O)[nH]c2cc1C

$$$$
