
     RDKit          3D

 20 21  0  0  0  0  0  0  0  0999 V2000
    0.5564   -3.3646   -0.1398 C   0  0  0  0  0  0  0  0  0  0  0  0
    1.3202   -2.0749    0.0124 C   0  0  0  0  0  0  0  0  0  0  0  0
    2.6962   -2.1044    0.0157 C   0  0  0  0  0  0  0  0  0  0  0  0
    3.4252   -0.9298    0.1563 C   0  0  0  0  0  0  0  0  0  0  0  0
    4.8121   -1.0291    0.1518 O   0  0  0  0  0  0  0  0  0  0  0  0
    2.7976    0.2938    0.2958 C   0  0  0  0  0  0  0  0  0  0  0  0
    3.6555    1.5021    0.4372 C   0  0  0  0  0  0  0  0  0  0  0  0
    2.8138    2.7328    0.7179 C   0  0  0  0  0  0  0  0  0  0  0  0
    4.5283    1.7013   -0.7890 C   0  0  0  0  0  0  0  0  0  0  0  0
    1.4274    0.3043    0.2903 C   0  0  0  0  0  0  0  0  0  0  0  0
    0.6919   -0.8579    0.1510 C   0  0  0  0  0  0  0  0  0  0  0  0
   -0.7507   -0.8273    0.1410 N   0  0  0  0  0  0  0  0  0  0  0  0
   -1.4452    0.3967    0.2978 C   0  0  0  0  0  0  0  0  0  0  0  0
   -0.8269    1.4724    0.4497 O   0  0  0  0  0  0  0  0  0  0  0  0
   -2.8889    0.4016    0.2830 C   0  0  0  0  0  0  0  0  0  0  0  0
   -3.5436    1.6161    0.4328 C   0  0  0  0  0  0  0  0  0  0  0  0
   -4.9205    1.6584    0.4194 C   0  0  0  0  0  0  0  0  0  0  0  0
   -5.6754    0.5108    0.2583 C   0  0  0  0  0  0  0  0  0  0  0  0
   -5.0219   -0.6721    0.1119 C   0  0  0  0  0  0  0  0  0  0  0  0
   -3.6516   -0.7300    0.1233 C   0  0  0  0  0  0  0  0  0  0  0  0
  1  2  1  0
  2  3  2  0
  3  4  1  0
  4  5  1  0
  4  6  2  0
  6  7  1  0
  7  8  1  0
  7  9  1  0
  6 10  1  0
 10 11  2  0
 11 12  1  0
 12 13  1  0
 13 14  2  0
 13 15  1  0
 15 16  2  0
 16 17  1  0
 17 18  2  0
 18 19  1  0
 19 20  2  0
 11  2  1  0
 20 15  1  0
M  END
>  <zinc_id>  (1) 
ZINC000000032057

>  <smiles>  (1) 
Cc1cc(O)c(C(C)C)cc1NC(=O)c1ccccc1

$$$$
