
     RDKit          3D

 30 32  0  0  0  0  0  0  0  0999 V2000
   -4.4026   -3.0499   -0.2637 C   0  0  0  0  0  0  0  0  0  0  0  0
   -5.3208   -2.9111    0.6672 C   0  0  0  0  0  0  0  0  0  0  0  0
   -6.1847   -1.7132    0.7847 C   0  0  0  0  0  0  0  0  0  0  0  0
   -5.8858   -0.7468   -0.2249 N   0  0  0  0  0  0  0  0  0  0  0  0
   -4.6019   -0.1549   -0.3274 C   0  0  0  0  0  0  0  0  0  0  0  0
   -3.7269   -0.5128    0.5149 O   0  0  0  0  0  0  0  0  0  0  0  0
   -4.3026    0.8283   -1.3647 C   0  0  0  0  0  0  0  0  0  0  0  0
   -5.2348    1.2361   -2.2903 C   0  0  0  0  0  0  0  0  0  0  0  0
   -4.9287    2.1697   -3.2664 C   0  0  0  0  0  0  0  0  0  0  0  0
   -3.6620    2.7143   -3.3262 C   0  0  0  0  0  0  0  0  0  0  0  0
   -2.7129    2.3219   -2.4115 C   0  0  0  0  0  0  0  0  0  0  0  0
   -3.0451    1.3775   -1.4343 C   0  0  0  0  0  0  0  0  0  0  0  0
   -2.0727    0.9712   -0.4879 N   0  0  0  0  0  0  0  0  0  0  0  0
   -0.7659    1.5249   -0.5379 C   0  0  0  0  0  0  0  0  0  0  0  0
   -0.4819    2.3726   -1.4236 O   0  0  0  0  0  0  0  0  0  0  0  0
    0.2116    1.0826    0.4556 C   0  0  0  0  0  0  0  0  0  0  0  0
    1.4957    1.5909    0.4906 C   0  0  0  0  0  0  0  0  0  0  0  0
    2.4273    1.1834    1.4215 C   0  0  0  0  0  0  0  0  0  0  0  0
    2.1065    0.2351    2.3711 C   0  0  0  0  0  0  0  0  0  0  0  0
    3.0983   -0.2217    3.3911 C   0  0  0  0  0  0  0  0  0  0  0  0
    4.0671   -1.6277    2.8317 S   0  0  0  0  0  0  0  0  0  0  0  0
    5.1179   -1.1675    1.4666 C   0  0  0  0  0  0  0  0  0  0  0  0
    5.9431   -2.0814    0.8817 C   0  0  0  0  0  0  0  0  0  0  0  0
    6.7786   -1.7542   -0.1861 C   0  0  0  0  0  0  0  0  0  0  0  0
    6.7517   -0.4597   -0.6470 C   0  0  0  0  0  0  0  0  0  0  0  0
    7.6142   -0.0013   -1.7935 C   0  0  0  0  0  0  0  0  0  0  0  0
    5.9117    0.4614   -0.0477 C   0  0  0  0  0  0  0  0  0  0  0  0
    5.0867    0.1296    1.0101 C   0  0  0  0  0  0  0  0  0  0  0  0
    0.8225   -0.2769    2.3407 C   0  0  0  0  0  0  0  0  0  0  0  0
   -0.1037    0.1362    1.4054 C   0  0  0  0  0  0  0  0  0  0  0  0
  1  2  2  0
  2  3  1  0
  3  4  1  0
  4  5  1  0
  5  6  2  0
  5  7  1  0
  7  8  2  0
  8  9  1  0
  9 10  2  0
 10 11  1  0
 11 12  2  0
 12 13  1  0
 13 14  1  0
 14 15  2  0
 14 16  1  0
 16 17  2  0
 17 18  1  0
 18 19  2  0
 19 20  1  0
 20 21  1  0
 21 22  1  0
 22 23  2  0
 23 24  1  0
 24 25  2  0
 25 26  1  0
 25 27  1  0
 27 28  2  0
 19 29  1  0
 29 30  2  0
 12  7  1  0
 30 16  1  0
 28 22  1  0
M  END
>  <zinc_id>  (1) 
ZINC000002876242

>  <smiles>  (1) 
C=CCNC(=O)c1ccccc1NC(=O)c1ccc(CSc2ccc(C)cc2)cc1

$$$$
