
     RDKit          3D

 19 21  0  0  0  0  0  0  0  0999 V2000
    6.6002   -0.6433   -0.3887 C   0  0  0  0  0  0  0  0  0  0  0  0
    6.3500   -0.5703    0.9117 C   0  0  0  0  0  0  0  0  0  0  0  0
    4.9640   -0.4204    1.4145 C   0  0  0  0  0  0  0  0  0  0  0  0
    4.0705   -0.3793    0.2760 N   0  0  0  0  0  0  0  0  0  0  0  0
    2.6608   -0.2346    0.5828 C   0  0  0  0  0  0  0  0  0  0  0  0
    1.6437   -0.1702   -0.2495 N   0  0  0  0  0  0  0  0  0  0  0  0
    0.4379   -0.0389    0.2119 C   0  0  0  0  0  0  0  0  0  0  0  0
   -0.7541    0.0400   -0.6742 C   0  0  0  0  0  0  0  0  0  0  0  0
   -0.7984   -0.0081   -2.0526 C   0  0  0  0  0  0  0  0  0  0  0  0
   -2.0731    0.0963   -2.4715 N   0  0  0  0  0  0  0  0  0  0  0  0
   -2.8722    0.2123   -1.4016 C   0  0  0  0  0  0  0  0  0  0  0  0
   -4.2481    0.3473   -1.2659 C   0  0  0  0  0  0  0  0  0  0  0  0
   -4.7932    0.4459   -0.0227 C   0  0  0  0  0  0  0  0  0  0  0  0
   -4.0076    0.4151    1.1201 C   0  0  0  0  0  0  0  0  0  0  0  0
   -4.6682    0.5281    2.4575 C   0  0  0  0  0  0  0  0  0  0  0  0
   -2.6568    0.2817    0.9648 C   0  0  0  0  0  0  0  0  0  0  0  0
   -2.0650    0.1785   -0.2842 C   0  0  0  0  0  0  0  0  0  0  0  0
    0.2965    0.0262    1.5784 C   0  0  0  0  0  0  0  0  0  0  0  0
    1.9130   -0.1062    2.1097 S   0  0  0  0  0  0  0  0  0  0  0  0
  1  2  2  0
  2  3  1  0
  3  4  1  0
  4  5  1  0
  5  6  2  0
  6  7  1  0
  7  8  1  0
  8  9  2  0
  9 10  1  0
 10 11  1  0
 11 12  2  0
 12 13  1  0
 13 14  2  0
 14 15  1  0
 14 16  1  0
 16 17  2  0
  7 18  2  0
 18 19  1  0
 19  5  1  0
 17  8  1  0
 17 11  1  0
M  END
>  <zinc_id>  (1) 
ZINC000002364744

>  <smiles>  (1) 
C=CCNc1nc(-c2c[nH]c3ccc(C)cc23)cs1

$$$$
