
     RDKit          3D

 19 20  0  0  0  0  0  0  0  0999 V2000
    4.1467    2.1787   -0.6457 C   0  0  0  0  0  0  0  0  0  0  0  0
    3.5188    0.9172   -0.2279 C   0  0  0  0  0  0  0  0  0  0  0  0
    2.1362    0.7633   -0.2225 C   0  0  0  0  0  0  0  0  0  0  0  0
    1.5363   -0.4027    0.1631 C   0  0  0  0  0  0  0  0  0  0  0  0
    0.1333   -0.5141    0.1530 N   0  0  0  0  0  0  0  0  0  0  0  0
   -0.7189    0.5496   -0.2475 C   0  0  0  0  0  0  0  0  0  0  0  0
   -0.1763    1.6254   -0.6036 O   0  0  0  0  0  0  0  0  0  0  0  0
   -2.1573    0.3572   -0.2306 C   0  0  0  0  0  0  0  0  0  0  0  0
   -3.0240    1.3629   -0.6115 C   0  0  0  0  0  0  0  0  0  0  0  0
   -4.3881    1.1583   -0.5878 C   0  0  0  0  0  0  0  0  0  0  0  0
   -4.9484   -0.0369   -0.1906 C   0  0  0  0  0  0  0  0  0  0  0  0
   -6.8474   -0.2864   -0.1698 Br  0  0  0  0  0  0  0  0  0  0  0  0
   -4.0884   -1.0470    0.1916 C   0  0  0  0  0  0  0  0  0  0  0  0
   -2.7247   -0.8358    0.1656 C   0  0  0  0  0  0  0  0  0  0  0  0
    2.3105   -1.4574    0.5578 C   0  0  0  0  0  0  0  0  0  0  0  0
    1.6872   -2.7574    0.9893 C   0  0  0  0  0  0  0  0  0  0  0  0
    3.6805   -1.3310    0.5616 C   0  0  0  0  0  0  0  0  0  0  0  0
    4.2661   -0.1540    0.1717 C   0  0  0  0  0  0  0  0  0  0  0  0
    5.6579   -0.0900    0.1979 O   0  0  0  0  0  0  0  0  0  0  0  0
  1  2  1  0
  2  3  2  0
  3  4  1  0
  4  5  1  0
  5  6  1  0
  6  7  2  0
  6  8  1  0
  8  9  2  0
  9 10  1  0
 10 11  2  0
 11 12  1  0
 11 13  1  0
 13 14  2  0
  4 15  2  0
 15 16  1  0
 15 17  1  0
 17 18  2  0
 18 19  1  0
 18  2  1  0
 14  8  1  0
M  END
>  <zinc_id>  (1) 
ZINC000000268518

>  <smiles>  (1) 
Cc1cc(NC(=O)c2ccc(Br)cc2)c(C)cc1O

$$$$
