
     RDKit          3D

 22 24  0  0  0  0  0  0  0  0999 V2000
   -3.5859    0.9210    2.6395 C   0  0  0  0  0  0  0  0  0  0  0  0
   -2.3859    1.5082    1.9232 C   0  0  0  0  0  0  0  0  0  0  0  0
   -2.0122    0.7086    0.7293 C   0  0  0  0  0  0  0  0  0  0  0  0
   -0.9124   -0.1221    0.7876 C   0  0  0  0  0  0  0  0  0  0  0  0
   -0.5065   -0.8945   -0.2826 C   0  0  0  0  0  0  0  0  0  0  0  0
    0.6628   -1.7513   -0.1580 C   0  0  0  0  0  0  0  0  0  0  0  0
    0.6897   -3.0614   -0.2487 O   0  0  0  0  0  0  0  0  0  0  0  0
    1.9017   -3.5111   -0.0879 N   0  0  0  0  0  0  0  0  0  0  0  0
    2.7232   -2.4523    0.1200 C   0  0  0  0  0  0  0  0  0  0  0  0
    1.9555   -1.3061    0.0806 C   0  0  0  0  0  0  0  0  0  0  0  0
    2.3933    0.0749    0.2510 C   0  0  0  0  0  0  0  0  0  0  0  0
    1.9506    0.8632    1.2922 C   0  0  0  0  0  0  0  0  0  0  0  0
    2.3566    2.1656    1.4618 C   0  0  0  0  0  0  0  0  0  0  0  0
    3.2411    2.7275    0.5677 C   0  0  0  0  0  0  0  0  0  0  0  0
    3.7002    1.9561   -0.4865 C   0  0  0  0  0  0  0  0  0  0  0  0
    3.2857    0.6684   -0.6362 C   0  0  0  0  0  0  0  0  0  0  0  0
   -1.2113   -0.8505   -1.4649 C   0  0  0  0  0  0  0  0  0  0  0  0
   -0.8420   -1.6141   -2.5811 O   0  0  0  0  0  0  0  0  0  0  0  0
   -2.3166   -0.0122   -1.5154 C   0  0  0  0  0  0  0  0  0  0  0  0
   -2.7136    0.7500   -0.4526 C   0  0  0  0  0  0  0  0  0  0  0  0
   -3.8249    1.5933   -0.5024 O   0  0  0  0  0  0  0  0  0  0  0  0
   -4.5493    1.6386   -1.7170 C   0  0  0  0  0  0  0  0  0  0  0  0
  1  2  1  0
  2  3  1  0
  3  4  2  0
  4  5  1  0
  5  6  1  0
  6  7  1  0
  7  8  1  0
  8  9  2  0
  9 10  1  0
 10 11  1  0
 11 12  2  0
 12 13  1  0
 13 14  2  0
 14 15  1  0
 15 16  2  0
  5 17  2  0
 17 18  1  0
 17 19  1  0
 19 20  2  0
 20 21  1  0
 21 22  1  0
 20  3  1  0
 10  6  2  0
 16 11  1  0
M  END
>  <zinc_id>  (1) 
ZINC000000138891

>  <smiles>  (1) 
CCc1cc(-c2oncc2-c2ccccc2)c(O)cc1OC

$$$$
