
     RDKit          3D

 32 35  0  0  0  0  0  0  0  0999 V2000
    8.1277    0.5068   -1.2896 C   0  0  0  0  0  0  0  0  0  0  0  0
    8.2633    0.0778    0.1570 C   0  0  0  0  0  0  0  0  0  0  0  0
    7.1457    0.5421    0.8543 O   0  0  0  0  0  0  0  0  0  0  0  0
    5.8378    0.2155    0.5889 C   0  0  0  0  0  0  0  0  0  0  0  0
    4.8430    0.7619    1.3749 C   0  0  0  0  0  0  0  0  0  0  0  0
    3.5061    0.4853    1.1752 C   0  0  0  0  0  0  0  0  0  0  0  0
    3.1142   -0.3693    0.1560 C   0  0  0  0  0  0  0  0  0  0  0  0
    1.7364   -0.6501   -0.0440 N   0  0  0  0  0  0  0  0  0  0  0  0
    0.6693   -0.2085    0.8012 C   0  0  0  0  0  0  0  0  0  0  0  0
    0.8303    0.4903    1.8352 O   0  0  0  0  0  0  0  0  0  0  0  0
   -0.6071   -0.7119    0.2463 C   0  0  0  0  0  0  0  0  0  0  0  0
   -1.8424   -0.4228    0.8874 N   0  0  0  0  0  0  0  0  0  0  0  0
   -2.3555    0.9255    0.8838 C   0  0  0  0  0  0  0  0  0  0  0  0
   -1.6205    1.9101    0.2304 C   0  0  0  0  0  0  0  0  0  0  0  0
   -2.1061    3.1982    0.2209 C   0  0  0  0  0  0  0  0  0  0  0  0
   -3.2970    3.5304    0.8410 C   0  0  0  0  0  0  0  0  0  0  0  0
   -3.7592    4.9449    0.7905 C   0  0  0  0  0  0  0  0  0  0  0  0
   -3.9760    2.5273    1.4660 C   0  0  0  0  0  0  0  0  0  0  0  0
   -3.5318    1.2234    1.5032 C   0  0  0  0  0  0  0  0  0  0  0  0
   -4.3094    0.1485    2.2055 C   0  0  0  0  0  0  0  0  0  0  0  0
   -0.3502   -1.4036   -0.8456 C   0  0  0  0  0  0  0  0  0  0  0  0
   -1.5566   -2.2114   -1.8737 S   0  0  0  0  0  0  0  0  0  0  0  0
   -3.2103   -1.9750   -1.2503 C   0  0  0  0  0  0  0  0  0  0  0  0
   -3.7714   -2.8531   -0.3548 C   0  0  0  0  0  0  0  0  0  0  0  0
   -5.0639   -2.6494    0.1130 C   0  0  0  0  0  0  0  0  0  0  0  0
   -5.8118   -1.5698   -0.3051 C   0  0  0  0  0  0  0  0  0  0  0  0
   -5.2604   -0.6697   -1.2117 C   0  0  0  0  0  0  0  0  0  0  0  0
   -3.9757   -0.9021   -1.6552 C   0  0  0  0  0  0  0  0  0  0  0  0
    1.0884   -1.3936   -1.0662 C   0  0  0  0  0  0  0  0  0  0  0  0
    1.7320   -1.9434   -2.0058 O   0  0  0  0  0  0  0  0  0  0  0  0
    4.0842   -0.9205   -0.6335 C   0  0  0  0  0  0  0  0  0  0  0  0
    5.4268   -0.6337   -0.4217 C   0  0  0  0  0  0  0  0  0  0  0  0
  1  2  1  0
  2  3  1  0
  3  4  1  0
  4  5  2  0
  5  6  1  0
  6  7  2  0
  7  8  1  0
  8  9  1  0
  9 10  2  0
  9 11  1  0
 11 12  1  0
 12 13  1  0
 13 14  2  0
 14 15  1  0
 15 16  2  0
 16 17  1  0
 16 18  1  0
 18 19  2  0
 19 20  1  0
 11 21  2  0
 21 22  1  0
 22 23  1  0
 23 24  2  0
 24 25  1  0
 25 26  2  0
 26 27  1  0
 27 28  2  0
 21 29  1  0
 29 30  2  0
  7 31  1  0
 31 32  2  0
 32  4  1  0
 29  8  1  0
 19 13  1  0
 28 23  1  0
M  END
>  <zinc_id>  (1) 
ZINC000001928664

>  <smiles>  (1) 
CCOc1ccc(N2C(=O)C(Nc3ccc(C)cc3C)=C(Sc3ccccc3)C2=O)cc1

$$$$
