
     RDKit          3D

 19 20  0  0  0  0  0  0  0  0999 V2000
   -6.1894    0.9047   -0.2760 C   0  0  0  0  0  0  0  0  0  0  0  0
   -5.5111   -0.3605   -0.1939 N   0  0  0  0  0  0  0  0  0  0  0  0
   -6.2613   -1.5857   -0.2775 C   0  0  0  0  0  0  0  0  0  0  0  0
   -4.1096   -0.4054   -0.0314 C   0  0  0  0  0  0  0  0  0  0  0  0
   -3.3686    0.7675    0.0512 C   0  0  0  0  0  0  0  0  0  0  0  0
   -2.0002    0.6995    0.2099 C   0  0  0  0  0  0  0  0  0  0  0  0
   -1.3179   -0.4958    0.2922 C   0  0  0  0  0  0  0  0  0  0  0  0
    0.1296   -0.5779    0.4602 C   0  0  0  0  0  0  0  0  0  0  0  0
    0.7972    0.5106    0.5345 N   0  0  0  0  0  0  0  0  0  0  0  0
    2.2102    0.5681    0.6981 C   0  0  0  0  0  0  0  0  0  0  0  0
    2.7615    1.1090    1.8604 C   0  0  0  0  0  0  0  0  0  0  0  0
    4.1375    1.1311    1.9479 C   0  0  0  0  0  0  0  0  0  0  0  0
    4.9675    0.6502    0.9534 C   0  0  0  0  0  0  0  0  0  0  0  0
    6.3826    0.6830    1.0646 N   0  0  0  0  0  0  0  0  0  0  0  0
    4.3736    0.1255   -0.1758 C   0  0  0  0  0  0  0  0  0  0  0  0
    5.5408   -0.5418   -1.5551 Br  0  0  0  0  0  0  0  0  0  0  0  0
    3.0051    0.0775   -0.3179 C   0  0  0  0  0  0  0  0  0  0  0  0
   -2.0966   -1.6429    0.2052 C   0  0  0  0  0  0  0  0  0  0  0  0
   -3.4508   -1.6167    0.0482 C   0  0  0  0  0  0  0  0  0  0  0  0
  1  2  1  0
  2  3  1  0
  2  4  1  0
  4  5  2  0
  5  6  1  0
  6  7  2  0
  7  8  1  0
  8  9  2  0
  9 10  1  0
 10 11  2  0
 11 12  1  0
 12 13  2  0
 13 14  1  0
 13 15  1  0
 15 16  1  0
 15 17  2  0
  7 18  1  0
 18 19  2  0
 19  4  1  0
 17 10  1  0
M  END
>  <zinc_id>  (1) 
ZINC000001500903

>  <smiles>  (1) 
CN(C)c1ccc(/C=N/c2ccc(N)c(Br)c2)cc1

$$$$
