
     RDKit          3D

 32 36  0  0  0  0  0  0  0  0999 V2000
   -3.3906    4.9465   -1.2010 C   0  0  0  0  0  0  0  0  0  0  0  0
   -4.2375    3.8161   -1.2034 O   0  0  0  0  0  0  0  0  0  0  0  0
   -3.8013    2.6202   -0.6468 C   0  0  0  0  0  0  0  0  0  0  0  0
   -2.5395    2.5673   -0.1009 C   0  0  0  0  0  0  0  0  0  0  0  0
   -2.0775    1.3954    0.4590 C   0  0  0  0  0  0  0  0  0  0  0  0
   -2.8907    0.3179    0.4543 C   0  0  0  0  0  0  0  0  0  0  0  0
   -2.3658   -1.0589    1.1003 C   0  0  2  0  0  0  0  0  0  0  0  0
   -1.7254   -0.3938    2.3885 N   0  0  0  0  0  0  0  0  0  0  0  0
   -0.8346   -1.3287    2.9696 C   0  0  0  0  0  0  0  0  0  0  0  0
    0.4725   -1.2737    2.2590 C   0  0  0  0  0  0  0  0  0  0  0  0
    0.1863   -1.2420    0.8142 C   0  0  0  0  0  0  0  0  0  0  0  0
   -0.9981   -1.1475    0.2555 C   0  0  0  0  0  0  0  0  0  0  0  0
   -0.9486   -1.1453   -1.1071 N   0  0  0  0  0  0  0  0  0  0  0  0
    0.3638   -1.2464   -1.4119 C   0  0  0  0  0  0  0  0  0  0  0  0
    1.0559   -1.2954   -2.6040 C   0  0  0  0  0  0  0  0  0  0  0  0
    2.4266   -1.4020   -2.6598 C   0  0  0  0  0  0  0  0  0  0  0  0
    3.1753   -1.4652   -1.4875 C   0  0  0  0  0  0  0  0  0  0  0  0
    4.5485   -1.5726   -1.5779 O   0  0  0  0  0  0  0  0  0  0  0  0
    5.3007   -1.6319   -0.3939 C   0  0  0  0  0  0  0  0  0  0  0  0
    5.0599   -0.3804    0.3568 C   0  0  0  0  0  0  0  0  0  0  0  0
    5.6125    0.7846   -0.1492 C   0  0  0  0  0  0  0  0  0  0  0  0
    5.4301    1.9778    0.5124 C   0  0  0  0  0  0  0  0  0  0  0  0
    4.7009    2.0603    1.6878 C   0  0  0  0  0  0  0  0  0  0  0  0
    4.1595    0.8907    2.1748 C   0  0  0  0  0  0  0  0  0  0  0  0
    4.3396   -0.3023    1.5169 C   0  0  0  0  0  0  0  0  0  0  0  0
    2.4625   -1.4145   -0.3117 C   0  0  0  0  0  0  0  0  0  0  0  0
    1.0971   -1.3085   -0.2236 C   0  0  0  0  0  0  0  0  0  0  0  0
   -4.1513    0.3042   -0.0703 C   0  0  0  0  0  0  0  0  0  0  0  0
   -5.0395   -0.8770   -0.0741 C   0  0  0  0  0  0  0  0  0  0  0  0
   -6.3685   -0.5922   -0.7180 C   0  0  0  0  0  0  0  0  0  0  0  0
   -4.4094   -2.0882   -0.6766 C   0  0  0  0  0  0  0  0  0  0  0  0
   -4.6137    1.4858   -0.6334 C   0  0  0  0  0  0  0  0  0  0  0  0
  1  2  1  0
  2  3  1  0
  3  4  2  0
  4  5  1  0
  5  6  2  0
  7  6  1  6
  7  8  1  0
  8  9  1  0
  9 10  1  0
 10 11  1  0
 11 12  2  0
 12 13  1  0
 13 14  1  0
 14 15  2  0
 15 16  1  0
 16 17  2  0
 17 18  1  0
 18 19  1  0
 19 20  1  0
 20 21  2  0
 21 22  1  0
 22 23  2  0
 23 24  1  0
 24 25  2  0
 17 26  1  0
 26 27  2  0
  6 28  1  0
 28 29  1  0
 29 30  1  0
 29 31  1  0
 28 32  2  0
 32  3  1  0
 12  7  1  0
 27 14  1  0
 27 11  1  0
 25 20  1  0
M  END
>  <zinc_id>  (1) 
ZINC000003737912

>  <smiles>  (1) 
COc1ccc([C@@H]2NCCc3c2[nH]c2ccc(OCc4ccccc4)cc32)c(C(C)C)c1

$$$$
