
     RDKit          3D

 18 19  0  0  0  0  0  0  0  0999 V2000
   -3.0991    2.9615   -1.3524 C   0  0  0  0  0  0  0  0  0  0  0  0
   -2.5794    1.6883   -0.7403 C   0  0  0  0  0  0  0  0  0  0  0  0
   -3.3305    0.5648   -0.9711 C   0  0  0  0  0  0  0  0  0  0  0  0
   -2.8563   -0.6252   -0.4064 C   0  0  0  0  0  0  0  0  0  0  0  0
   -3.6699   -1.8379   -0.6567 C   0  0  0  0  0  0  0  0  0  0  0  0
   -1.6924   -0.6218    0.3346 C   0  0  0  0  0  0  0  0  0  0  0  0
   -1.2488   -1.8662    0.8907 C   0  0  0  0  0  0  0  0  0  0  0  0
   -0.9101   -2.8761    1.3434 N   0  0  0  0  0  0  0  0  0  0  0  0
   -0.9703    0.5409    0.5383 C   0  0  0  0  0  0  0  0  0  0  0  0
    0.5389    0.5177    1.5052 S   0  0  0  0  0  0  0  0  0  0  0  0
    1.9183    0.1868    0.4109 C   0  0  0  0  0  0  0  0  0  0  0  0
    1.7114   -0.0032   -0.9321 C   0  0  0  0  0  0  0  0  0  0  0  0
    2.7394   -0.2630   -1.8306 C   0  0  0  0  0  0  0  0  0  0  0  0
    4.0168   -0.3252   -1.3093 C   0  0  0  0  0  0  0  0  0  0  0  0
    4.2596   -0.1384    0.0385 C   0  0  0  0  0  0  0  0  0  0  0  0
    3.2089    0.1151    0.8819 C   0  0  0  0  0  0  0  0  0  0  0  0
    3.4130    0.3134    2.2714 N   0  0  0  0  0  0  0  0  0  0  0  0
   -1.4497    1.6682   -0.0159 N   0  0  0  0  0  0  0  0  0  0  0  0
  1  2  1  0
  2  3  2  0
  3  4  1  0
  4  5  1  0
  4  6  2  0
  6  7  1  0
  7  8  3  0
  6  9  1  0
  9 10  1  0
 10 11  1  0
 11 12  2  0
 12 13  1  0
 13 14  2  0
 14 15  1  0
 15 16  2  0
 16 17  1  0
  9 18  2  0
 18  2  1  0
 16 11  1  0
M  END
>  <zinc_id>  (1) 
ZINC000000074973

>  <smiles>  (1) 
Cc1cc(C)c(C#N)c(Sc2ccccc2N)n1

$$$$
