
     RDKit          3D

 20 21  0  0  0  0  0  0  0  0999 V2000
    4.8241   -0.7947   -1.3721 C   0  0  0  0  0  0  0  0  0  0  0  0
    3.3707   -0.7496   -0.9896 C   0  0  0  0  0  0  0  0  0  0  0  0
    2.5568   -1.8329   -1.1647 C   0  0  0  0  0  0  0  0  0  0  0  0
    1.2286   -1.7483   -0.7996 C   0  0  0  0  0  0  0  0  0  0  0  0
    0.6682   -0.6097   -0.2580 C   0  0  0  0  0  0  0  0  0  0  0  0
   -0.7162   -0.6079    0.0924 N   0  0  0  0  0  0  0  0  0  0  0  0
   -1.3779    0.4976    0.6478 C   0  0  0  0  0  0  0  0  0  0  0  0
   -0.7275    1.5518    0.8538 O   0  0  0  0  0  0  0  0  0  0  0  0
   -2.8270    0.5019    1.0152 C   0  0  0  0  0  0  0  0  0  0  0  0
   -3.8514    0.2628   -0.0289 C   0  0  0  0  0  0  0  0  0  0  0  0
   -5.2355    0.8223    0.1709 C   0  0  0  0  0  0  0  0  0  0  0  0
   -3.4025    0.2114   -1.4629 C   0  0  0  0  0  0  0  0  0  0  0  0
   -3.5190   -0.8918    0.8809 C   0  0  0  0  0  0  0  0  0  0  0  0
   -2.6565   -2.0066    0.3378 C   0  0  0  0  0  0  0  0  0  0  0  0
   -4.4155   -1.1639    2.0667 C   0  0  0  0  0  0  0  0  0  0  0  0
    1.4878    0.4854   -0.0801 C   0  0  0  0  0  0  0  0  0  0  0  0
    2.8295    0.4125   -0.4446 C   0  0  0  0  0  0  0  0  0  0  0  0
    3.6550    1.5500   -0.2536 N   0  0  0  0  0  4  0  0  0  0  0  0
    3.3552    2.3489    0.6496 O   0  0  0  0  0  0  0  0  0  0  0  0
    4.7531    1.7606   -1.0455 O   0  0  0  0  0  1  0  0  0  0  0  0
  1  2  1  0
  2  3  2  0
  3  4  1  0
  4  5  2  0
  5  6  1  0
  6  7  1  0
  7  8  2  0
  7  9  1  0
  9 10  1  0
 10 11  1  0
 10 12  1  0
 10 13  1  0
 13 14  1  0
 13 15  1  0
  5 16  1  0
 16 17  2  0
 17 18  1  0
 18 19  2  0
 18 20  1  0
 17  2  1  0
 13  9  1  0
M  CHG  2  18   1  20  -1
M  END
>  <zinc_id>  (1) 
ZINC000000130638

>  <smiles>  (1) 
Cc1ccc(NC(=O)C2C(C)(C)C2(C)C)cc1[N+](=O)[O-]

$$$$
