
     RDKit          3D

 22 24  0  0  0  0  0  0  0  0999 V2000
    5.5028   -0.6472    0.1196 C   0  0  0  0  0  0  0  0  0  0  0  0
    4.0710   -0.3087   -0.1413 C   0  0  0  0  0  0  0  0  0  0  0  0
    3.2229   -1.1482   -0.8167 C   0  0  0  0  0  0  0  0  0  0  0  0
    1.9096   -0.8048   -1.0395 C   0  0  0  0  0  0  0  0  0  0  0  0
    1.4409    0.3968   -0.5786 C   0  0  0  0  0  0  0  0  0  0  0  0
    0.1267    0.8557   -0.7647 N   0  0  0  0  0  0  0  0  0  0  0  0
   -0.8769    0.3689   -0.1767 C   0  0  0  0  0  0  0  0  0  0  0  0
   -0.8826   -0.7299    0.7822 C   0  0  0  0  0  0  0  0  0  0  0  0
    0.1884   -1.4992    1.2743 N   0  0  0  0  0  4  0  0  0  0  0  0
    0.2758   -2.6843    0.9519 O   0  0  0  0  0  0  0  0  0  0  0  0
    1.0977   -0.9423    2.1033 O   0  0  0  0  0  1  0  0  0  0  0  0
   -2.1556   -0.9434    1.1780 C   0  0  0  0  0  0  0  0  0  0  0  0
   -2.5736   -1.8995    2.0804 O   0  0  0  0  0  0  0  0  0  0  0  0
   -3.0509   -0.0101    0.5118 C   0  0  0  0  0  0  0  0  0  0  0  0
   -4.4131    0.2147    0.5402 C   0  0  0  0  0  0  0  0  0  0  0  0
   -4.9801    1.2082   -0.2326 C   0  0  0  0  0  0  0  0  0  0  0  0
   -4.2301    2.0107   -1.0558 C   0  0  0  0  0  0  0  0  0  0  0  0
   -2.8630    1.7918   -1.0902 C   0  0  0  0  0  0  0  0  0  0  0  0
   -2.2983    0.7950   -0.3141 C   0  0  0  0  0  0  0  0  0  0  0  0
    2.3148    1.2223    0.0975 C   0  0  0  0  0  0  0  0  0  0  0  0
    3.6317    0.9118    0.3379 C   0  0  0  0  0  0  0  0  0  0  0  0
    4.5421    1.8418    1.0774 C   0  0  0  0  0  0  0  0  0  0  0  0
  1  2  1  0
  2  3  2  0
  3  4  1  0
  4  5  2  0
  5  6  1  0
  6  7  2  0
  7  8  1  0
  8  9  1  0
  9 10  2  0
  9 11  1  0
  8 12  2  0
 12 13  1  0
 12 14  1  0
 14 15  2  0
 15 16  1  0
 16 17  2  0
 17 18  1  0
 18 19  2  0
  5 20  1  0
 20 21  2  0
 21 22  1  0
 21  2  1  0
 19  7  1  0
 19 14  1  0
M  CHG  2   9   1  11  -1
M  END
>  <zinc_id>  (1) 
ZINC000002490270

>  <smiles>  (1) 
Cc1ccc(/N=C2\C([N+](=O)[O-])=C(O)c3ccccc32)cc1C

$$$$
