
     RDKit          3D

 20 21  0  0  0  0  0  0  0  0999 V2000
   -3.3607   -0.5217   -2.6810 C   0  0  0  0  0  0  0  0  0  0  0  0
   -2.6738    0.6459   -2.0246 C   0  0  0  0  0  0  0  0  0  0  0  0
   -1.8311    0.2582   -0.9574 O   0  0  0  0  0  0  0  0  0  0  0  0
   -2.4401   -0.4137    0.1101 C   0  0  0  0  0  0  0  0  0  0  0  0
   -3.7530   -0.6787    0.1258 N   0  0  0  0  0  0  0  0  0  0  0  0
   -4.3174   -1.3217    1.1544 C   0  0  0  0  0  0  0  0  0  0  0  0
   -3.5055   -1.7038    2.1991 C   0  0  0  0  0  0  0  0  0  0  0  0
   -2.1561   -1.4522    2.2231 C   0  0  0  0  0  0  0  0  0  0  0  0
   -1.5914   -0.7846    1.1472 C   0  0  0  0  0  0  0  0  0  0  0  0
   -0.1740   -0.4761    1.0868 C   0  0  0  0  0  0  0  0  0  0  0  0
    0.6225   -0.7925    1.9989 O   0  0  0  0  0  0  0  0  0  0  0  0
    0.3529    0.2074   -0.0341 N   0  0  0  0  0  0  0  0  0  0  0  0
    1.7302    0.5412   -0.1583 C   0  0  0  0  0  0  0  0  0  0  0  0
    2.6632    0.2248    0.8052 C   0  0  0  0  0  0  0  0  0  0  0  0
    4.0004    0.5496    0.6832 C   0  0  0  0  0  0  0  0  0  0  0  0
    5.0136    0.2125    1.7170 C   0  0  0  0  0  0  0  0  0  0  0  0
    4.4487    1.2209   -0.4439 C   0  0  0  0  0  0  0  0  0  0  0  0
    3.5323    1.5387   -1.4040 C   0  0  0  0  0  0  0  0  0  0  0  0
    2.1792    1.2082   -1.2770 C   0  0  0  0  0  0  0  0  0  0  0  0
    1.2600    1.5378   -2.2609 O   0  0  0  0  0  0  0  0  0  0  0  0
  1  2  1  0
  2  3  1  0
  3  4  1  0
  4  5  2  0
  5  6  1  0
  6  7  2  0
  7  8  1  0
  8  9  2  0
  9 10  1  0
 10 11  2  0
 10 12  1  0
 12 13  1  0
 13 14  2  0
 14 15  1  0
 15 16  1  0
 15 17  2  0
 17 18  1  0
 18 19  2  0
 19 20  1  0
  9  4  1  0
 19 13  1  0
M  END
>  <zinc_id>  (1) 
ZINC000003584608

>  <smiles>  (1) 
CCOc1ncccc1C(=O)Nc1cc(C)ccc1O

$$$$
