
     RDKit          3D

 30 33  0  0  0  0  0  0  0  0999 V2000
   -6.5391   -0.2520    1.1440 C   0  0  0  0  0  0  0  0  0  0  0  0
   -5.9417   -0.6096   -0.2113 C   0  0  0  0  0  0  0  0  0  0  0  0
   -4.5421   -0.3767   -0.2036 O   0  0  0  0  0  0  0  0  0  0  0  0
   -4.0329    0.9002    0.0425 C   0  0  0  0  0  0  0  0  0  0  0  0
   -4.9018    1.9638    0.2842 C   0  0  0  0  0  0  0  0  0  0  0  0
   -4.4163    3.2177    0.5263 C   0  0  0  0  0  0  0  0  0  0  0  0
   -3.0408    3.3791    0.5201 C   0  0  0  0  0  0  0  0  0  0  0  0
   -2.1639    2.3418    0.2834 C   0  0  0  0  0  0  0  0  0  0  0  0
   -2.6681    1.0746    0.0392 C   0  0  0  0  0  0  0  0  0  0  0  0
   -1.8178   -0.0129   -0.2069 N   0  0  0  0  0  0  0  0  0  0  0  0
   -0.4070    0.1376   -0.2163 C   0  0  0  0  0  0  0  0  0  0  0  0
    0.0293    1.2858    0.0056 O   0  0  0  0  0  0  0  0  0  0  0  0
    0.5083   -1.0153   -0.4776 C   0  0  0  0  0  0  0  0  0  0  0  0
    1.8653   -0.8202   -0.4764 C   0  0  0  0  0  0  0  0  0  0  0  0
    2.5779    0.4217   -0.2433 N   0  0  0  0  0  0  0  0  0  0  0  0
    4.0400    0.3402   -0.3015 C   0  0  0  0  0  0  0  0  0  0  0  0
    4.6665    1.6368   -0.0548 C   0  0  0  0  0  0  0  0  0  0  0  0
    5.0000    2.0184    1.2369 C   0  0  0  0  0  0  0  0  0  0  0  0
    5.5885    3.2583    1.3869 C   0  0  0  0  0  0  0  0  0  0  0  0
    5.8318    4.0657    0.3407 N   0  0  0  0  0  0  0  0  0  0  0  0
    5.5107    3.6996   -0.9070 C   0  0  0  0  0  0  0  0  0  0  0  0
    4.9203    2.4698   -1.1102 C   0  0  0  0  0  0  0  0  0  0  0  0
    2.4860   -2.3710   -0.8105 S   0  0  0  0  0  0  0  0  0  0  0  0
    1.0224   -3.2265   -0.9435 C   0  0  0  0  0  0  0  0  0  0  0  0
    0.0767   -2.2724   -0.7219 C   0  0  0  0  0  0  0  0  0  0  0  0
   -1.4112   -2.5859   -0.7435 C   0  0  0  0  0  0  0  0  0  0  0  0
   -1.7276   -3.6393    0.2843 C   0  0  0  0  0  0  0  0  0  0  0  0
   -1.4124   -4.9931   -0.3354 C   0  0  0  0  0  0  0  0  0  0  0  0
    0.0346   -5.3393   -0.1333 C   0  0  0  0  0  0  0  0  0  0  0  0
    0.8643   -4.6971   -1.2390 C   0  0  0  0  0  0  0  0  0  0  0  0
  1  2  1  0
  2  3  1  0
  3  4  1  0
  4  5  2  0
  5  6  1  0
  6  7  2  0
  7  8  1  0
  8  9  2  0
  9 10  1  0
 10 11  1  0
 11 12  2  0
 11 13  1  0
 13 14  2  0
 14 15  1  0
 15 16  1  0
 16 17  1  0
 17 18  2  0
 18 19  1  0
 19 20  2  0
 20 21  1  0
 21 22  2  0
 14 23  1  0
 23 24  1  0
 24 25  2  0
 25 26  1  0
 26 27  1  0
 27 28  1  0
 28 29  1  0
 29 30  1  0
  9  4  1  0
 25 13  1  0
 22 17  1  0
 30 24  1  0
M  END
>  <zinc_id>  (1) 
ZINC000000920939

>  <smiles>  (1) 
CCOc1ccccc1NC(=O)c1c(NCc2ccncc2)sc2c1CCCCC2

$$$$
