
     RDKit          3D

 20 22  0  0  0  0  0  0  0  0999 V2000
   -2.2136    2.5721   -0.1174 C   0  0  0  0  0  0  0  0  0  0  0  0
   -1.4580    1.4481   -0.7743 C   0  0  0  0  0  0  0  0  0  0  0  0
   -0.0540    1.3727   -0.2665 C   0  0  0  0  0  0  0  0  0  0  0  0
    0.5889    0.1303   -1.0710 C   0  0  1  0  0  0  0  0  0  0  0  0
    2.0245    0.3056   -0.3891 C   0  0  0  0  0  0  0  0  0  0  0  0
    3.2157    0.6214   -0.9730 C   0  0  0  0  0  0  0  0  0  0  0  0
    4.3518    0.6936   -0.1455 C   0  0  0  0  0  0  0  0  0  0  0  0
    4.2669    0.4554    1.1996 C   0  0  0  0  0  0  0  0  0  0  0  0
    5.4305    0.5452    1.9483 O   0  0  0  0  0  0  0  0  0  0  0  0
    3.0431    0.1416    1.7374 C   0  0  0  0  0  0  0  0  0  0  0  0
    1.9089    0.0709    0.9052 C   0  0  0  0  0  0  0  0  0  0  0  0
    0.5435   -0.2254    1.3058 C   0  0  0  0  0  0  0  0  0  0  0  0
    0.1973   -1.1193    0.0178 C   0  0  1  0  0  0  0  0  0  0  0  0
   -1.3439   -1.0235   -0.0623 C   0  0  0  0  0  0  0  0  0  0  0  0
   -1.8850   -1.3248   -1.2993 C   0  0  0  0  0  0  0  0  0  0  0  0
   -3.2780   -1.3033   -1.4829 C   0  0  0  0  0  0  0  0  0  0  0  0
   -4.1167   -0.9840   -0.4409 C   0  0  0  0  0  0  0  0  0  0  0  0
   -5.5070   -0.9689   -0.6472 O   0  0  0  0  0  0  0  0  0  0  0  0
   -3.5450   -0.6906    0.7709 C   0  0  0  0  0  0  0  0  0  0  0  0
   -2.1700   -0.7170    0.9323 C   0  0  0  0  0  0  0  0  0  0  0  0
  1  2  1  0
  2  3  1  0
  4  3  1  1
  4  5  1  0
  5  6  2  0
  6  7  1  0
  7  8  2  0
  8  9  1  0
  8 10  1  0
 10 11  2  0
 11 12  1  0
 12 13  1  0
 13 14  1  1
 14 15  2  0
 15 16  1  0
 16 17  2  0
 17 18  1  0
 17 19  1  0
 19 20  2  0
 13  4  1  0
 20 14  1  0
 11  5  1  0
M  END
>  <zinc_id>  (1) 
ZINC000001666289

>  <smiles>  (1) 
CCC[C@H]1c2ccc(O)cc2C[C@H]1c1ccc(O)cc1

$$$$
