
     RDKit          3D

 32 35  0  0  0  0  0  0  0  0999 V2000
    8.1932    2.2191   -1.5558 C   0  0  0  0  0  0  0  0  0  0  0  0
    7.8918    1.8339   -0.2274 O   0  0  0  0  0  0  0  0  0  0  0  0
    6.7058    1.1143   -0.0035 C   0  0  0  0  0  0  0  0  0  0  0  0
    5.8583    0.7908   -1.0407 C   0  0  0  0  0  0  0  0  0  0  0  0
    4.7081    0.0924   -0.8209 C   0  0  0  0  0  0  0  0  0  0  0  0
    4.3208   -0.3342    0.4549 C   0  0  0  0  0  0  0  0  0  0  0  0
    2.8526   -1.2291    0.7520 S   0  0  0  0  0  0  0  0  0  0  0  0
    3.1406   -2.2195    1.8769 O   0  0  0  0  0  0  0  0  0  0  0  0
    2.4955   -2.0929   -0.4270 O   0  0  0  0  0  0  0  0  0  0  0  0
    1.5975   -0.2486    1.2707 N   0  0  0  0  0  0  0  0  0  0  0  0
    1.2298    0.8268    0.1898 C   0  0  2  0  0  0  0  0  0  0  0  0
    2.6495    1.6421    0.3085 C   0  0  0  0  0  0  0  0  0  0  0  0
    0.4735    1.7879    1.2857 C   0  0  0  0  0  0  0  0  0  0  0  0
   -0.6305    0.8822    1.7587 C   0  0  0  0  0  0  0  0  0  0  0  0
   -1.5633    0.5620    0.6819 C   0  0  0  0  0  0  0  0  0  0  0  0
   -2.8148    1.1935    0.6047 C   0  0  0  0  0  0  0  0  0  0  0  0
   -3.4848    0.7458   -0.4557 N   0  0  0  0  0  0  0  0  0  0  0  0
   -4.8263    1.1869   -0.8438 C   0  0  0  0  0  0  0  0  0  0  0  0
   -5.7716    0.2628   -0.1429 C   0  0  0  0  0  0  0  0  0  0  0  0
   -6.2016    0.6447    1.1333 C   0  0  0  0  0  0  0  0  0  0  0  0
   -7.0717   -0.1854    1.8030 C   0  0  0  0  0  0  0  0  0  0  0  0
   -7.4990   -1.3466    1.2328 C   0  0  0  0  0  0  0  0  0  0  0  0
   -7.0705   -1.7178   -0.0279 C   0  0  0  0  0  0  0  0  0  0  0  0
   -6.2129   -0.9163   -0.7080 C   0  0  0  0  0  0  0  0  0  0  0  0
   -2.7074   -0.1608   -1.0747 C   0  0  0  0  0  0  0  0  0  0  0  0
   -2.9293   -0.9013   -2.1912 C   0  0  0  0  0  0  0  0  0  0  0  0
   -1.9878   -1.7843   -2.6591 C   0  0  0  0  0  0  0  0  0  0  0  0
   -0.8004   -1.9142   -1.9769 C   0  0  0  0  0  0  0  0  0  0  0  0
   -0.5847   -1.1644   -0.8528 C   0  0  0  0  0  0  0  0  0  0  0  0
   -1.5081   -0.2854   -0.3774 C   0  0  0  0  0  0  0  0  0  0  0  0
    5.1917    0.0048    1.4799 C   0  0  0  0  0  0  0  0  0  0  0  0
    6.3560    0.7108    1.2636 C   0  0  0  0  0  0  0  0  0  0  0  0
  1  2  1  0
  2  3  1  0
  3  4  2  0
  4  5  1  0
  5  6  2  0
  6  7  1  0
  7  8  2  0
  7  9  2  0
  7 10  1  0
 10 11  1  0
 11 12  1  1
 11 13  1  0
 13 14  1  0
 14 15  1  0
 15 16  2  0
 16 17  1  0
 17 18  1  0
 18 19  1  0
 19 20  2  0
 20 21  1  0
 21 22  2  0
 22 23  1  0
 23 24  2  0
 17 25  1  0
 25 26  2  0
 26 27  1  0
 27 28  2  0
 28 29  1  0
 29 30  2  0
  6 31  1  0
 31 32  2  0
 32  3  1  0
 30 15  1  0
 24 19  1  0
 30 25  1  0
M  END
>  <zinc_id>  (1) 
ZINC000003765582

>  <smiles>  (1) 
COc1ccc(S(=O)(=O)N[C@H](C)CCc2cn(Cc3ccccc3)c3ccccc23)cc1

$$$$
