
     RDKit          3D

 32 35  0  0  0  0  0  0  0  0999 V2000
   -1.9167   -4.4359    2.2208 C   0  0  0  0  0  0  0  0  0  0  0  0
   -1.6191   -3.3290    1.3652 O   0  0  0  0  0  0  0  0  0  0  0  0
   -1.6936   -3.5050   -0.0232 C   0  0  0  0  0  0  0  0  0  0  0  0
   -2.0477   -4.7247   -0.5529 C   0  0  0  0  0  0  0  0  0  0  0  0
   -2.1114   -4.8638   -1.9209 C   0  0  0  0  0  0  0  0  0  0  0  0
   -1.8214   -3.7873   -2.7133 C   0  0  0  0  0  0  0  0  0  0  0  0
   -1.4653   -2.5622   -2.1635 C   0  0  0  0  0  0  0  0  0  0  0  0
   -1.3973   -2.4077   -0.7979 C   0  0  0  0  0  0  0  0  0  0  0  0
   -1.0362   -1.1679   -0.2117 N   0  0  0  0  0  0  0  0  0  0  0  0
    0.1061   -0.9371    0.6046 C   0  0  0  0  0  0  0  0  0  0  0  0
    0.9399   -1.8267    0.9031 O   0  0  0  0  0  0  0  0  0  0  0  0
    0.1220    0.4496    1.0047 C   0  0  0  0  0  0  0  0  0  0  0  0
    1.1434    1.0031    1.8312 N   0  0  0  0  0  0  0  0  0  0  0  0
    2.5162    0.9336    1.4368 C   0  0  0  0  0  0  0  0  0  0  0  0
    3.5002    1.4664    2.2390 C   0  0  0  0  0  0  0  0  0  0  0  0
    4.8170    1.3664    1.7978 C   0  0  0  0  0  0  0  0  0  0  0  0
    5.1105    0.7595    0.6101 C   0  0  0  0  0  0  0  0  0  0  0  0
    6.5025    0.6416    0.1214 C   0  0  0  0  0  0  0  0  0  0  0  0
    7.0124   -0.7226    0.5729 C   0  0  0  0  0  0  0  0  0  0  0  0
    6.4750    0.7397   -1.3949 C   0  0  0  0  0  0  0  0  0  0  0  0
    4.1132    0.2294   -0.1846 C   0  0  0  0  0  0  0  0  0  0  0  0
    2.8268    0.3239    0.2406 C   0  0  0  0  0  0  0  0  0  0  0  0
   -0.9337    1.0463    0.4779 C   0  0  0  0  0  0  0  0  0  0  0  0
   -1.2785    2.7799    0.7385 S   0  0  0  0  0  0  0  0  0  0  0  0
   -2.7683    3.2793   -0.1013 C   0  0  0  0  0  0  0  0  0  0  0  0
   -4.0264    3.2346    0.4606 C   0  0  0  0  0  0  0  0  0  0  0  0
   -5.1492    3.6449   -0.2673 C   0  0  0  0  0  0  0  0  0  0  0  0
   -5.0316    4.1020   -1.5567 C   0  0  0  0  0  0  0  0  0  0  0  0
   -3.7731    4.1454   -2.1153 C   0  0  0  0  0  0  0  0  0  0  0  0
   -2.6623    3.7398   -1.3959 C   0  0  0  0  0  0  0  0  0  0  0  0
   -1.6996    0.0880   -0.2952 C   0  0  0  0  0  0  0  0  0  0  0  0
   -2.7538    0.2964   -0.9303 O   0  0  0  0  0  0  0  0  0  0  0  0
  1  2  1  0
  2  3  1  0
  3  4  2  0
  4  5  1  0
  5  6  2  0
  6  7  1  0
  7  8  2  0
  8  9  1  0
  9 10  1  0
 10 11  2  0
 10 12  1  0
 12 13  1  0
 13 14  1  0
 14 15  2  0
 15 16  1  0
 16 17  2  0
 17 18  1  0
 18 19  1  0
 18 20  1  0
 17 21  1  0
 21 22  2  0
 12 23  2  0
 23 24  1  0
 24 25  1  0
 25 26  2  0
 26 27  1  0
 27 28  2  0
 28 29  1  0
 29 30  2  0
 23 31  1  0
 31 32  2  0
  8  3  1  0
 31  9  1  0
 22 14  1  0
 30 25  1  0
M  END
>  <zinc_id>  (1) 
ZINC000001954394

>  <smiles>  (1) 
COc1ccccc1N1C(=O)C(Nc2ccc(C(C)C)cc2)=C(Sc2ccccc2)C1=O

$$$$
