
     RDKit          3D

 29 31  0  0  0  0  0  0  0  0999 V2000
   -8.3477    1.5381    2.4879 C   0  0  0  0  0  0  0  0  0  0  0  0
   -7.1496    1.1936    1.6750 C   0  0  0  0  0  0  0  0  0  0  0  0
   -7.2731    0.4123    0.5709 C   0  0  0  0  0  0  0  0  0  0  0  0
   -6.1607    0.0830   -0.1948 C   0  0  0  0  0  0  0  0  0  0  0  0
   -4.9023    0.5305    0.1298 C   0  0  0  0  0  0  0  0  0  0  0  0
   -3.7334    0.1830   -0.6771 C   0  0  0  0  0  0  0  0  0  0  0  0
   -3.7668   -0.6103   -1.7997 C   0  0  0  0  0  0  0  0  0  0  0  0
   -2.6041   -0.9023   -2.5319 C   0  0  0  0  0  0  0  0  0  0  0  0
   -1.3882   -0.3924   -2.1354 C   0  0  0  0  0  0  0  0  0  0  0  0
    0.1393   -0.7142   -3.0146 S   0  0  0  0  0  0  0  0  0  0  0  0
    0.9981   -2.1597   -2.4368 C   0  0  0  0  0  0  0  0  0  0  0  0
    1.4539   -1.9551   -1.0606 C   0  0  0  0  0  0  0  0  0  0  0  0
    0.6606   -2.3338   -0.0233 C   0  0  0  0  0  0  0  0  0  0  0  0
    1.0322   -2.1800    1.3037 C   0  0  0  0  0  0  0  0  0  0  0  0
    2.2725   -1.6132    1.5337 C   0  0  0  0  0  0  0  0  0  0  0  0
    3.1119   -1.2134    0.5174 C   0  0  0  0  0  0  0  0  0  0  0  0
    4.4250   -0.6203    0.8249 C   0  0  0  0  0  0  0  0  0  0  0  0
    4.9645   -0.9514    1.9058 O   0  0  0  0  0  0  0  0  0  0  0  0
    5.0929    0.2887   -0.0260 N   0  0  0  0  0  0  0  0  0  0  0  0
    6.4725    0.7241    0.6093 C   0  0  1  0  0  0  0  0  0  0  0  0
    7.3465    0.1806   -0.7120 C   0  0  0  0  0  0  0  0  0  0  0  0
    6.3847    2.2663   -0.0121 C   0  0  0  0  0  0  0  0  0  0  0  0
    7.7029    2.8407    0.5363 C   0  0  0  0  0  0  0  0  0  0  0  0
    5.2384    2.7933    0.8394 C   0  0  0  0  0  0  0  0  0  0  0  0
    2.6728   -1.3971   -0.7910 C   0  0  0  0  0  0  0  0  0  0  0  0
   -1.4232    0.3761   -1.0298 N   0  0  0  0  0  0  0  0  0  0  0  0
   -2.5204    0.6493   -0.3427 N   0  0  0  0  0  0  0  0  0  0  0  0
   -4.8097    1.3191    1.2542 C   0  0  0  0  0  0  0  0  0  0  0  0
   -5.8896    1.6644    2.0344 C   0  0  0  0  0  0  0  0  0  0  0  0
  1  2  1  0
  2  3  2  0
  3  4  1  0
  4  5  2  0
  5  6  1  0
  6  7  2  0
  7  8  1  0
  8  9  2  0
  9 10  1  0
 10 11  1  0
 11 12  1  0
 12 13  2  0
 13 14  1  0
 14 15  2  0
 15 16  1  0
 16 17  1  0
 17 18  2  0
 17 19  1  0
 19 20  1  0
 20 21  1  6
 20 22  1  0
 22 23  1  0
 22 24  1  0
 16 25  2  0
  9 26  1  0
 26 27  2  0
  5 28  1  0
 28 29  2  0
 29  2  1  0
 27  6  1  0
 25 12  1  0
M  END
>  <zinc_id>  (1) 
ZINC000000737781

>  <smiles>  (1) 
Cc1ccc(-c2ccc(SCc3cccc(C(=O)N[C@@H](C)C(C)C)c3)nn2)cc1

$$$$
