
     RDKit          3D

 30 32  0  0  0  0  0  0  0  0999 V2000
    6.7256    0.9303   -1.9051 C   0  0  0  0  0  0  0  0  0  0  0  0
    7.0979    0.5139   -0.5217 C   0  0  0  0  0  0  0  0  0  0  0  0
    6.1613    0.4851    0.3516 N   0  0  0  0  0  0  0  0  0  0  0  0
    4.8326    0.8215    0.0654 N   0  0  0  0  0  0  0  0  0  0  0  0
    3.8425   -0.1486   -0.2536 C   0  0  0  0  0  0  0  0  0  0  0  0
    4.2069   -1.3471   -0.2710 O   0  0  0  0  0  0  0  0  0  0  0  0
    2.4599    0.2214   -0.5497 C   0  0  0  0  0  0  0  0  0  0  0  0
    1.5334   -0.7273   -0.8515 C   0  0  0  0  0  0  0  0  0  0  0  0
    0.2204   -0.3360   -1.1292 C   0  0  0  0  0  0  0  0  0  0  0  0
   -0.1731    0.9784   -1.1089 C   0  0  0  0  0  0  0  0  0  0  0  0
   -1.5559    1.4336   -1.3976 C   0  0  0  0  0  0  0  0  0  0  0  0
   -2.2669    1.4446   -0.1261 N   0  0  0  0  0  0  0  0  0  0  0  0
   -3.6275    1.8667   -0.2458 C   0  0  0  0  0  0  0  0  0  0  0  0
   -4.5971    1.0669    0.5615 C   0  0  0  0  0  0  0  0  0  0  0  0
   -4.4860   -0.3921    0.2414 C   0  0  0  0  0  0  0  0  0  0  0  0
   -5.2770   -1.2263    1.2483 C   0  0  0  0  0  0  0  0  0  0  0  0
   -6.7112   -0.8476    1.2183 C   0  0  0  0  0  0  0  0  0  0  0  0
   -7.6142   -1.4645    0.3842 C   0  0  0  0  0  0  0  0  0  0  0  0
   -8.9452   -1.1185    0.3512 C   0  0  0  0  0  0  0  0  0  0  0  0
   -9.3767   -0.1158    1.1892 C   0  0  0  0  0  0  0  0  0  0  0  0
   -8.4864    0.4970    2.0159 C   0  0  0  0  0  0  0  0  0  0  0  0
   -7.1637    0.1640    2.0590 C   0  0  0  0  0  0  0  0  0  0  0  0
   -3.0718   -0.8675    0.1323 C   0  0  0  0  0  0  0  0  0  0  0  0
   -2.0998    0.1987    0.5869 C   0  0  0  0  0  0  0  0  0  0  0  0
    0.7944    1.9171   -0.7981 C   0  0  0  0  0  0  0  0  0  0  0  0
    2.0771    1.5406   -0.5264 C   0  0  0  0  0  0  0  0  0  0  0  0
    8.5121    0.1589   -0.2292 C   0  0  0  0  0  0  0  0  0  0  0  0
    8.9545   -1.0015   -1.0855 C   0  0  0  0  0  0  0  0  0  0  0  0
    8.6888   -0.0872    1.2394 C   0  0  0  0  0  0  0  0  0  0  0  0
    9.3450    1.3759   -0.6450 C   0  0  0  0  0  0  0  0  0  0  0  0
  1  2  1  0
  2  3  2  0
  3  4  1  0
  4  5  1  0
  5  6  2  0
  5  7  1  0
  7  8  2  0
  8  9  1  0
  9 10  2  0
 10 11  1  0
 11 12  1  0
 12 13  1  0
 13 14  1  0
 14 15  1  0
 15 16  1  0
 16 17  1  0
 17 18  2  0
 18 19  1  0
 19 20  2  0
 20 21  1  0
 21 22  2  0
 15 23  1  0
 23 24  1  0
 10 25  1  0
 25 26  2  0
  2 27  1  0
 27 28  1  0
 27 29  1  0
 27 30  1  0
 26  7  1  0
 24 12  1  0
 22 17  1  0
M  END
>  <zinc_id>  (1) 
ZINC000004502986

>  <smiles>  (1) 
C/C(=N\NC(=O)c1ccc(CN2CCC(Cc3ccccc3)CC2)cc1)C(C)(C)C

$$$$
