
     RDKit          3D

 32 35  0  0  0  0  0  0  0  0999 V2000
    7.7896   -1.0511    0.5559 C   0  0  0  0  0  0  0  0  0  0  0  0
    7.0699    0.1936    0.2361 C   0  0  0  0  0  0  0  0  0  0  0  0
    7.2463    1.3358    1.1428 C   0  0  0  0  0  0  0  0  0  0  0  0
    5.8438    0.1021   -0.5451 C   0  0  0  0  0  0  0  0  0  0  0  0
    4.7157   -0.6874   -0.0063 C   0  0  0  0  0  0  0  0  0  0  0  0
    4.1645   -0.2413    1.3078 C   0  0  0  0  0  0  0  0  0  0  0  0
    3.6506    1.3071    1.0532 C   0  0  2  0  0  0  0  0  0  0  0  0
    3.1259    1.4936    2.6041 C   0  0  0  0  0  0  0  0  0  0  0  0
    2.2570    0.9022    0.4676 N   0  0  0  0  0  0  0  0  0  0  0  0
    1.3676    0.1354    1.1719 C   0  0  0  0  0  0  0  0  0  0  0  0
    1.6793   -0.2603    2.3387 O   0  0  0  0  0  0  0  0  0  0  0  0
    0.0676   -0.2530    0.6427 C   0  0  0  0  0  0  0  0  0  0  0  0
   -0.8886   -1.0156    1.2803 C   0  0  0  0  0  0  0  0  0  0  0  0
   -0.7541   -1.5542    2.5919 N   0  0  0  0  0  0  0  0  0  0  0  0
   -1.9212   -1.1284    0.4270 N   0  0  0  0  0  0  0  0  0  0  0  0
   -3.1258   -1.8650    0.7438 C   0  0  0  0  0  0  0  0  0  0  0  0
   -4.1667   -1.0518    1.3860 C   0  0  0  0  0  0  0  0  0  0  0  0
   -5.1343   -0.3628    0.7014 C   0  0  0  0  0  0  0  0  0  0  0  0
   -6.0711    0.3733    1.3806 C   0  0  0  0  0  0  0  0  0  0  0  0
   -6.0564    0.4329    2.7559 C   0  0  0  0  0  0  0  0  0  0  0  0
   -5.0953   -0.2496    3.4719 C   0  0  0  0  0  0  0  0  0  0  0  0
   -4.1730   -0.9767    2.7570 C   0  0  0  0  0  0  0  0  0  0  0  0
   -1.6389   -0.4631   -0.7160 C   0  0  0  0  0  0  0  0  0  0  0  0
   -2.3076   -0.2621   -1.8650 N   0  0  0  0  0  0  0  0  0  0  0  0
   -1.7742    0.4682   -2.8835 C   0  0  0  0  0  0  0  0  0  0  0  0
   -2.4685    0.6686   -4.0594 C   0  0  0  0  0  0  0  0  0  0  0  0
   -1.9520    1.4087   -5.1185 C   0  0  0  0  0  0  0  0  0  0  0  0
   -0.7007    1.9658   -4.9958 C   0  0  0  0  0  0  0  0  0  0  0  0
   -0.0022    1.7684   -3.8218 C   0  0  0  0  0  0  0  0  0  0  0  0
   -0.5193    1.0296   -2.7664 C   0  0  0  0  0  0  0  0  0  0  0  0
    0.1575    0.8322   -1.6168 N   0  0  0  0  0  0  0  0  0  0  0  0
   -0.3853    0.1082   -0.6220 C   0  0  0  0  0  0  0  0  0  0  0  0
  1  2  1  0
  2  3  1  0
  2  4  1  0
  4  5  1  0
  5  6  1  0
  6  7  1  0
  7  8  1  1
  7  9  1  0
  9 10  1  0
 10 11  2  0
 10 12  1  0
 12 13  2  0
 13 14  1  0
 13 15  1  0
 15 16  1  0
 16 17  1  0
 17 18  2  0
 18 19  1  0
 19 20  2  0
 20 21  1  0
 21 22  2  0
 15 23  1  0
 23 24  2  0
 24 25  1  0
 25 26  2  0
 26 27  1  0
 27 28  2  0
 28 29  1  0
 29 30  2  0
 30 31  1  0
 31 32  2  0
 32 12  1  0
 22 17  1  0
 32 23  1  0
 30 25  1  0
M  END
>  <zinc_id>  (1) 
ZINC000002443142

>  <smiles>  (1) 
CC(C)CCC[C@H](C)NC(=O)c1c(N)n(Cc2ccccc2)c2nc3ccccc3nc12

$$$$
