
     RDKit          3D

 31 34  0  0  0  0  0  0  0  0999 V2000
   -3.8022    5.8600    0.5943 C   0  0  0  0  0  0  0  0  0  0  0  0
   -4.3586    4.6537    0.6711 C   0  0  0  0  0  0  0  0  0  0  0  0
   -4.5941    3.8687   -0.5926 C   0  0  0  0  0  0  0  0  0  0  0  0
   -3.8313    2.6388   -0.4442 N   0  0  0  0  0  0  0  0  0  0  0  0
   -2.4059    2.7732   -0.2676 C   0  0  0  0  0  0  0  0  0  0  0  0
   -1.8517    3.8822   -0.2426 O   0  0  0  0  0  0  0  0  0  0  0  0
   -1.5951    1.5726   -0.1142 C   0  0  0  0  0  0  0  0  0  0  0  0
   -0.2303    1.5172    0.0625 C   0  0  0  0  0  0  0  0  0  0  0  0
    0.6665    2.6247    0.1314 N   0  0  0  0  0  0  0  0  0  0  0  0
    0.1490    0.2234    0.1646 N   0  0  0  0  0  0  0  0  0  0  0  0
    1.4876   -0.2072    0.3535 C   0  0  0  0  0  0  0  0  0  0  0  0
    2.4340    0.1854   -0.5697 C   0  0  0  0  0  0  0  0  0  0  0  0
    3.7702   -0.2040   -0.4424 C   0  0  0  0  0  0  0  0  0  0  0  0
    4.1807   -0.9927    0.6112 C   0  0  0  0  0  0  0  0  0  0  0  0
    5.4963   -1.4086    0.7859 O   0  0  0  0  0  0  0  0  0  0  0  0
    6.5387   -1.0746   -0.0818 C   0  0  0  0  0  0  0  0  0  0  0  0
    6.2231   -1.5992   -1.4697 C   0  0  0  0  0  0  0  0  0  0  0  0
    7.3765   -1.2176   -2.3832 C   0  0  0  0  0  0  0  0  0  0  0  0
    7.5339    0.2938   -2.4213 C   0  0  0  0  0  0  0  0  0  0  0  0
    3.2282   -1.3785    1.5262 C   0  0  0  0  0  0  0  0  0  0  0  0
    1.8927   -0.9959    1.4090 C   0  0  0  0  0  0  0  0  0  0  0  0
   -0.9258   -0.5871    0.0607 C   0  0  0  0  0  0  0  0  0  0  0  0
   -1.0546   -1.9317    0.0999 N   0  0  0  0  0  0  0  0  0  0  0  0
   -2.2696   -2.5019   -0.0319 C   0  0  0  0  0  0  0  0  0  0  0  0
   -2.4332   -3.8830    0.0043 C   0  0  0  0  0  0  0  0  0  0  0  0
   -3.6780   -4.4702   -0.1305 C   0  0  0  0  0  0  0  0  0  0  0  0
   -4.7632   -3.6315   -0.3040 C   0  0  0  0  0  0  0  0  0  0  0  0
   -4.5975   -2.2628   -0.3394 C   0  0  0  0  0  0  0  0  0  0  0  0
   -3.3591   -1.6731   -0.2055 C   0  0  0  0  0  0  0  0  0  0  0  0
   -3.2176   -0.3235   -0.2432 N   0  0  0  0  0  0  0  0  0  0  0  0
   -2.0098    0.2492   -0.1125 C   0  0  0  0  0  0  0  0  0  0  0  0
  1  2  2  0
  2  3  1  0
  3  4  1  0
  4  5  1  0
  5  6  2  0
  5  7  1  0
  7  8  2  0
  8  9  1  0
  8 10  1  0
 10 11  1  0
 11 12  2  0
 12 13  1  0
 13 14  2  0
 14 15  1  0
 15 16  1  0
 16 17  1  0
 17 18  1  0
 18 19  1  0
 14 20  1  0
 20 21  2  0
 10 22  1  0
 22 23  2  0
 23 24  1  0
 24 25  2  0
 25 26  1  0
 26 27  2  0
 27 28  1  0
 28 29  2  0
 29 30  1  0
 30 31  2  0
 31  7  1  0
 21 11  1  0
 31 22  1  0
 29 24  1  0
M  END
>  <zinc_id>  (1) 
ZINC000002291749

>  <smiles>  (1) 
C=CCNC(=O)c1c(N)n(-c2ccc(OCCCC)cc2)c2nc3ccccc3nc12

$$$$
