
     RDKit          3D

 31 33  0  0  0  0  0  0  0  0999 V2000
    9.1452    0.0975    0.1272 C   0  0  0  0  0  0  0  0  0  0  0  0
    8.1472    0.9613    0.6585 O   0  0  0  0  0  0  0  0  0  0  0  0
    6.8431    0.7497    0.2614 C   0  0  0  0  0  0  0  0  0  0  0  0
    6.4897   -0.2488   -0.6142 C   0  0  0  0  0  0  0  0  0  0  0  0
    5.1887   -0.4547   -1.0037 C   0  0  0  0  0  0  0  0  0  0  0  0
    4.1703    0.3618   -0.5095 C   0  0  0  0  0  0  0  0  0  0  0  0
    2.7542    0.0975   -0.9542 C   0  0  0  0  0  0  0  0  0  0  0  0
    2.2168   -0.9080    0.0367 C   0  0  0  0  0  0  0  0  0  0  0  0
    0.8682   -1.3248   -0.2181 N   0  0  0  0  0  0  0  0  0  0  0  0
   -0.2758   -0.5142   -0.2567 C   0  0  0  0  0  0  0  0  0  0  0  0
   -0.1723    0.7056   -0.0593 O   0  0  0  0  0  0  0  0  0  0  0  0
   -1.5718   -1.1021   -0.5270 C   0  0  0  0  0  0  0  0  0  0  0  0
   -1.6813   -2.3983   -0.7417 C   0  0  0  0  0  0  0  0  0  0  0  0
   -3.0321   -2.9332   -1.0120 C   0  0  0  0  0  0  0  0  0  0  0  0
   -3.3461   -3.9148   -1.9125 C   0  0  0  0  0  0  0  0  0  0  0  0
   -4.6161   -4.2750   -2.0203 C   0  0  0  0  0  0  0  0  0  0  0  0
   -5.5297   -3.6451   -1.2249 C   0  0  0  0  0  0  0  0  0  0  0  0
   -4.5572   -2.5542   -0.3434 S   0  0  0  0  0  0  0  0  0  0  0  0
   -2.7803   -0.3480   -0.5679 N   0  0  0  0  0  0  0  0  0  0  0  0
   -3.2707    0.4273    0.4991 C   0  0  0  0  0  0  0  0  0  0  0  0
   -2.5532    0.4319    1.5630 O   0  0  0  0  0  0  0  0  0  0  0  0
   -4.4959    1.1943    0.4766 C   0  0  0  0  0  0  0  0  0  0  0  0
   -4.6894    2.1774    1.4402 C   0  0  0  0  0  0  0  0  0  0  0  0
   -5.8328    2.9525    1.4994 C   0  0  0  0  0  0  0  0  0  0  0  0
   -6.8104    2.7329    0.5637 C   0  0  0  0  0  0  0  0  0  0  0  0
   -6.6672    1.7768   -0.4032 C   0  0  0  0  0  0  0  0  0  0  0  0
   -5.4976    1.0098   -0.4364 C   0  0  0  0  0  0  0  0  0  0  0  0
    4.4899    1.3674    0.3654 C   0  0  0  0  0  0  0  0  0  0  0  0
    5.8029    1.5508    0.7383 C   0  0  0  0  0  0  0  0  0  0  0  0
    6.1140    2.5812    1.6320 O   0  0  0  0  0  0  0  0  0  0  0  0
    5.1496    3.4455    2.1739 C   0  0  0  0  0  0  0  0  0  0  0  0
  1  2  1  0
  2  3  1  0
  3  4  2  0
  4  5  1  0
  5  6  2  0
  6  7  1  0
  7  8  1  0
  8  9  1  0
  9 10  1  0
 10 11  2  0
 10 12  1  0
 12 13  2  0
 13 14  1  0
 14 15  2  0
 15 16  1  0
 16 17  2  0
 17 18  1  0
 12 19  1  0
 19 20  1  0
 20 21  2  0
 20 22  1  0
 22 23  2  0
 23 24  1  0
 24 25  2  0
 25 26  1  0
 26 27  2  0
  6 28  1  0
 28 29  2  0
 29 30  1  0
 30 31  1  0
 29  3  1  0
 18 14  1  0
 27 22  1  0
M  END
>  <zinc_id>  (1) 
ZINC000002060523

>  <smiles>  (1) 
COc1ccc(CCNC(=O)/C(=C/c2cccs2)NC(=O)c2ccccc2)cc1OC

$$$$
