
     RDKit          3D

 21 22  0  0  0  0  0  0  0  0999 V2000
    4.4045    2.9313    0.4615 C   0  0  0  0  0  0  0  0  0  0  0  0
    4.1535    1.4892    0.8584 C   0  0  0  0  0  0  0  0  0  0  0  0
    2.8785    1.1733    0.2796 O   0  0  0  0  0  0  0  0  0  0  0  0
    2.3263   -0.0663    0.4372 C   0  0  0  0  0  0  0  0  0  0  0  0
    2.9394   -0.9271    1.0904 O   0  0  0  0  0  0  0  0  0  0  0  0
    1.0075   -0.4107   -0.1550 C   0  0  0  0  0  0  0  0  0  0  0  0
    0.3302    0.4542   -0.8419 C   0  0  0  0  0  0  0  0  0  0  0  0
    0.9907    1.7937   -0.9995 C   0  0  0  0  0  0  0  0  0  0  0  0
   -1.0778    0.2290   -1.3679 C   0  0  2  0  0  0  0  0  0  0  0  0
   -1.9519    0.3598   -0.0646 C   0  0  0  0  0  0  0  0  0  0  0  0
   -2.9353   -0.5774    0.1440 C   0  0  0  0  0  0  0  0  0  0  0  0
   -3.7962   -0.5881    1.2412 C   0  0  0  0  0  0  0  0  0  0  0  0
   -3.5958    0.4373    2.1418 C   0  0  0  0  0  0  0  0  0  0  0  0
   -2.6093    1.3746    1.9293 C   0  0  0  0  0  0  0  0  0  0  0  0
   -1.7640    1.3617    0.8248 C   0  0  0  0  0  0  0  0  0  0  0  0
   -0.8244    2.3484    0.7028 F   0  0  0  0  0  0  0  0  0  0  0  0
   -1.1613   -1.2750   -1.4992 N   0  0  0  0  0  0  0  0  0  0  0  0
   -0.4870   -2.2004   -0.7640 C   0  0  0  0  0  0  0  0  0  0  0  0
   -0.8829   -3.3999   -0.7265 O   0  0  0  0  0  0  0  0  0  0  0  0
    0.6610   -1.7660   -0.0533 N   0  0  0  0  0  0  0  0  0  0  0  0
    1.3942   -2.7417    0.7252 C   0  0  0  0  0  0  0  0  0  0  0  0
  1  2  1  0
  2  3  1  0
  3  4  1  0
  4  5  2  0
  4  6  1  0
  6  7  2  0
  7  8  1  0
  7  9  1  0
  9 10  1  1
 10 11  2  0
 11 12  1  0
 12 13  2  0
 13 14  1  0
 14 15  2  0
 15 16  1  0
  9 17  1  0
 17 18  1  0
 18 19  2  0
 18 20  1  0
 20 21  1  0
 20  6  1  0
 15 10  1  0
M  END
>  <zinc_id>  (1) 
ZINC000000234816

>  <smiles>  (1) 
CCOC(=O)C1=C(C)[C@H](c2ccccc2F)NC(=O)N1C

$$$$
