
     RDKit          3D

 31 34  0  0  0  0  0  0  0  0999 V2000
   -2.2198   -6.4310    0.0824 C   0  0  0  0  0  0  0  0  0  0  0  0
   -2.5792   -5.6475   -1.1723 C   0  0  0  0  0  0  0  0  0  0  0  0
   -2.1100   -4.3125   -0.9597 O   0  0  0  0  0  0  0  0  0  0  0  0
   -2.6049   -3.5860    0.1106 C   0  0  0  0  0  0  0  0  0  0  0  0
   -3.5417   -4.0675    1.0102 C   0  0  0  0  0  0  0  0  0  0  0  0
   -3.9700   -3.2768    2.0345 C   0  0  0  0  0  0  0  0  0  0  0  0
   -3.5006   -1.9940    2.2156 C   0  0  0  0  0  0  0  0  0  0  0  0
   -2.5707   -1.5190    1.3210 C   0  0  0  0  0  0  0  0  0  0  0  0
   -2.1300   -2.3045    0.2838 C   0  0  0  0  0  0  0  0  0  0  0  0
   -1.1774   -1.7857   -0.6139 N   0  0  0  0  0  0  0  0  0  0  0  0
   -0.6966   -0.4714   -0.4325 C   0  0  0  0  0  0  0  0  0  0  0  0
    0.5592   -0.1374   -0.2781 C   0  0  0  0  0  0  0  0  0  0  0  0
    1.9309   -1.2687   -0.2636 S   0  0  0  0  0  0  0  0  0  0  0  0
    3.4848   -0.4318   -0.0262 C   0  0  0  0  0  0  0  0  0  0  0  0
    3.9685   -0.2336    1.2462 C   0  0  0  0  0  0  0  0  0  0  0  0
    5.1678    0.4097    1.4806 C   0  0  0  0  0  0  0  0  0  0  0  0
    5.9210    0.8765    0.4210 C   0  0  0  0  0  0  0  0  0  0  0  0
    7.2305    1.5796    0.6647 C   0  0  0  0  0  0  0  0  0  0  0  0
    5.4486    0.6849   -0.8619 C   0  0  0  0  0  0  0  0  0  0  0  0
    4.2401    0.0356   -1.0759 C   0  0  0  0  0  0  0  0  0  0  0  0
    0.6732    1.2950   -0.1195 C   0  0  0  0  0  0  0  0  0  0  0  0
    1.6948    2.0153    0.0524 O   0  0  0  0  0  0  0  0  0  0  0  0
   -0.6392    1.8372   -0.1890 N   0  0  0  0  0  0  0  0  0  0  0  0
   -1.0215    3.1872   -0.0864 C   0  0  0  0  0  0  0  0  0  0  0  0
   -2.1058    3.6863   -0.7779 C   0  0  0  0  0  0  0  0  0  0  0  0
   -2.4702    5.0133   -0.6687 C   0  0  0  0  0  0  0  0  0  0  0  0
   -1.7544    5.8911    0.1438 C   0  0  0  0  0  0  0  0  0  0  0  0
   -0.6704    5.3795    0.8314 C   0  0  0  0  0  0  0  0  0  0  0  0
   -0.2966    4.0552    0.7302 C   0  0  0  0  0  0  0  0  0  0  0  0
   -1.4945    0.7234   -0.3855 C   0  0  0  0  0  0  0  0  0  0  0  0
   -2.7660    0.7975   -0.4993 O   0  0  0  0  0  0  0  0  0  0  0  0
  1  2  1  0
  2  3  1  0
  3  4  1  0
  4  5  2  0
  5  6  1  0
  6  7  2  0
  7  8  1  0
  8  9  2  0
  9 10  1  0
 10 11  1  0
 11 12  2  0
 12 13  1  0
 13 14  1  0
 14 15  2  0
 15 16  1  0
 16 17  2  0
 17 18  1  0
 17 19  1  0
 19 20  2  0
 12 21  1  0
 21 22  2  0
 21 23  1  0
 23 24  1  0
 24 25  2  0
 25 26  1  0
 26 27  2  0
 27 28  1  0
 28 29  2  0
 23 30  1  0
 30 31  2  0
  9  4  1  0
 30 11  1  0
 20 14  1  0
 29 24  1  0
M  END
>  <zinc_id>  (1) 
ZINC000001938174

>  <smiles>  (1) 
CCOc1ccccc1NC1=C(Sc2ccc(C)cc2)C(=O)N(c2ccccc2)C1=O

$$$$
