
     RDKit          3D

 31 34  0  0  0  0  0  0  0  0999 V2000
    6.0768    2.2437    1.5386 C   0  0  0  0  0  0  0  0  0  0  0  0
    5.4740    0.9920    2.1796 C   0  0  0  0  0  0  0  0  0  0  0  0
    5.4321    1.1318    3.6871 C   0  0  0  0  0  0  0  0  0  0  0  0
    4.0601    0.9231    1.6905 C   0  0  0  0  0  0  0  0  0  0  0  0
    3.2086    1.9432    2.0451 C   0  0  0  0  0  0  0  0  0  0  0  0
    1.9022    1.9427    1.6318 C   0  0  0  0  0  0  0  0  0  0  0  0
    1.4289    0.9181    0.8556 C   0  0  0  0  0  0  0  0  0  0  0  0
    0.0534    0.9459    0.4377 N   0  0  0  0  0  0  0  0  0  0  0  0
   -0.4809   -0.0975   -0.3691 C   0  0  0  0  0  0  0  0  0  0  0  0
   -1.0123    0.0807   -1.5683 C   0  0  0  0  0  0  0  0  0  0  0  0
   -1.1848    1.6461   -2.4493 S   0  0  0  0  0  0  0  0  0  0  0  0
   -0.5163    2.9454   -1.4375 C   0  0  0  0  0  0  0  0  0  0  0  0
   -1.3287    3.6017   -0.5558 C   0  0  0  0  0  0  0  0  0  0  0  0
   -0.8310    4.6109    0.2370 C   0  0  0  0  0  0  0  0  0  0  0  0
    0.5118    4.9489    0.1236 C   0  0  0  0  0  0  0  0  0  0  0  0
    1.3142    4.2789   -0.7679 C   0  0  0  0  0  0  0  0  0  0  0  0
    0.8042    3.2809   -1.5462 C   0  0  0  0  0  0  0  0  0  0  0  0
   -1.4516   -1.2056   -2.0921 C   0  0  0  0  0  0  0  0  0  0  0  0
   -2.0043   -1.3818   -3.2213 O   0  0  0  0  0  0  0  0  0  0  0  0
   -1.1385   -2.1735   -1.1041 N   0  0  0  0  0  0  0  0  0  0  0  0
   -1.3960   -3.5815   -1.1976 C   0  0  0  0  0  0  0  0  0  0  0  0
   -2.7575   -3.8395   -0.6321 C   0  0  0  0  0  0  0  0  0  0  0  0
   -3.5157   -2.7996   -0.1426 C   0  0  0  0  0  0  0  0  0  0  0  0
   -4.7690   -2.9593    0.3894 C   0  0  0  0  0  0  0  0  0  0  0  0
   -5.2762   -4.2472    0.4242 C   0  0  0  0  0  0  0  0  0  0  0  0
   -4.5496   -5.3142   -0.0553 C   0  0  0  0  0  0  0  0  0  0  0  0
   -3.2967   -5.0968   -0.5786 C   0  0  0  0  0  0  0  0  0  0  0  0
   -0.5266   -1.5102   -0.0065 C   0  0  0  0  0  0  0  0  0  0  0  0
   -0.1015   -2.0173    1.0717 O   0  0  0  0  0  0  0  0  0  0  0  0
    2.2737   -0.1056    0.4967 C   0  0  0  0  0  0  0  0  0  0  0  0
    3.5971   -0.1044    0.9158 C   0  0  0  0  0  0  0  0  0  0  0  0
  1  2  1  0
  2  3  1  0
  2  4  1  0
  4  5  2  0
  5  6  1  0
  6  7  2  0
  7  8  1  0
  8  9  1  0
  9 10  2  0
 10 11  1  0
 11 12  1  0
 12 13  2  0
 13 14  1  0
 14 15  2  0
 15 16  1  0
 16 17  2  0
 10 18  1  0
 18 19  2  0
 18 20  1  0
 20 21  1  0
 21 22  1  0
 22 23  2  0
 23 24  1  0
 24 25  2  0
 25 26  1  0
 26 27  2  0
 20 28  1  0
 28 29  2  0
  7 30  1  0
 30 31  2  0
 31  4  1  0
 28  9  1  0
 17 12  1  0
 27 22  1  0
M  END
>  <zinc_id>  (1) 
ZINC000001954582

>  <smiles>  (1) 
CC(C)c1ccc(NC2=C(Sc3ccccc3)C(=O)N(Cc3ccccc3)C2=O)cc1

$$$$
