
     RDKit          3D

 34 39  0  0  0  0  0  0  0  0999 V2000
   -4.8612    6.1527    0.0518 O   0  0  0  0  0  0  0  0  0  0  0  0
   -4.2215    4.9370   -0.0452 C   0  0  0  0  0  0  0  0  0  0  0  0
   -3.7722    4.4050   -1.2099 C   0  0  0  0  0  0  0  0  0  0  0  0
   -3.1502    3.2085   -1.2544 C   0  0  0  0  0  0  0  0  0  0  0  0
   -2.9081    2.4060   -0.1245 C   0  0  0  0  0  0  0  0  0  0  0  0
   -2.3029    1.1902    0.0075 C   0  0  0  0  0  0  0  0  0  0  0  0
   -2.2078    0.6530    1.2069 C   0  0  0  0  0  0  0  0  0  0  0  0
   -2.9543    1.8008    2.2437 S   0  0  0  0  0  0  0  0  0  0  0  0
   -3.3623    2.9511    1.0283 C   0  0  0  0  0  0  0  0  0  0  0  0
   -4.0107    4.1927    1.0944 C   0  0  0  0  0  0  0  0  0  0  0  0
   -1.6057   -0.6520    1.6488 C   0  0  0  0  0  0  0  0  0  0  0  0
   -2.3173   -1.6710    0.8356 C   0  0  0  0  0  0  0  0  0  0  0  0
   -2.5511   -2.7723    1.6251 C   0  0  0  0  0  0  0  0  0  0  0  0
   -3.2070   -3.8993    1.1453 C   0  0  0  0  0  0  0  0  0  0  0  0
   -3.6254   -3.8851   -0.1680 C   0  0  0  0  0  0  0  0  0  0  0  0
   -3.3891   -2.7795   -0.9562 C   0  0  0  0  0  0  0  0  0  0  0  0
   -2.7304   -1.6675   -0.4470 C   0  0  0  0  0  0  0  0  0  0  0  0
   -2.6163   -0.7287   -1.3845 O   0  0  0  0  0  0  0  0  0  0  0  0
   -1.7634    0.5609   -1.4038 C   0  0  2  0  0  0  0  0  0  0  0  0
   -0.3959   -0.0507   -0.9424 C   0  0  0  0  0  0  0  0  0  0  0  0
    0.3047    0.6652   -0.0374 C   0  0  0  0  0  0  0  0  0  0  0  0
    1.5476    0.2259    0.4578 C   0  0  0  0  0  0  0  0  0  0  0  0
    2.0145   -0.9670   -0.0240 C   0  0  0  0  0  0  0  0  0  0  0  0
    3.2436   -1.4167    0.4558 O   0  0  0  0  0  0  0  0  0  0  0  0
    3.7301   -2.6489   -0.0392 C   0  0  0  0  0  0  0  0  0  0  0  0
    5.0646   -2.9090    0.6299 C   0  0  0  0  0  0  0  0  0  0  0  0
    5.9465   -1.8179    0.2857 N   0  0  0  0  0  0  0  0  0  0  0  0
    7.2444   -1.9928    0.8877 C   0  0  0  0  0  0  0  0  0  0  0  0
    8.1911   -0.9905    0.2598 C   0  0  0  0  0  0  0  0  0  0  0  0
    7.6875    0.4060    0.6240 C   0  0  0  0  0  0  0  0  0  0  0  0
    6.2308    0.5632    0.2019 C   0  0  0  0  0  0  0  0  0  0  0  0
    5.4031   -0.5587    0.7941 C   0  0  0  0  0  0  0  0  0  0  0  0
    1.2947   -1.6906   -0.9461 C   0  0  0  0  0  0  0  0  0  0  0  0
    0.0497   -1.2199   -1.4221 C   0  0  0  0  0  0  0  0  0  0  0  0
  1  2  1  0
  2  3  2  0
  3  4  1  0
  4  5  2  0
  5  6  1  0
  6  7  2  0
  7  8  1  0
  8  9  1  0
  9 10  2  0
  7 11  1  0
 11 12  1  0
 12 13  2  0
 13 14  1  0
 14 15  2  0
 15 16  1  0
 16 17  2  0
 17 18  1  0
 18 19  1  0
 19 20  1  1
 20 21  2  0
 21 22  1  0
 22 23  2  0
 23 24  1  0
 24 25  1  0
 25 26  1  0
 26 27  1  0
 27 28  1  0
 28 29  1  0
 29 30  1  0
 30 31  1  0
 31 32  1  0
 23 33  1  0
 33 34  2  0
 10  2  1  0
 17 12  1  0
 34 20  1  0
  9  5  1  0
 32 27  1  0
 19  6  1  0
M  END
>  <zinc_id>  (1) 
ZINC000003938009

>  <smiles>  (1) 
Oc1ccc2c3c(sc2c1)Cc1ccccc1O[C@@H]3c1ccc(OCCN2CCCCC2)cc1

$$$$
