
     RDKit          3D

 17 18  0  0  0  0  0  0  0  0999 V2000
    4.5755   -1.4402   -0.8505 C   0  0  0  0  0  0  0  0  0  0  0  0
    4.3865   -0.5059    0.3215 C   0  0  0  0  0  0  0  0  0  0  0  0
    3.6852   -1.0730    1.4847 C   0  0  0  0  0  0  0  0  0  0  0  0
    5.6890    0.1921    0.6836 C   0  0  0  0  0  0  0  0  0  0  0  0
    3.4502    0.7345   -0.2813 C   0  0  2  0  0  0  0  0  0  0  0  0
    3.4180    1.4827    1.0611 O   0  0  0  0  0  0  0  0  0  0  0  0
    2.0033   -0.0455   -0.0057 C   0  0  0  0  0  0  0  0  0  0  0  0
    0.7771    1.1495   -0.6028 S   0  0  0  0  0  0  0  0  0  0  0  0
   -0.8789    0.5918   -0.4374 C   0  0  0  0  0  0  0  0  0  0  0  0
   -1.6171    0.8341    0.6872 N   0  0  0  0  0  0  0  0  0  0  0  0
   -2.8214    0.3066    0.5463 C   0  0  0  0  0  0  0  0  0  0  0  0
   -3.8894    0.3105    1.4312 C   0  0  0  0  0  0  0  0  0  0  0  0
   -5.0444   -0.3163    1.0373 C   0  0  0  0  0  0  0  0  0  0  0  0
   -5.1389   -0.9286   -0.1961 C   0  0  0  0  0  0  0  0  0  0  0  0
   -4.0526   -0.9075   -1.0426 C   0  0  0  0  0  0  0  0  0  0  0  0
   -2.8689   -0.2858   -0.6830 C   0  0  0  0  0  0  0  0  0  0  0  0
   -1.6731   -0.0988   -1.2643 N   0  0  0  0  0  0  0  0  0  0  0  0
  1  2  1  0
  2  3  1  0
  2  4  1  0
  2  5  1  0
  5  6  1  1
  5  7  1  0
  7  8  1  0
  8  9  1  0
  9 10  2  0
 10 11  1  0
 11 12  2  0
 12 13  1  0
 13 14  2  0
 14 15  1  0
 15 16  2  0
 16 17  1  0
 17  9  1  0
 16 11  1  0
M  END
>  <zinc_id>  (1) 
ZINC000000305251

>  <smiles>  (1) 
CC(C)(C)[C@H](O)CSc1nc2ccccc2[nH]1

$$$$
