
     RDKit          3D

 21 23  0  0  0  0  0  0  0  0999 V2000
   -0.0271    1.9228   -0.7378 O   0  0  0  0  0  0  0  0  0  0  0  0
   -0.5822    0.8513   -0.4001 C   0  0  0  0  0  0  0  0  0  0  0  0
    0.2638   -0.1601    0.1313 N   0  0  0  0  0  0  0  0  0  0  0  0
    1.6626    0.0747    0.2555 C   0  0  0  0  0  0  0  0  0  0  0  0
    2.2219    1.2826   -0.1356 C   0  0  0  0  0  0  0  0  0  0  0  0
    3.5753    1.5267   -0.0223 C   0  0  0  0  0  0  0  0  0  0  0  0
    4.4352    0.5786    0.4859 C   0  0  0  0  0  0  0  0  0  0  0  0
    3.8987   -0.6226    0.8782 C   0  0  0  0  0  0  0  0  0  0  0  0
    2.5227   -0.8715    0.7632 C   0  0  0  0  0  0  0  0  0  0  0  0
    5.0054   -1.4645    1.3920 C   0  0  0  0  0  0  0  0  0  0  0  0
    6.2090   -0.9480    0.6418 C   0  0  0  0  0  0  0  0  0  0  0  0
    5.9275    0.5631    0.7147 C   0  0  0  0  0  0  0  0  0  0  0  0
   -2.0130    0.6868   -0.5570 C   0  0  0  0  0  0  0  0  0  0  0  0
   -2.7432    1.7253   -1.0816 C   0  0  0  0  0  0  0  0  0  0  0  0
   -4.1265    1.6150   -1.2525 C   0  0  0  0  0  0  0  0  0  0  0  0
   -4.7418    0.4407   -0.8830 C   0  0  0  0  0  0  0  0  0  0  0  0
   -4.0384   -0.6204   -0.3537 C   0  0  0  0  0  0  0  0  0  0  0  0
   -4.7113   -1.8291    0.0206 N   0  0  0  0  0  4  0  0  0  0  0  0
   -4.0106   -2.7425    0.4910 O   0  0  0  0  0  0  0  0  0  0  0  0
   -6.0615   -1.9284   -0.1496 O   0  0  0  0  0  1  0  0  0  0  0  0
   -2.6664   -0.4688   -0.2008 C   0  0  0  0  0  0  0  0  0  0  0  0
  1  2  2  0
  2  3  1  0
  3  4  1  0
  4  5  2  0
  5  6  1  0
  6  7  2  0
  7  8  1  0
  8  9  2  0
  8 10  1  0
 10 11  1  0
 11 12  1  0
  2 13  1  0
 13 14  2  0
 14 15  1  0
 15 16  2  0
 16 17  1  0
 17 18  1  0
 18 19  2  0
 18 20  1  0
 17 21  2  0
  9  4  1  0
 21 13  1  0
 12  7  1  0
M  CHG  2  18   1  20  -1
M  END
>  <zinc_id>  (1) 
ZINC000000251012

>  <smiles>  (1) 
O=C(Nc1ccc2c(c1)CCC2)c1cccc([N+](=O)[O-])c1

$$$$
