
     RDKit          3D

 32 35  0  0  0  0  0  0  0  0999 V2000
   -5.6392   -3.6837   -2.7092 C   0  0  0  0  0  0  0  0  0  0  0  0
   -4.3010   -4.3254   -2.5693 C   0  0  0  0  0  0  0  0  0  0  0  0
   -3.3077   -3.4677   -2.0800 O   0  0  0  0  0  0  0  0  0  0  0  0
   -3.4061   -2.8531   -0.8394 C   0  0  0  0  0  0  0  0  0  0  0  0
   -4.5359   -3.1147   -0.0798 C   0  0  0  0  0  0  0  0  0  0  0  0
   -4.7207   -2.5541    1.1562 C   0  0  0  0  0  0  0  0  0  0  0  0
   -3.7451   -1.7102    1.6389 C   0  0  0  0  0  0  0  0  0  0  0  0
   -2.6354   -1.4594    0.8816 C   0  0  0  0  0  0  0  0  0  0  0  0
   -2.4346   -2.0112   -0.3558 C   0  0  0  0  0  0  0  0  0  0  0  0
   -1.2780   -1.7127   -1.0774 N   0  0  0  0  0  0  0  0  0  0  0  0
   -0.2368   -0.8622   -0.6539 C   0  0  0  0  0  0  0  0  0  0  0  0
   -0.4030    0.3998   -0.2243 C   0  0  0  0  0  0  0  0  0  0  0  0
   -1.9302    1.2597   -0.0960 S   0  0  0  0  0  0  0  0  0  0  0  0
   -1.8680    2.9014    0.4931 C   0  0  0  0  0  0  0  0  0  0  0  0
   -0.7878    3.6323    0.8763 C   0  0  0  0  0  0  0  0  0  0  0  0
   -0.8729    4.9274    1.3261 C   0  0  0  0  0  0  0  0  0  0  0  0
   -2.1020    5.5327    1.4001 C   0  0  0  0  0  0  0  0  0  0  0  0
   -3.2068    4.8263    1.0228 C   0  0  0  0  0  0  0  0  0  0  0  0
   -3.1166    3.5530    0.5813 C   0  0  0  0  0  0  0  0  0  0  0  0
    0.9096    0.9120    0.1101 C   0  0  0  0  0  0  0  0  0  0  0  0
    1.2664    2.0367    0.5514 O   0  0  0  0  0  0  0  0  0  0  0  0
    1.8846   -0.1064   -0.1390 N   0  0  0  0  0  0  0  0  0  0  0  0
    3.2849   -0.0495    0.0436 C   0  0  0  0  0  0  0  0  0  0  0  0
    3.9710    1.1343   -0.1293 C   0  0  0  0  0  0  0  0  0  0  0  0
    5.3374    1.1692    0.0532 C   0  0  0  0  0  0  0  0  0  0  0  0
    6.0624    0.0481    0.4085 C   0  0  0  0  0  0  0  0  0  0  0  0
    7.4554    0.0984    0.5912 O   0  0  0  0  0  0  0  0  0  0  0  0
    8.1390    1.3109    0.4114 C   0  0  0  0  0  0  0  0  0  0  0  0
    5.3575   -1.1208    0.5754 C   0  0  0  0  0  0  0  0  0  0  0  0
    4.0003   -1.1735    0.3983 C   0  0  0  0  0  0  0  0  0  0  0  0
    1.1551   -1.2162   -0.6184 C   0  0  0  0  0  0  0  0  0  0  0  0
    1.7044   -2.3212   -0.9477 O   0  0  0  0  0  0  0  0  0  0  0  0
  1  2  1  0
  2  3  1  0
  3  4  1  0
  4  5  2  0
  5  6  1  0
  6  7  2  0
  7  8  1  0
  8  9  2  0
  9 10  1  0
 10 11  1  0
 11 12  2  0
 12 13  1  0
 13 14  1  0
 14 15  2  0
 15 16  1  0
 16 17  2  0
 17 18  1  0
 18 19  2  0
 12 20  1  0
 20 21  2  0
 20 22  1  0
 22 23  1  0
 23 24  2  0
 24 25  1  0
 25 26  2  0
 26 27  1  0
 27 28  1  0
 26 29  1  0
 29 30  2  0
 22 31  1  0
 31 32  2  0
  9  4  1  0
 31 11  1  0
 19 14  1  0
 30 23  1  0
M  END
>  <zinc_id>  (1) 
ZINC000001928825

>  <smiles>  (1) 
CCOc1ccccc1NC1=C(Sc2ccccc2)C(=O)N(c2ccc(OC)cc2)C1=O

$$$$
