
     RDKit          3D

 33 37  0  0  0  0  0  0  0  0999 V2000
   -8.3112    1.3016   -2.6108 C   0  0  0  0  0  0  0  0  0  0  0  0
   -7.6424    1.7951   -1.3381 C   0  0  0  0  0  0  0  0  0  0  0  0
   -8.3897    1.1856   -0.1097 C   0  0  0  0  0  0  0  0  0  0  0  0
   -7.7383    3.2631   -1.2225 C   0  0  0  0  0  0  0  0  0  0  0  0
   -6.2000    1.3356   -1.2442 C   0  0  0  0  0  0  0  0  0  0  0  0
   -5.1475    2.2422   -1.4315 C   0  0  0  0  0  0  0  0  0  0  0  0
   -3.8241    1.7849   -1.2102 C   0  0  0  0  0  0  0  0  0  0  0  0
   -3.5404    0.4864   -0.8107 C   0  0  0  0  0  0  0  0  0  0  0  0
   -2.2040   -0.0350   -0.5212 C   0  0  0  0  0  0  0  0  0  0  0  0
   -1.0197    0.3253   -1.0768 C   0  0  0  0  0  0  0  0  0  0  0  0
    0.1689   -0.2534   -0.6843 C   0  0  0  0  0  0  0  0  0  0  0  0
    1.5000   -0.0178   -1.2418 C   0  0  0  0  0  0  0  0  0  0  0  0
    1.7944    1.0497   -1.8568 O   0  0  0  0  0  0  0  0  0  0  0  0
    2.4794   -0.9614   -1.1154 N   0  0  0  0  0  0  0  0  0  0  0  0
    3.8448   -1.0613   -1.4943 C   0  0  0  0  0  0  0  0  0  0  0  0
    4.7188   -0.5447   -0.4076 C   0  0  0  0  0  0  0  0  0  0  0  0
    4.3365    0.5479    0.3013 C   0  0  0  0  0  0  0  0  0  0  0  0
    5.0528    1.0874    1.3781 C   0  0  0  0  0  0  0  0  0  0  0  0
    6.2467    0.4458    1.7153 C   0  0  0  0  0  0  0  0  0  0  0  0
    6.6654   -0.6636    1.0039 C   0  0  0  0  0  0  0  0  0  0  0  0
    5.9071   -1.1712   -0.0599 C   0  0  0  0  0  0  0  0  0  0  0  0
    7.8583   -1.0545    1.5655 O   0  0  0  0  0  0  0  0  0  0  0  0
    8.0629   -0.3947    2.8030 C   0  0  0  0  0  0  0  0  0  0  0  0
    7.1898    0.7270    2.7187 O   0  0  0  0  0  0  0  0  0  0  0  0
    0.1412   -1.2571    0.3408 C   0  0  0  0  0  0  0  0  0  0  0  0
    1.3383   -1.7892    0.7512 C   0  0  0  0  0  0  0  0  0  0  0  0
    1.3338   -2.7250    1.7606 C   0  0  0  0  0  0  0  0  0  0  0  0
    0.1347   -3.1000    2.3446 C   0  0  0  0  0  0  0  0  0  0  0  0
   -1.0488   -2.5416    1.9027 C   0  0  0  0  0  0  0  0  0  0  0  0
   -1.0592   -1.5993    0.8808 C   0  0  0  0  0  0  0  0  0  0  0  0
   -2.1445   -1.0087    0.4529 N   0  0  0  0  0  0  0  0  0  0  0  0
   -4.6109   -0.3894   -0.6312 C   0  0  0  0  0  0  0  0  0  0  0  0
   -5.8932    0.0642   -0.8522 C   0  0  0  0  0  0  0  0  0  0  0  0
  1  2  1  0
  2  3  1  0
  2  4  1  0
  2  5  1  0
  5  6  2  0
  6  7  1  0
  7  8  2  0
  8  9  1  0
  9 10  2  0
 10 11  1  0
 11 12  1  0
 12 13  2  0
 12 14  1  0
 14 15  1  0
 15 16  1  0
 16 17  2  0
 17 18  1  0
 18 19  2  0
 19 20  1  0
 20 21  2  0
 20 22  1  0
 22 23  1  0
 23 24  1  0
 11 25  2  0
 25 26  1  0
 26 27  2  0
 27 28  1  0
 28 29  2  0
 29 30  1  0
 30 31  2  0
  8 32  1  0
 32 33  2  0
 33  5  1  0
 31  9  1  0
 21 16  1  0
 30 25  1  0
 24 19  1  0
M  END
>  <zinc_id>  (1) 
ZINC000000659015

>  <smiles>  (1) 
CC(C)(C)c1ccc(-c2cc(C(=O)NCc3ccc4c(c3)OCO4)c3ccccc3n2)cc1

$$$$
