
     RDKit          3D

 33 36  0  0  0  0  0  0  0  0999 V2000
    7.7412    1.6089   -0.2599 C   0  0  0  0  0  0  0  0  0  0  0  0
    7.9826    0.2739    0.3826 C   0  0  0  0  0  0  0  0  0  0  0  0
    7.1106   -0.6809   -0.1707 O   0  0  0  0  0  0  0  0  0  0  0  0
    5.7132   -0.5425   -0.0902 C   0  0  0  0  0  0  0  0  0  0  0  0
    4.9507   -1.5302   -0.6591 C   0  0  0  0  0  0  0  0  0  0  0  0
    3.5746   -1.4261   -0.5957 C   0  0  0  0  0  0  0  0  0  0  0  0
    2.9447   -0.3612    0.0203 C   0  0  0  0  0  0  0  0  0  0  0  0
    1.5253   -0.3146    0.0587 N   0  0  0  0  0  0  0  0  0  0  0  0
    0.6198   -1.3643   -0.1630 C   0  0  0  0  0  0  0  0  0  0  0  0
    0.9902   -2.5322   -0.4375 O   0  0  0  0  0  0  0  0  0  0  0  0
   -0.7443   -0.8864   -0.0260 C   0  0  0  0  0  0  0  0  0  0  0  0
   -1.8640   -1.6692   -0.1735 N   0  0  0  0  0  0  0  0  0  0  0  0
   -3.1376   -1.4993   -0.6667 C   0  0  0  0  0  0  0  0  0  0  0  0
   -3.6802   -0.3420   -1.1648 C   0  0  0  0  0  0  0  0  0  0  0  0
   -4.9853   -0.2591   -1.6362 C   0  0  0  0  0  0  0  0  0  0  0  0
   -5.8066   -1.3635   -1.6205 C   0  0  0  0  0  0  0  0  0  0  0  0
   -5.2936   -2.5386   -1.1291 C   0  0  0  0  0  0  0  0  0  0  0  0
   -4.0027   -2.6147   -0.6652 C   0  0  0  0  0  0  0  0  0  0  0  0
   -3.5081   -3.7974   -0.1824 O   0  0  0  0  0  0  0  0  0  0  0  0
   -4.3336   -4.9456   -0.1597 C   0  0  0  0  0  0  0  0  0  0  0  0
   -3.4494   -6.0564    0.4298 C   0  0  0  0  0  0  0  0  0  0  0  0
   -0.6996    0.4284    0.2731 C   0  0  0  0  0  0  0  0  0  0  0  0
   -2.1325    1.4268    0.5314 S   0  0  0  0  0  0  0  0  0  0  0  0
   -1.8700    3.1429    0.7963 C   0  0  0  0  0  0  0  0  0  0  0  0
   -2.9741    3.9718    0.9989 C   0  0  0  0  0  0  0  0  0  0  0  0
   -2.8004    5.2950    1.2085 C   0  0  0  0  0  0  0  0  0  0  0  0
   -1.5409    5.8702    1.2271 C   0  0  0  0  0  0  0  0  0  0  0  0
   -0.4359    5.0515    1.0263 C   0  0  0  0  0  0  0  0  0  0  0  0
   -0.6429    3.7090    0.8162 C   0  0  0  0  0  0  0  0  0  0  0  0
    0.6924    0.8432    0.3394 C   0  0  0  0  0  0  0  0  0  0  0  0
    1.1821    1.9731    0.5894 O   0  0  0  0  0  0  0  0  0  0  0  0
    3.7475    0.6019    0.5747 C   0  0  0  0  0  0  0  0  0  0  0  0
    5.1268    0.5275    0.5274 C   0  0  0  0  0  0  0  0  0  0  0  0
  1  2  1  0
  2  3  1  0
  3  4  1  0
  4  5  2  0
  5  6  1  0
  6  7  2  0
  7  8  1  0
  8  9  1  0
  9 10  2  0
  9 11  1  0
 11 12  1  0
 12 13  1  0
 13 14  2  0
 14 15  1  0
 15 16  2  0
 16 17  1  0
 17 18  2  0
 18 19  1  0
 19 20  1  0
 20 21  1  0
 11 22  2  0
 22 23  1  0
 23 24  1  0
 24 25  2  0
 25 26  1  0
 26 27  2  0
 27 28  1  0
 28 29  2  0
 22 30  1  0
 30 31  2  0
  7 32  1  0
 32 33  2  0
 33  4  1  0
 30  8  1  0
 18 13  1  0
 29 24  1  0
M  END
>  <zinc_id>  (1) 
ZINC000001928674

>  <smiles>  (1) 
CCOc1ccc(N2C(=O)C(Nc3ccccc3OCC)=C(Sc3ccccc3)C2=O)cc1

$$$$
