
     RDKit          3D

 31 33  0  0  0  0  0  0  0  0999 V2000
   -8.2071   -1.9202   -0.5132 C   0  0  0  0  0  0  0  0  0  0  0  0
   -6.8135   -2.5119   -0.4843 C   0  0  0  0  0  0  0  0  0  0  0  0
   -6.1040   -1.9066    0.5965 N   0  0  0  0  0  0  0  0  0  0  0  0
   -6.4933   -2.1897    1.9554 C   0  0  0  0  0  0  0  0  0  0  0  0
   -5.6020   -1.4268    2.9007 C   0  0  0  0  0  0  0  0  0  0  0  0
   -5.0369   -1.0210    0.3645 C   0  0  0  0  0  0  0  0  0  0  0  0
   -3.7173   -1.4703    0.2050 C   0  0  0  0  0  0  0  0  0  0  0  0
   -2.7142   -0.5539    0.0163 C   0  0  0  0  0  0  0  0  0  0  0  0
   -2.8848    0.8040   -0.0341 C   0  0  0  0  0  0  0  0  0  0  0  0
   -1.9335    1.8057   -0.2000 N   0  0  0  0  0  0  0  0  0  0  0  0
   -0.5473    1.5769   -0.3282 C   0  0  0  0  0  0  0  0  0  0  0  0
   -0.1078    0.4436   -0.3058 O   0  0  0  0  0  0  0  0  0  0  0  0
    0.3537    2.8612   -0.4957 C   0  0  2  0  0  0  0  0  0  0  0  0
    0.2247    2.9077   -2.1524 C   0  0  0  0  0  0  0  0  0  0  0  0
    1.7582    2.2181   -0.4452 C   0  0  0  0  0  0  0  0  0  0  0  0
    2.7940    3.0495   -0.9472 C   0  0  0  0  0  0  0  0  0  0  0  0
    4.0858    2.6044   -0.9276 C   0  0  0  0  0  0  0  0  0  0  0  0
    4.3642    1.3527   -0.4218 C   0  0  0  0  0  0  0  0  0  0  0  0
    3.3408    0.5335    0.0706 C   0  0  0  0  0  0  0  0  0  0  0  0
    3.7502   -0.7756    0.5960 C   0  0  0  0  0  0  0  0  0  0  0  0
    2.9455   -1.4355    1.2718 O   0  0  0  0  0  0  0  0  0  0  0  0
    5.0838   -1.2970    0.3315 C   0  0  0  0  0  0  0  0  0  0  0  0
    5.9529   -0.5335   -0.4183 C   0  0  0  0  0  0  0  0  0  0  0  0
    7.2409   -0.8971   -0.7379 C   0  0  0  0  0  0  0  0  0  0  0  0
    7.7044   -2.1207   -0.2720 C   0  0  0  0  0  0  0  0  0  0  0  0
    6.8416   -2.8830    0.4750 C   0  0  0  0  0  0  0  0  0  0  0  0
    5.5439   -2.4968    0.7850 C   0  0  0  0  0  0  0  0  0  0  0  0
    2.0814    1.0238    0.0276 C   0  0  0  0  0  0  0  0  0  0  0  0
   -4.2024    1.2287    0.1226 C   0  0  0  0  0  0  0  0  0  0  0  0
   -4.4726    2.6938    0.0723 C   0  0  0  0  0  0  0  0  0  0  0  0
   -5.2295    0.3360    0.3144 C   0  0  0  0  0  0  0  0  0  0  0  0
  1  2  1  0
  2  3  1  0
  3  4  1  0
  4  5  1  0
  3  6  1  0
  6  7  2  0
  7  8  1  0
  8  9  2  0
  9 10  1  0
 10 11  1  0
 11 12  2  0
 11 13  1  0
 13 14  1  6
 13 15  1  0
 15 16  2  0
 16 17  1  0
 17 18  2  0
 18 19  1  0
 19 20  1  0
 20 21  2  0
 20 22  1  0
 22 23  2  0
 23 24  1  0
 24 25  2  0
 25 26  1  0
 26 27  2  0
 19 28  2  0
  9 29  1  0
 29 30  1  0
 29 31  2  0
 31  6  1  0
 28 15  1  0
 27 22  1  0
M  END
>  <zinc_id>  (1) 
ZINC000002069503

>  <smiles>  (1) 
CCN(CC)c1ccc(NC(=O)[C@H](C)c2cccc(C(=O)c3ccccc3)c2)c(C)c1

$$$$
