
     RDKit          3D

 21 23  0  0  0  0  0  0  0  0999 V2000
   -4.8602    2.2806    0.2664 C   0  0  0  0  0  0  0  0  0  0  0  0
   -4.3290    1.1516   -0.1367 C   0  0  0  0  0  0  0  0  0  0  0  0
   -3.2867    1.0753   -1.2122 C   0  0  0  0  0  0  0  0  0  0  0  0
   -2.0783    0.4663   -0.6276 C   0  0  0  0  0  0  0  0  0  0  0  0
   -0.9870    1.2325   -0.3023 C   0  0  0  0  0  0  0  0  0  0  0  0
    0.1624    0.6655    0.2522 C   0  0  0  0  0  0  0  0  0  0  0  0
    1.2831    1.5142    0.5770 C   0  0  0  0  0  0  0  0  0  0  0  0
    1.1336    2.4940    1.3266 O   0  0  0  0  0  0  0  0  0  0  0  0
    2.5956    1.2168    0.0205 C   0  0  0  0  0  0  0  0  0  0  0  0
    2.9458    0.3563   -0.9815 C   0  0  0  0  0  0  0  0  0  0  0  0
    4.2355    0.2691   -1.3050 C   0  0  0  0  0  0  0  0  0  0  0  0
    5.1200    1.0441   -0.6156 C   0  0  0  0  0  0  0  0  0  0  0  0
    4.1083    1.8780    0.4744 S   0  0  0  0  0  0  0  0  0  0  0  0
    0.1819   -0.7017    0.4707 C   0  0  0  0  0  0  0  0  0  0  0  0
    1.1444   -1.4714    0.9805 O   0  0  0  0  0  0  0  0  0  0  0  0
    0.7195   -2.7055    0.9980 C   0  0  0  0  0  0  0  0  0  0  0  0
   -0.5620   -2.7741    0.4878 C   0  0  0  0  0  0  0  0  0  0  0  0
   -1.4507   -3.9550    0.3084 C   0  0  0  0  0  0  0  0  0  0  0  0
   -0.9074   -1.4827    0.1483 C   0  0  0  0  0  0  0  0  0  0  0  0
   -2.0239   -0.8865   -0.3972 C   0  0  0  0  0  0  0  0  0  0  0  0
   -3.1447   -1.6675   -0.7328 O   0  0  0  0  0  0  0  0  0  0  0  0
  1  2  2  0
  2  3  1  0
  3  4  1  0
  4  5  2  0
  5  6  1  0
  6  7  1  0
  7  8  2  0
  7  9  1  0
  9 10  2  0
 10 11  1  0
 11 12  2  0
 12 13  1  0
  6 14  2  0
 14 15  1  0
 15 16  1  0
 16 17  2  0
 17 18  1  0
 17 19  1  0
 19 20  2  0
 20 21  1  0
 20  4  1  0
 13  9  1  0
 19 14  1  0
M  END
>  <zinc_id>  (1) 
ZINC000000013024

>  <smiles>  (1) 
C=CCc1cc(C(=O)c2cccs2)c2occ(C)c2c1O

$$$$
