
     RDKit          3D

 34 38  0  0  0  0  0  0  0  0999 V2000
   -1.8385   -5.3074   -0.8801 C   0  0  0  0  0  0  0  0  0  0  0  0
   -1.3022   -3.9196   -0.8344 C   0  0  0  0  0  0  0  0  0  0  0  0
   -0.0224   -3.6593   -1.3024 C   0  0  0  0  0  0  0  0  0  0  0  0
    0.4849   -2.3755   -1.2638 C   0  0  0  0  0  0  0  0  0  0  0  0
    1.8158   -2.2065   -1.8739 C   0  0  0  0  0  0  0  0  0  0  0  0
   -0.2177   -1.2927   -0.7712 C   0  0  0  0  0  0  0  0  0  0  0  0
   -1.5170   -1.5559   -0.2994 C   0  0  0  0  0  0  0  0  0  0  0  0
   -1.9965   -2.8482   -0.3510 C   0  0  0  0  0  0  0  0  0  0  0  0
   -2.0560   -0.3471    0.1094 C   0  0  0  0  0  0  0  0  0  0  0  0
   -3.3915   -0.1607    0.6713 C   0  0  0  0  0  0  0  0  0  0  0  0
   -4.3434    0.6632    0.0650 C   0  0  0  0  0  0  0  0  0  0  0  0
   -5.6013    0.8225    0.6210 C   0  0  0  0  0  0  0  0  0  0  0  0
   -5.9511    0.1817    1.7778 C   0  0  0  0  0  0  0  0  0  0  0  0
   -5.0313   -0.6389    2.4008 C   0  0  0  0  0  0  0  0  0  0  0  0
   -3.7683   -0.7924    1.8315 C   0  0  0  0  0  0  0  0  0  0  0  0
   -1.1280    0.6299   -0.0973 C   0  0  0  0  0  0  0  0  0  0  0  0
   -1.2293    2.0826    0.1788 C   0  0  0  0  0  0  0  0  0  0  0  0
   -1.3958    2.5578    1.4510 C   0  0  0  0  0  0  0  0  0  0  0  0
   -1.4881    3.9078    1.7116 C   0  0  0  0  0  0  0  0  0  0  0  0
   -1.4078    4.7891    0.6463 C   0  0  0  0  0  0  0  0  0  0  0  0
   -1.2403    4.3622   -0.6535 C   0  0  0  0  0  0  0  0  0  0  0  0
   -1.1555    3.0017   -0.8442 C   0  0  0  0  0  0  0  0  0  0  0  0
   -0.0258    0.0022   -0.6307 N   0  0  0  0  0  0  0  0  0  0  0  0
    1.1594    0.7769   -1.0209 C   0  0  0  0  0  0  0  0  0  0  0  0
    1.7962    1.2391    0.3599 C   0  0  2  0  0  0  0  0  0  0  0  0
    2.9156    2.0763   -0.1706 O   0  0  0  0  0  0  0  0  0  0  0  0
    2.7028    0.0483    0.8328 C   0  0  0  0  0  0  0  0  0  0  0  0
    3.5580   -0.4620   -0.1024 N   0  0  0  0  0  0  0  0  0  0  0  0
    4.3058   -1.6023    0.2817 C   0  0  0  0  0  0  0  0  0  0  0  0
    5.7466   -1.6120    0.1407 C   0  0  0  0  0  0  0  0  0  0  0  0
    6.5063   -0.4342    0.6348 C   0  0  0  0  0  0  0  0  0  0  0  0
    5.8026    0.8757    0.3585 C   0  0  0  0  0  0  0  0  0  0  0  0
    5.3232    0.9235   -1.0666 C   0  0  0  0  0  0  0  0  0  0  0  0
    3.9907    0.2745   -1.1934 C   0  0  0  0  0  0  0  0  0  0  0  0
  1  2  1  0
  2  3  2  0
  3  4  1  0
  4  5  1  0
  4  6  2  0
  6  7  1  0
  7  8  2  0
  7  9  1  0
  9 10  1  0
 10 11  2  0
 11 12  1  0
 12 13  2  0
 13 14  1  0
 14 15  2  0
  9 16  2  0
 16 17  1  0
 17 18  2  0
 18 19  1  0
 19 20  2  0
 20 21  1  0
 21 22  2  0
 16 23  1  0
 23 24  1  0
 24 25  1  0
 25 26  1  6
 25 27  1  0
 27 28  1  0
 28 29  1  0
 29 30  1  0
 30 31  1  0
 31 32  1  0
 32 33  1  0
 33 34  1  0
  8  2  1  0
 15 10  1  0
 22 17  1  0
 34 28  1  0
 23  6  1  0
M  END
>  <zinc_id>  (1) 
ZINC000001894950

>  <smiles>  (1) 
Cc1cc(C)c2c(c1)c(-c1ccccc1)c(-c1ccccc1)n2C[C@H](O)CN1CCCCCC1

$$$$
