
     RDKit          3D

 19 20  0  0  0  0  0  0  0  0999 V2000
    1.1503    1.3393    0.3780 C   0  0  0  0  0  0  0  0  0  0  0  0
    1.7240    0.1925   -0.0390 C   0  0  0  0  0  0  0  0  0  0  0  0
    0.9344   -0.8844   -0.5374 N   0  0  0  0  0  0  0  0  0  0  0  0
   -0.3751   -0.5788   -0.9812 N   0  0  0  0  0  0  0  0  0  0  0  0
   -1.3632   -0.3615    0.0332 C   0  0  0  0  0  0  0  0  0  0  0  0
   -1.0361   -0.4447    1.2284 O   0  0  0  0  0  0  0  0  0  0  0  0
   -2.7649   -0.0433   -0.2700 C   0  0  0  0  0  0  0  0  0  0  0  0
   -3.1193    0.5757   -1.4469 C   0  0  0  0  0  0  0  0  0  0  0  0
   -4.4306    0.8738   -1.7663 C   0  0  0  0  0  0  0  0  0  0  0  0
   -5.3989    0.5184   -0.8381 C   0  0  0  0  0  0  0  0  0  0  0  0
   -5.0707   -0.1061    0.3549 C   0  0  0  0  0  0  0  0  0  0  0  0
   -6.1941   -0.4472    1.2709 C   0  0  0  0  0  0  0  0  0  0  0  0
   -3.7669   -0.3730    0.6140 C   0  0  0  0  0  0  0  0  0  0  0  0
    3.1784    0.0513    0.0133 C   0  0  0  0  0  0  0  0  0  0  0  0
    3.9008   -1.0394   -0.3643 C   0  0  0  0  0  0  0  0  0  0  0  0
    5.2213   -0.9948   -0.2492 C   0  0  0  0  0  0  0  0  0  0  0  0
    5.7782    0.1557    0.2462 C   0  0  0  0  0  0  0  0  0  0  0  0
    7.2421    0.4403    0.4705 C   0  0  0  0  0  0  0  0  0  0  0  0
    4.3902    1.1264    0.5265 S   0  0  0  0  0  0  0  0  0  0  0  0
  1  2  2  0
  2  3  1  0
  3  4  1  0
  4  5  1  0
  5  6  2  0
  5  7  1  0
  7  8  2  0
  8  9  1  0
  9 10  2  0
 10 11  1  0
 11 12  1  0
 11 13  2  0
  2 14  1  0
 14 15  2  0
 15 16  1  0
 16 17  2  0
 17 18  1  0
 17 19  1  0
 13  7  1  0
 19 14  1  0
M  END
>  <zinc_id>  (1) 
ZINC000002796081

>  <smiles>  (1) 
C=C(NNC(=O)c1cccc(C)c1)c1ccc(C)s1

$$$$
