
     RDKit          3D

 22 23  0  0  0  0  0  0  0  0999 V2000
   -2.3262    1.3310   -1.3714 C   0  0  0  0  0  0  0  0  0  0  0  0
   -1.1192    1.7225   -0.5722 C   0  0  0  0  0  0  0  0  0  0  0  0
   -0.6594    0.9191    0.3073 C   0  0  0  0  0  0  0  0  0  0  0  0
   -1.2890   -0.3587    0.5388 C   0  0  0  0  0  0  0  0  0  0  0  0
   -0.9122   -1.2189    1.3815 O   0  0  0  0  0  0  0  0  0  0  0  0
   -2.4086   -0.7439   -0.1890 O   0  0  0  0  0  0  0  0  0  0  0  0
   -3.0589   -1.9616   -0.0116 C   0  0  0  0  0  0  0  0  0  0  0  0
   -4.2312   -2.0852   -0.9426 C   0  0  0  0  0  0  0  0  0  0  0  0
   -2.1545   -3.1595   -0.1702 C   0  0  0  0  0  0  0  0  0  0  0  0
   -3.5989   -1.9899    1.4175 C   0  0  0  0  0  0  0  0  0  0  0  0
    0.5696    1.1792    1.2045 C   0  0  1  0  0  0  0  0  0  0  0  0
    1.5856    0.1833    0.4773 C   0  0  0  0  0  0  0  0  0  0  0  0
    2.0036   -0.8498    1.2889 C   0  0  0  0  0  0  0  0  0  0  0  0
    2.9037   -1.7933    0.7537 C   0  0  0  0  0  0  0  0  0  0  0  0
    3.3244   -1.6501   -0.5377 C   0  0  0  0  0  0  0  0  0  0  0  0
    4.2183   -2.5764   -1.0883 O   0  0  0  0  0  0  0  0  0  0  0  0
    2.8853   -0.6142   -1.3023 C   0  0  0  0  0  0  0  0  0  0  0  0
    2.0113    0.2859   -0.7539 C   0  0  0  0  0  0  0  0  0  0  0  0
    1.0749    2.5175    0.8305 N   0  0  0  0  0  0  0  0  0  0  0  0
    0.5799    3.3513   -0.0978 C   0  0  0  0  0  0  0  0  0  0  0  0
    1.1543    4.5075   -0.3031 O   0  0  0  0  0  0  0  0  0  0  0  0
   -0.5527    3.0044   -0.8601 N   0  0  0  0  0  0  0  0  0  0  0  0
  1  2  1  0
  2  3  2  0
  3  4  1  0
  4  5  2  0
  4  6  1  0
  6  7  1  0
  7  8  1  0
  7  9  1  0
  7 10  1  0
  3 11  1  0
 11 12  1  6
 12 13  2  0
 13 14  1  0
 14 15  2  0
 15 16  1  0
 15 17  1  0
 17 18  2  0
 11 19  1  0
 19 20  1  0
 20 21  2  0
 20 22  1  0
 22  2  1  0
 18 12  1  0
M  END
>  <zinc_id>  (1) 
ZINC000000279792

>  <smiles>  (1) 
CC1=C(C(=O)OC(C)(C)C)[C@@H](c2ccc(O)cc2)NC(=O)N1

$$$$
