
     RDKit          3D

 33 36  0  0  0  0  0  0  0  0999 V2000
   -3.6168    6.1237    1.5351 C   0  0  0  0  0  0  0  0  0  0  0  0
   -4.4559    4.8566    1.5096 C   0  0  0  0  0  0  0  0  0  0  0  0
   -3.5619    3.7625    1.2779 O   0  0  0  0  0  0  0  0  0  0  0  0
   -2.8061    3.7510    0.1027 C   0  0  0  0  0  0  0  0  0  0  0  0
   -2.9285    4.7914   -0.8206 C   0  0  0  0  0  0  0  0  0  0  0  0
   -2.1828    4.7791   -1.9800 C   0  0  0  0  0  0  0  0  0  0  0  0
   -1.3267    3.7185   -2.1888 C   0  0  0  0  0  0  0  0  0  0  0  0
   -1.2010    2.6947   -1.2891 C   0  0  0  0  0  0  0  0  0  0  0  0
   -1.9443    2.6988   -0.1243 C   0  0  0  0  0  0  0  0  0  0  0  0
   -1.8508    1.6522    0.8566 N   0  0  0  0  0  0  0  0  0  0  0  0
   -0.9446    0.5916    0.5550 C   0  0  0  0  0  0  0  0  0  0  0  0
   -1.2088   -0.6875    0.3448 C   0  0  0  0  0  0  0  0  0  0  0  0
   -2.8438   -1.3895    0.3986 S   0  0  0  0  0  0  0  0  0  0  0  0
   -2.8154   -3.1245    0.0487 C   0  0  0  0  0  0  0  0  0  0  0  0
   -2.6696   -4.1142    0.9921 C   0  0  0  0  0  0  0  0  0  0  0  0
   -2.6647   -5.4435    0.5748 C   0  0  0  0  0  0  0  0  0  0  0  0
   -2.7994   -5.8168   -0.7417 C   0  0  0  0  0  0  0  0  0  0  0  0
   -2.9456   -4.8086   -1.6796 C   0  0  0  0  0  0  0  0  0  0  0  0
   -2.9521   -3.4996   -1.2842 C   0  0  0  0  0  0  0  0  0  0  0  0
    0.0469   -1.3951    0.0647 C   0  0  0  0  0  0  0  0  0  0  0  0
    0.1499   -2.6087   -0.1759 O   0  0  0  0  0  0  0  0  0  0  0  0
    1.1160   -0.4511    0.1176 N   0  0  0  0  0  0  0  0  0  0  0  0
    2.5145   -0.6768   -0.0922 C   0  0  0  0  0  0  0  0  0  0  0  0
    3.0103   -0.9785   -1.3537 C   0  0  0  0  0  0  0  0  0  0  0  0
    4.3518   -1.2001   -1.5848 C   0  0  0  0  0  0  0  0  0  0  0  0
    5.2682   -1.1304   -0.5610 C   0  0  0  0  0  0  0  0  0  0  0  0
    6.7138   -1.3536   -0.7339 C   0  0  0  0  0  0  0  0  0  0  0  0
    7.3135   -1.9614    0.5240 C   0  0  0  0  0  0  0  0  0  0  0  0
    7.3804    0.0024   -0.9744 C   0  0  0  0  0  0  0  0  0  0  0  0
    4.7898   -0.8319    0.6954 C   0  0  0  0  0  0  0  0  0  0  0  0
    3.4488   -0.6110    0.9225 C   0  0  0  0  0  0  0  0  0  0  0  0
    0.4943    0.7915    0.4248 C   0  0  0  0  0  0  0  0  0  0  0  0
    1.1205    1.8686    0.5546 O   0  0  0  0  0  0  0  0  0  0  0  0
  1  2  1  0
  2  3  1  0
  3  4  1  0
  4  5  2  0
  5  6  1  0
  6  7  2  0
  7  8  1  0
  8  9  2  0
  9 10  1  0
 10 11  1  0
 11 12  2  0
 12 13  1  0
 13 14  1  0
 14 15  2  0
 15 16  1  0
 16 17  2  0
 17 18  1  0
 18 19  2  0
 12 20  1  0
 20 21  2  0
 20 22  1  0
 22 23  1  0
 23 24  2  0
 24 25  1  0
 25 26  2  0
 26 27  1  0
 27 28  1  0
 27 29  1  0
 26 30  1  0
 30 31  2  0
 22 32  1  0
 32 33  2  0
  9  4  1  0
 32 11  1  0
 19 14  1  0
 31 23  1  0
M  END
>  <zinc_id>  (1) 
ZINC000001954946

>  <smiles>  (1) 
CCOc1ccccc1NC1=C(Sc2ccccc2)C(=O)N(c2ccc(C(C)C)cc2)C1=O

$$$$
