
     RDKit          3D

 31 34  0  0  0  0  0  0  0  0999 V2000
   -5.2150   -5.5198   -0.3125 C   0  0  0  0  0  0  0  0  0  0  0  0
   -4.2967   -4.3987    0.0758 C   0  0  0  0  0  0  0  0  0  0  0  0
   -3.2380   -4.0368   -0.7296 C   0  0  0  0  0  0  0  0  0  0  0  0
   -2.3868   -3.0015   -0.3748 C   0  0  0  0  0  0  0  0  0  0  0  0
   -2.5635   -2.2911    0.7973 C   0  0  0  0  0  0  0  0  0  0  0  0
   -1.7128   -1.2236    1.1960 N   0  0  0  0  0  0  0  0  0  0  0  0
   -0.6153   -0.8221    0.3968 C   0  0  0  0  0  0  0  0  0  0  0  0
   -0.3275    0.4523    0.0717 C   0  0  0  0  0  0  0  0  0  0  0  0
   -1.3277    1.7863    0.6322 S   0  0  0  0  0  0  0  0  0  0  0  0
   -0.7549    3.3598    0.0808 C   0  0  0  0  0  0  0  0  0  0  0  0
    0.3383    3.6118   -0.7003 C   0  0  0  0  0  0  0  0  0  0  0  0
    0.7371    4.8655   -1.0998 C   0  0  0  0  0  0  0  0  0  0  0  0
    0.0094    5.9951   -0.7077 C   0  0  0  0  0  0  0  0  0  0  0  0
   -1.0938    5.7745    0.0772 C   0  0  0  0  0  0  0  0  0  0  0  0
   -1.4701    4.5130    0.4619 C   0  0  0  0  0  0  0  0  0  0  0  0
    0.8677    0.3811   -0.7485 C   0  0  0  0  0  0  0  0  0  0  0  0
    1.4696    1.3374   -1.2603 O   0  0  0  0  0  0  0  0  0  0  0  0
    1.2931   -0.9928   -0.9070 N   0  0  0  0  0  0  0  0  0  0  0  0
    2.4417   -1.4675   -1.6499 C   0  0  0  0  0  0  0  0  0  0  0  0
    3.6396   -1.5384   -0.7481 C   0  0  0  0  0  0  0  0  0  0  0  0
    3.9659   -0.2094   -0.1761 C   0  0  0  0  0  0  0  0  0  0  0  0
    3.3955    0.1560    1.0494 C   0  0  0  0  0  0  0  0  0  0  0  0
    3.6732    1.3788    1.6122 C   0  0  0  0  0  0  0  0  0  0  0  0
    4.5157    2.2675    0.9843 C   0  0  0  0  0  0  0  0  0  0  0  0
    5.0727    1.9081   -0.2144 C   0  0  0  0  0  0  0  0  0  0  0  0
    4.8146    0.6902   -0.8050 C   0  0  0  0  0  0  0  0  0  0  0  0
    0.3353   -1.7311   -0.1713 C   0  0  0  0  0  0  0  0  0  0  0  0
    0.3585   -3.0000   -0.0620 O   0  0  0  0  0  0  0  0  0  0  0  0
   -3.6230   -2.6539    1.6025 C   0  0  0  0  0  0  0  0  0  0  0  0
   -3.8222   -1.8946    2.8678 C   0  0  0  0  0  0  0  0  0  0  0  0
   -4.4807   -3.6960    1.2465 C   0  0  0  0  0  0  0  0  0  0  0  0
  1  2  1  0
  2  3  2  0
  3  4  1  0
  4  5  2  0
  5  6  1  0
  6  7  1  0
  7  8  2  0
  8  9  1  0
  9 10  1  0
 10 11  2  0
 11 12  1  0
 12 13  2  0
 13 14  1  0
 14 15  2  0
  8 16  1  0
 16 17  2  0
 16 18  1  0
 18 19  1  0
 19 20  1  0
 20 21  1  0
 21 22  2  0
 22 23  1  0
 23 24  2  0
 24 25  1  0
 25 26  2  0
 18 27  1  0
 27 28  2  0
  5 29  1  0
 29 30  1  0
 29 31  2  0
 31  2  1  0
 27  7  1  0
 15 10  1  0
 26 21  1  0
M  END
>  <zinc_id>  (1) 
ZINC000001932112

>  <smiles>  (1) 
Cc1ccc(NC2=C(Sc3ccccc3)C(=O)N(CCc3ccccc3)C2=O)c(C)c1

$$$$
