
     RDKit          3D

 20 21  0  0  0  0  0  0  0  0999 V2000
   -4.8098   -2.1817   -0.4169 C   0  0  0  0  0  0  0  0  0  0  0  0
   -5.0476   -0.7397   -0.0776 C   0  0  0  0  0  0  0  0  0  0  0  0
   -6.2466   -0.2151    0.1463 O   0  0  0  0  0  0  0  0  0  0  0  0
   -6.1344    1.0506    0.4151 C   0  0  0  0  0  0  0  0  0  0  0  0
   -4.8137    1.4111    0.3752 C   0  0  0  0  0  0  0  0  0  0  0  0
   -4.1137    0.2662    0.0596 C   0  0  0  0  0  0  0  0  0  0  0  0
   -2.6827    0.0606   -0.1150 C   0  0  0  0  0  0  0  0  0  0  0  0
   -2.1686   -1.0298    0.2847 O   0  0  0  0  0  0  0  0  0  0  0  0
   -1.8212    1.0054   -0.7063 N   0  0  0  0  0  0  0  0  0  0  0  0
   -0.4458    0.8186   -0.8790 N   0  0  0  0  0  0  0  0  0  0  0  0
    0.3127    0.4612    0.1006 C   0  0  0  0  0  0  0  0  0  0  0  0
    1.7486    0.2655   -0.0776 C   0  0  0  0  0  0  0  0  0  0  0  0
    2.5722   -0.1167    0.9614 C   0  0  0  0  0  0  0  0  0  0  0  0
    3.9393   -0.3055    0.8028 C   0  0  0  0  0  0  0  0  0  0  0  0
    4.5165   -0.1092   -0.4309 C   0  0  0  0  0  0  0  0  0  0  0  0
    5.9447   -0.2764   -0.7234 C   0  0  0  0  0  0  0  0  0  0  0  0
    6.8448    0.5982    0.0839 C   0  0  0  0  0  0  0  0  0  0  0  0
    6.3916   -1.6971   -0.8331 C   0  0  0  0  0  0  0  0  0  0  0  0
    3.6839    0.2733   -1.4644 C   0  0  0  0  0  0  0  0  0  0  0  0
    2.3299    0.4605   -1.3083 C   0  0  0  0  0  0  0  0  0  0  0  0
  1  2  1  0
  2  3  1  0
  3  4  1  0
  4  5  2  0
  5  6  1  0
  6  7  1  0
  7  8  2  0
  7  9  1  0
  9 10  1  0
 10 11  2  0
 11 12  1  0
 12 13  2  0
 13 14  1  0
 14 15  2  0
 15 16  1  0
 16 17  1  0
 16 18  1  0
 15 19  1  0
 19 20  2  0
  6  2  2  0
 20 12  1  0
M  END
>  <zinc_id>  (1) 
ZINC000000228227

>  <smiles>  (1) 
Cc1occc1C(=O)N/N=C/c1ccc(C(C)C)cc1

$$$$
