
     RDKit          3D

 21 23  0  0  0  0  0  0  0  0999 V2000
    2.8016    3.5370   -1.0996 C   0  0  0  0  0  0  0  0  0  0  0  0
    3.3572    2.2437   -0.6705 C   0  0  0  0  0  0  0  0  0  0  0  0
    2.3855    1.2225   -0.3282 O   0  0  0  0  0  0  0  0  0  0  0  0
    2.9698   -0.0167    0.0801 C   0  0  0  0  0  0  0  0  0  0  0  0
    4.1923   -0.0667    0.1133 O   0  0  0  0  0  0  0  0  0  0  0  0
    2.0422   -1.1147    0.4005 C   0  0  0  0  0  0  0  0  0  0  0  0
    0.6827   -1.1787    0.2486 C   0  0  0  0  0  0  0  0  0  0  0  0
   -0.1367    0.1446    0.0058 C   0  0  1  0  0  0  0  0  0  0  0  0
   -0.6884   -0.3849   -1.5416 C   0  0  0  0  0  0  0  0  0  0  0  0
   -1.4492    0.8633   -1.8513 O   0  0  0  0  0  0  0  0  0  0  0  0
   -2.6598    0.9364   -1.0919 C   0  0  0  0  0  0  0  0  0  0  0  0
   -3.7413    1.5795   -1.5669 C   0  0  0  0  0  0  0  0  0  0  0  0
   -4.9075    1.6244   -0.7963 C   0  0  0  0  0  0  0  0  0  0  0  0
   -4.9420    1.0139    0.4261 C   0  0  0  0  0  0  0  0  0  0  0  0
   -3.8179    0.3617    0.8949 C   0  0  0  0  0  0  0  0  0  0  0  0
   -2.6327    0.3158    0.1216 C   0  0  0  0  0  0  0  0  0  0  0  0
   -1.5343   -0.3250    0.5832 O   0  0  0  0  0  0  0  0  0  0  0  0
    0.0932   -2.3821    0.4736 C   0  0  0  0  0  0  0  0  0  0  0  0
    1.3496   -3.4470    0.9000 S   0  0  0  0  0  0  0  0  0  0  0  0
    2.6147   -2.3309    0.7705 C   0  0  0  0  0  0  0  0  0  0  0  0
    4.0210   -2.5959    0.9905 N   0  0  0  0  0  0  0  0  0  0  0  0
  1  2  1  0
  2  3  1  0
  3  4  1  0
  4  5  2  0
  4  6  1  0
  6  7  1  0
  8  7  1  1
  8  9  1  0
  9 10  1  0
 10 11  1  0
 11 12  2  0
 12 13  1  0
 13 14  2  0
 14 15  1  0
 15 16  2  0
 16 17  1  0
  7 18  2  0
 18 19  1  0
 19 20  1  0
 20 21  1  0
 20  6  2  0
 17  8  1  0
 16 11  1  0
M  END
>  <zinc_id>  (1) 
ZINC000000287361

>  <smiles>  (1) 
CCOC(=O)c1c([C@H]2COc3ccccc3O2)csc1N

$$$$
