
     RDKit          3D

 22 24  0  0  0  0  0  0  0  0999 V2000
    3.7679    2.5722   -1.0903 C   0  0  0  0  0  0  0  0  0  0  0  0
    3.8380    2.0427    0.3419 C   0  0  0  0  0  0  0  0  0  0  0  0
    5.1829    1.3627    0.4819 C   0  0  0  0  0  0  0  0  0  0  0  0
    2.7186    1.0552    0.5361 C   0  0  0  0  0  0  0  0  0  0  0  0
    2.8868   -0.0650    1.3196 C   0  0  0  0  0  0  0  0  0  0  0  0
    1.8895   -0.9810    1.5158 C   0  0  0  0  0  0  0  0  0  0  0  0
    0.6343   -0.7902    0.9019 C   0  0  0  0  0  0  0  0  0  0  0  0
    0.4403    0.3129    0.1192 C   0  0  0  0  0  0  0  0  0  0  0  0
    1.4989    1.2289   -0.0530 C   0  0  0  0  0  0  0  0  0  0  0  0
   -0.8440    0.5634   -0.5445 C   0  0  1  0  0  0  0  0  0  0  0  0
   -1.3652    1.7861   -0.0447 O   0  0  0  0  0  0  0  0  0  0  0  0
   -0.6915    0.7614   -2.0391 C   0  0  0  0  0  0  0  0  0  0  0  0
    0.2036    1.9394   -2.3557 C   0  0  0  0  0  0  0  0  0  0  0  0
   -2.0587    0.9772   -2.6463 C   0  0  0  0  0  0  0  0  0  0  0  0
   -1.8599   -0.4596   -0.2868 C   0  0  0  0  0  0  0  0  0  0  0  0
   -3.1034   -0.2589   -0.9022 C   0  0  0  0  0  0  0  0  0  0  0  0
   -4.1479   -1.1431   -0.7447 C   0  0  0  0  0  0  0  0  0  0  0  0
   -3.9497   -2.2607    0.0490 C   0  0  0  0  0  0  0  0  0  0  0  0
   -2.7386   -2.4670    0.6553 C   0  0  0  0  0  0  0  0  0  0  0  0
   -1.7033   -1.5820    0.4937 C   0  0  0  0  0  0  0  0  0  0  0  0
   -0.4064   -1.7974    1.1396 C   0  0  0  0  0  0  0  0  0  0  0  0
   -0.1922   -2.7974    1.8642 O   0  0  0  0  0  0  0  0  0  0  0  0
  1  2  1  0
  2  3  1  0
  2  4  1  0
  4  5  2  0
  5  6  1  0
  6  7  2  0
  7  8  1  0
  8  9  2  0
  8 10  1  0
 10 11  1  1
 10 12  1  0
 12 13  1  0
 12 14  1  0
 10 15  1  0
 15 16  2  0
 16 17  1  0
 17 18  2  0
 18 19  1  0
 19 20  2  0
 20 21  1  0
 21 22  2  0
  9  4  1  0
 20 15  1  0
 21  7  1  0
M  END
>  <zinc_id>  (1) 
ZINC000003209699

>  <smiles>  (1) 
CC(C)c1ccc2c(c1)[C@@](O)(C(C)C)c1ccccc1C2=O

$$$$
