
     RDKit          3D

 20 22  0  0  0  0  0  0  0  0999 V2000
    6.0210    0.7319    0.6478 C   0  0  0  0  0  0  0  0  0  0  0  0
    4.5788    0.3237    0.4825 C   0  0  0  0  0  0  0  0  0  0  0  0
    3.2927    1.3434   -0.0611 S   0  0  0  0  0  0  0  0  0  0  0  0
    2.0313    0.2281    0.0115 C   0  0  0  0  0  0  0  0  0  0  0  0
    2.5789   -0.9050    0.4434 C   0  0  0  0  0  0  0  0  0  0  0  0
    3.9522   -0.8492    0.6958 C   0  0  0  0  0  0  0  0  0  0  0  0
    4.7968   -2.0021    1.1906 C   0  0  0  0  0  0  0  0  0  0  0  0
    1.7215   -2.0833    0.6286 C   0  0  0  0  0  0  0  0  0  0  0  0
    2.1694   -3.1993    1.0354 O   0  0  0  0  0  0  0  0  0  0  0  0
    0.3732   -1.9202    0.3334 N   0  0  0  0  0  0  0  0  0  0  0  0
   -0.0740   -0.9448   -0.8037 C   0  0  1  0  0  0  0  0  0  0  0  0
   -1.4398   -0.5204   -0.0553 C   0  0  0  0  0  0  0  0  0  0  0  0
   -2.2499    0.2532   -0.6195 C   0  0  0  0  0  0  0  0  0  0  0  0
   -3.4989    0.8581   -0.3542 C   0  0  0  0  0  0  0  0  0  0  0  0
   -4.0077    1.6739   -1.3458 C   0  0  0  0  0  0  0  0  0  0  0  0
   -5.2136    2.3372   -1.2425 C   0  0  0  0  0  0  0  0  0  0  0  0
   -5.9818    2.2044   -0.1040 C   0  0  0  0  0  0  0  0  0  0  0  0
   -5.4869    1.3923    0.8965 C   0  0  0  0  0  0  0  0  0  0  0  0
   -4.2761    0.7371    0.7719 C   0  0  0  0  0  0  0  0  0  0  0  0
    0.7129    0.3411   -0.2843 N   0  0  0  0  0  0  0  0  0  0  0  0
  1  2  1  0
  2  3  1  0
  3  4  1  0
  4  5  2  0
  5  6  1  0
  6  7  1  0
  5  8  1  0
  8  9  2  0
  8 10  1  0
 10 11  1  0
 11 12  1  1
 12 13  2  0
 13 14  1  0
 14 15  2  0
 15 16  1  0
 16 17  2  0
 17 18  1  0
 18 19  2  0
 11 20  1  0
  6  2  2  0
 19 14  1  0
 20  4  1  0
M  END
>  <zinc_id>  (1) 
ZINC000004501924

>  <smiles>  (1) 
Cc1sc2c(c1C)C(=O)N[C@@H](/C=C/c1ccccc1)N2

$$$$
