
     RDKit          3D

 31 33  0  0  0  0  0  0  0  0999 V2000
   -8.6058   -0.7591    0.5852 C   0  0  0  0  0  0  0  0  0  0  0  0
   -7.1457   -0.9819    0.8456 C   0  0  0  0  0  0  0  0  0  0  0  0
   -6.7708   -2.4388    0.8299 C   0  0  0  0  0  0  0  0  0  0  0  0
   -6.3709   -0.1839   -0.2001 C   0  0  0  0  0  0  0  0  0  0  0  0
   -4.9559   -0.4048    0.0564 N   0  0  0  0  0  0  0  0  0  0  0  0
   -4.3973    0.1429    1.2542 C   0  0  0  0  0  0  0  0  0  0  0  0
   -4.3544    1.6683    1.2274 C   0  0  0  0  0  0  0  0  0  0  0  0
   -3.7436    2.1191    2.5485 C   0  0  0  0  0  0  0  0  0  0  0  0
   -5.7975    2.1518    1.1986 C   0  0  0  0  0  0  0  0  0  0  0  0
   -4.1394   -1.1363   -0.8388 C   0  0  0  0  0  0  0  0  0  0  0  0
   -4.7143   -1.7835   -2.2187 S   0  0  0  0  0  0  0  0  0  0  0  0
   -2.8064   -1.3071   -0.5300 O   0  0  0  0  0  0  0  0  0  0  0  0
   -1.7932   -0.4118   -0.7699 C   0  0  0  0  0  0  0  0  0  0  0  0
   -1.9687    0.8216   -1.3708 C   0  0  0  0  0  0  0  0  0  0  0  0
   -0.8399    1.5972   -1.5355 C   0  0  0  0  0  0  0  0  0  0  0  0
    0.4191    1.1963   -1.1335 C   0  0  0  0  0  0  0  0  0  0  0  0
    0.5957   -0.0309   -0.5355 C   0  0  0  0  0  0  0  0  0  0  0  0
    1.9033   -0.5121   -0.0899 C   0  0  0  0  0  0  0  0  0  0  0  0
    1.9988   -1.6529    0.4083 O   0  0  0  0  0  0  0  0  0  0  0  0
    3.0892    0.2536   -0.1917 N   0  0  0  0  0  0  0  0  0  0  0  0
    4.3565   -0.2476    0.2535 C   0  0  0  0  0  0  0  0  0  0  0  0
    4.4235   -1.5175    0.7859 C   0  0  0  0  0  0  0  0  0  0  0  0
    5.6390   -2.0514    1.2311 C   0  0  0  0  0  0  0  0  0  0  0  0
    6.7888   -1.2988    1.1374 C   0  0  0  0  0  0  0  0  0  0  0  0
    6.7110   -0.0112    0.5957 C   0  0  0  0  0  0  0  0  0  0  0  0
    7.8490    0.7629    0.4910 C   0  0  0  0  0  0  0  0  0  0  0  0
    7.7552    2.0289   -0.0445 C   0  0  0  0  0  0  0  0  0  0  0  0
    6.5327    2.5291   -0.4772 C   0  0  0  0  0  0  0  0  0  0  0  0
    5.3774    1.7686   -0.3813 C   0  0  0  0  0  0  0  0  0  0  0  0
    5.4954    0.4982    0.1605 C   0  0  0  0  0  0  0  0  0  0  0  0
   -0.5306   -0.8092   -0.3688 C   0  0  0  0  0  0  0  0  0  0  0  0
  1  2  1  0
  2  3  1  0
  2  4  1  0
  4  5  1  0
  5  6  1  0
  6  7  1  0
  7  8  1  0
  7  9  1  0
  5 10  1  0
 10 11  2  0
 10 12  1  0
 12 13  1  0
 13 14  2  0
 14 15  1  0
 15 16  2  0
 16 17  1  0
 17 18  1  0
 18 19  2  0
 18 20  1  0
 20 21  1  0
 21 22  2  0
 22 23  1  0
 23 24  2  0
 24 25  1  0
 25 26  2  0
 26 27  1  0
 27 28  2  0
 28 29  1  0
 29 30  2  0
 17 31  2  0
 31 13  1  0
 30 21  1  0
 30 25  1  0
M  END
>  <zinc_id>  (1) 
ZINC000003079492

>  <smiles>  (1) 
CC(C)CN(CC(C)C)C(=S)Oc1cccc(C(=O)Nc2cccc3ccccc23)c1

$$$$
