
     RDKit          3D

 33 36  0  0  0  0  0  0  0  0999 V2000
    3.4966    1.9429    0.4535 C   0  0  0  0  0  0  0  0  0  0  0  0
    4.1964    1.1104   -0.5342 N   0  0  0  0  0  0  0  0  0  0  0  0
    3.4389    0.8706   -1.7776 C   0  0  0  0  0  0  0  0  0  0  0  0
    2.2559   -0.0631   -1.4126 C   0  0  0  0  0  0  0  0  0  0  0  0
    1.4530    0.6345   -0.3737 C   0  0  0  0  0  0  0  0  0  0  0  0
    0.3615   -0.0006    0.1806 N   0  0  0  0  0  0  0  0  0  0  0  0
   -0.8383   -0.5159   -0.2623 C   0  0  0  0  0  0  0  0  0  0  0  0
   -1.0869   -0.4104   -1.4996 O   0  0  0  0  0  0  0  0  0  0  0  0
   -1.8389   -1.1674    0.5722 C   0  0  0  0  0  0  0  0  0  0  0  0
   -1.4736   -2.3242    1.3084 C   0  0  0  0  0  0  0  0  0  0  0  0
   -0.1328   -2.9430    1.3429 C   0  0  0  0  0  0  0  0  0  0  0  0
    0.9306   -2.0489    1.8747 C   0  0  0  0  0  0  0  0  0  0  0  0
    0.3123   -3.3391   -0.0770 C   0  0  0  0  0  0  0  0  0  0  0  0
   -0.1686   -4.2277    2.1505 C   0  0  0  0  0  0  0  0  0  0  0  0
   -2.5959   -2.6780    1.9297 N   0  0  0  0  0  0  0  0  0  0  0  0
   -3.5528   -1.8741    1.6454 O   0  0  0  0  0  0  0  0  0  0  0  0
   -3.1414   -0.9019    0.7997 C   0  0  0  0  0  0  0  0  0  0  0  0
   -3.9968    0.1441    0.3020 C   0  0  0  0  0  0  0  0  0  0  0  0
   -5.3795   -0.1490    0.3116 C   0  0  0  0  0  0  0  0  0  0  0  0
   -6.3474    0.7120   -0.0583 C   0  0  0  0  0  0  0  0  0  0  0  0
   -5.9607    1.9616   -0.4719 C   0  0  0  0  0  0  0  0  0  0  0  0
   -4.6261    2.3256   -0.5083 C   0  0  0  0  0  0  0  0  0  0  0  0
   -4.2391    3.5731   -0.8945 C   0  0  0  0  0  0  0  0  0  0  0  0
   -2.9040    3.9609   -0.9076 C   0  0  0  0  0  0  0  0  0  0  0  0
   -1.9788    3.0255   -0.5099 C   0  0  0  0  0  0  0  0  0  0  0  0
   -2.3829    1.7947   -0.1334 C   0  0  0  0  0  0  0  0  0  0  0  0
   -3.6728    1.3994   -0.1170 C   0  0  0  0  0  0  0  0  0  0  0  0
    5.4600    0.5568   -0.2751 C   0  0  0  0  0  0  0  0  0  0  0  0
    6.6341    1.2056   -0.1061 C   0  0  0  0  0  0  0  0  0  0  0  0
    7.8222    0.5768    0.1513 C   0  0  0  0  0  0  0  0  0  0  0  0
    7.8222   -0.8184    0.2452 C   0  0  0  0  0  0  0  0  0  0  0  0
    6.6512   -1.4799    0.0772 C   0  0  0  0  0  0  0  0  0  0  0  0
    5.4826   -0.8529   -0.1763 C   0  0  0  0  0  0  0  0  0  0  0  0
  1  2  1  0
  2  3  1  0
  3  4  1  0
  4  5  1  0
  5  6  1  0
  6  7  1  0
  7  8  2  0
  7  9  1  0
  9 10  1  0
 10 11  1  0
 11 12  1  0
 11 13  1  0
 11 14  1  0
 10 15  2  0
 15 16  1  0
 16 17  1  0
 17 18  1  0
 18 19  2  0
 19 20  1  0
 20 21  2  0
 21 22  1  0
 22 23  2  0
 23 24  1  0
 24 25  2  0
 25 26  1  0
 26 27  2  0
  2 28  1  0
 28 29  2  0
 29 30  1  0
 30 31  2  0
 31 32  1  0
 32 33  2  0
 17  9  2  0
 27 18  1  0
 33 28  1  0
 27 22  1  0
M  END
>  <zinc_id>  (1) 
ZINC000002483368

>  <smiles>  (1) 
CN(CCCNC(=O)c1c(C(C)(C)C)noc1-c1cccc2ccccc12)c1ccccc1

$$$$
