
     RDKit          3D

 20 21  0  0  0  0  0  0  0  0999 V2000
    2.1066    1.9415   -0.0589 C   0  0  0  0  0  0  0  0  0  0  0  0
    3.0325    0.7806    0.0410 C   0  0  0  0  0  0  0  0  0  0  0  0
    4.3960    1.0248    0.0963 C   0  0  0  0  0  0  0  0  0  0  0  0
    5.3114    0.0056    0.1890 C   0  0  0  0  0  0  0  0  0  0  0  0
    4.8755   -1.2989    0.2289 C   0  0  0  0  0  0  0  0  0  0  0  0
    3.5199   -1.5261    0.1731 C   0  0  0  0  0  0  0  0  0  0  0  0
    2.6031   -0.5104    0.0805 C   0  0  0  0  0  0  0  0  0  0  0  0
    1.1921   -0.8272    0.0263 C   0  0  0  0  0  0  0  0  0  0  0  0
    0.8120   -2.0209    0.0637 O   0  0  0  0  0  0  0  0  0  0  0  0
    0.2208    0.1911   -0.0692 N   0  0  0  0  0  0  0  0  0  0  0  0
   -1.1539   -0.2216   -0.1172 C   0  0  0  0  0  0  0  0  0  0  0  0
   -1.7563   -1.8251   -0.0714 S   0  0  0  0  0  0  0  0  0  0  0  0
   -3.4232   -1.4946   -0.1686 C   0  0  0  0  0  0  0  0  0  0  0  0
   -4.5239   -2.5013   -0.1752 C   0  0  0  0  0  0  0  0  0  0  0  0
   -3.4625   -0.1299   -0.2346 C   0  0  0  0  0  0  0  0  0  0  0  0
   -4.8258    0.5231   -0.3321 C   0  0  0  0  0  0  0  0  0  0  0  0
   -2.3047    0.5369   -0.2092 C   0  0  0  0  0  0  0  0  0  0  0  0
   -2.1814    2.0057   -0.2722 C   0  0  0  0  0  0  0  0  0  0  0  0
   -3.3819    2.7827   -0.3676 N   0  0  0  0  0  0  0  0  0  0  0  0
   -1.0564    2.5639   -0.2432 O   0  0  0  0  0  0  0  0  0  0  0  0
  1  2  1  0
  2  3  2  0
  3  4  1  0
  4  5  2  0
  5  6  1  0
  6  7  2  0
  7  8  1  0
  8  9  2  0
  8 10  1  0
 10 11  1  0
 11 12  1  0
 12 13  1  0
 13 14  1  0
 13 15  2  0
 15 16  1  0
 15 17  1  0
 17 18  1  0
 18 19  1  0
 18 20  2  0
  7  2  1  0
 17 11  2  0
M  END
>  <zinc_id>  (1) 
ZINC000000035651

>  <smiles>  (1) 
Cc1ccccc1C(=O)Nc1sc(C)c(C)c1C(N)=O

$$$$
