
     RDKit          3D

 21 22  0  0  0  0  0  0  0  0999 V2000
   -4.2126    3.0039   -1.4510 C   0  0  0  0  0  0  0  0  0  0  0  0
   -4.8349    1.8579   -0.9132 O   0  0  0  0  0  0  0  0  0  0  0  0
   -4.1252    0.7811   -0.4352 C   0  0  0  0  0  0  0  0  0  0  0  0
   -4.7774   -0.3066    0.0766 C   0  0  0  0  0  0  0  0  0  0  0  0
   -4.0364   -1.3850    0.5546 C   0  0  0  0  0  0  0  0  0  0  0  0
   -4.7919   -2.5321    1.0958 C   0  0  0  0  0  0  0  0  0  0  0  0
   -2.7109   -1.3059    0.4903 N   0  0  0  0  0  0  0  0  0  0  0  0
   -2.0455   -0.2506   -0.0069 C   0  0  0  0  0  0  0  0  0  0  0  0
   -0.6341   -0.1646   -0.0762 N   0  0  0  0  0  0  0  0  0  0  0  0
    0.2418   -1.1700    0.3656 C   0  0  0  0  0  0  0  0  0  0  0  0
   -0.3571   -2.5321    1.0019 S   0  0  0  0  0  0  0  0  0  0  0  0
    1.6305   -1.0037    0.2601 N   0  0  0  0  0  0  0  0  0  0  0  0
    2.1481    0.1908   -0.2978 C   0  0  0  0  0  0  0  0  0  0  0  0
    1.3368    1.0697   -0.6830 O   0  0  0  0  0  0  0  0  0  0  0  0
    3.5960    0.3654   -0.4083 C   0  0  0  0  0  0  0  0  0  0  0  0
    4.1650    1.4987   -0.9390 C   0  0  0  0  0  0  0  0  0  0  0  0
    5.5431    1.6377   -1.0318 C   0  0  0  0  0  0  0  0  0  0  0  0
    6.3737    0.6198   -0.5836 C   0  0  0  0  0  0  0  0  0  0  0  0
    5.8265   -0.5237   -0.0488 C   0  0  0  0  0  0  0  0  0  0  0  0
    4.4473   -0.6260    0.0272 C   0  0  0  0  0  0  0  0  0  0  0  0
   -2.7826    0.7753   -0.4610 N   0  0  0  0  0  0  0  0  0  0  0  0
  1  2  1  0
  2  3  1  0
  3  4  2  0
  4  5  1  0
  5  6  1  0
  5  7  2  0
  7  8  1  0
  8  9  1  0
  9 10  1  0
 10 11  2  0
 10 12  1  0
 12 13  1  0
 13 14  2  0
 13 15  1  0
 15 16  2  0
 16 17  1  0
 17 18  2  0
 18 19  1  0
 19 20  2  0
  8 21  2  0
 21  3  1  0
 20 15  1  0
M  END
>  <zinc_id>  (1) 
ZINC000001150238

>  <smiles>  (1) 
COc1cc(C)nc(NC(=S)NC(=O)c2ccccc2)n1

$$$$
