
     RDKit          3D

 20 21  0  0  0  0  0  0  0  0999 V2000
    2.2495    1.7173   -1.6035 C   0  0  0  0  0  0  0  0  0  0  0  0
    2.9056    0.3891   -1.2237 C   0  0  0  0  0  0  0  0  0  0  0  0
    2.6944   -0.5686   -2.3475 C   0  0  0  0  0  0  0  0  0  0  0  0
    4.4066    0.5797   -1.0344 C   0  0  0  0  0  0  0  0  0  0  0  0
    2.2957   -0.0811    0.0469 C   0  0  0  0  0  0  0  0  0  0  0  0
    3.0889   -0.2712    1.1572 C   0  0  0  0  0  0  0  0  0  0  0  0
    2.5587   -0.7069    2.3546 C   0  0  0  0  0  0  0  0  0  0  0  0
    1.1975   -0.9533    2.4224 C   0  0  0  0  0  0  0  0  0  0  0  0
    0.4429   -0.7575    1.3146 C   0  0  0  0  0  0  0  0  0  0  0  0
    0.9658   -0.3162    0.0938 C   0  0  0  0  0  0  0  0  0  0  0  0
    0.1012   -0.1498   -0.9759 O   0  0  0  0  0  0  0  0  0  0  0  0
   -1.2562   -0.4006   -0.8714 C   0  0  0  0  0  0  0  0  0  0  0  0
   -1.8996   -1.3570   -1.6468 C   0  0  0  0  0  0  0  0  0  0  0  0
   -3.2452   -1.5967   -1.5348 C   0  0  0  0  0  0  0  0  0  0  0  0
   -4.0381   -0.9039   -0.6476 C   0  0  0  0  0  0  0  0  0  0  0  0
   -3.4191    0.0457    0.1272 C   0  0  0  0  0  0  0  0  0  0  0  0
   -2.0588    0.2890    0.0149 C   0  0  0  0  0  0  0  0  0  0  0  0
   -1.4038    1.2745    0.8106 N   0  0  0  0  0  0  0  0  0  0  0  0
   -2.1883    2.0083    1.7358 C   0  0  0  0  0  0  0  0  0  0  0  0
   -3.3977    1.7591    1.8075 O   0  0  0  0  0  0  0  0  0  0  0  0
  1  2  1  0
  2  3  1  0
  2  4  1  0
  2  5  1  0
  5  6  2  0
  6  7  1  0
  7  8  2  0
  8  9  1  0
  9 10  2  0
 10 11  1  0
 11 12  1  0
 12 13  2  0
 13 14  1  0
 14 15  2  0
 15 16  1  0
 16 17  2  0
 17 18  1  0
 18 19  1  0
 19 20  2  0
 10  5  1  0
 17 12  1  0
M  END
>  <zinc_id>  (1) 
ZINC000003033062

>  <smiles>  (1) 
CC(C)(C)c1ccccc1Oc1ccccc1NC=O

$$$$
