
     RDKit          3D

 20 21  0  0  0  0  0  0  0  0999 V2000
    4.1235   -1.9029    1.6271 C   0  0  0  0  0  0  0  0  0  0  0  0
    2.9525   -1.3430    1.1179 O   0  0  0  0  0  0  0  0  0  0  0  0
    2.8111   -0.7814   -0.1323 C   0  0  0  0  0  0  0  0  0  0  0  0
    3.8319   -0.7030   -1.0518 C   0  0  0  0  0  0  0  0  0  0  0  0
    3.6920   -0.1414   -2.3029 C   0  0  0  0  0  0  0  0  0  0  0  0
    2.4487    0.3647   -2.6307 C   0  0  0  0  0  0  0  0  0  0  0  0
    1.4164    0.2925   -1.7180 C   0  0  0  0  0  0  0  0  0  0  0  0
    1.5719   -0.2741   -0.4658 C   0  0  0  0  0  0  0  0  0  0  0  0
    0.4731   -0.3349    0.4671 N   0  0  0  0  0  0  0  0  0  0  0  0
   -0.7622    0.1970    0.0715 C   0  0  0  0  0  0  0  0  0  0  0  0
   -0.9610    0.7634   -1.1489 N   0  0  0  0  0  0  0  0  0  0  0  0
   -2.1488    1.2722   -1.5229 C   0  0  0  0  0  0  0  0  0  0  0  0
   -2.2923    1.8839   -2.8920 C   0  0  0  0  0  0  0  0  0  0  0  0
   -3.2239    1.2337   -0.6603 C   0  0  0  0  0  0  0  0  0  0  0  0
   -3.0244    0.6544    0.5906 C   0  0  0  0  0  0  0  0  0  0  0  0
   -4.1672    0.5972    1.5465 C   0  0  0  0  0  0  0  0  0  0  0  0
   -1.8118    0.1387    0.9634 C   0  0  0  0  0  0  0  0  0  0  0  0
   -1.6532   -0.4597    2.2897 C   0  0  0  0  0  0  0  0  0  0  0  0
   -2.7326   -0.5184    3.2038 N   0  0  0  0  0  0  0  0  0  0  0  0
   -0.5436   -0.9387    2.6480 O   0  0  0  0  0  0  0  0  0  0  0  0
  1  2  1  0
  2  3  1  0
  3  4  2  0
  4  5  1  0
  5  6  2  0
  6  7  1  0
  7  8  2  0
  8  9  1  0
  9 10  1  0
 10 11  2  0
 11 12  1  0
 12 13  1  0
 12 14  2  0
 14 15  1  0
 15 16  1  0
 15 17  2  0
 17 18  1  0
 18 19  1  0
 18 20  2  0
  8  3  1  0
 17 10  1  0
M  END
>  <zinc_id>  (1) 
ZINC000000194603

>  <smiles>  (1) 
COc1ccccc1Nc1nc(C)cc(C)c1C(N)=O

$$$$
