
     RDKit          3D

 20 21  0  0  0  0  0  0  0  0999 V2000
    2.2622   -1.1843   -0.5541 O   0  0  0  0  0  0  0  0  0  0  0  0
    2.2766    0.0631   -0.3037 C   0  0  0  0  0  0  0  0  0  0  0  0
    1.0452    0.6953    0.0051 N   0  0  0  0  0  0  0  0  0  0  0  0
   -0.1545   -0.0521    0.0301 C   0  0  0  0  0  0  0  0  0  0  0  0
   -0.0915   -1.6447   -0.3015 S   0  0  0  0  0  0  0  0  0  0  0  0
   -1.4010    0.5402    0.3331 N   0  0  0  0  0  0  0  0  0  0  0  0
   -2.6221   -0.1395    0.3750 C   0  0  0  0  0  0  0  0  0  0  0  0
   -2.6858   -1.4842    0.1122 C   0  0  0  0  0  0  0  0  0  0  0  0
   -3.8839   -2.1639    0.1507 C   0  0  0  0  0  0  0  0  0  0  0  0
   -5.0574   -1.5106    0.4553 C   0  0  0  0  0  0  0  0  0  0  0  0
   -4.9895   -0.1601    0.7186 C   0  0  0  0  0  0  0  0  0  0  0  0
   -3.7848    0.5322    0.6817 C   0  0  0  0  0  0  0  0  0  0  0  0
   -3.6978    1.9755    0.9610 C   0  0  0  0  0  0  0  0  0  0  0  0
   -4.9253    2.5375    1.2550 O   0  0  0  0  0  0  0  0  0  0  0  0
    3.5447    0.8378   -0.3332 C   0  0  0  0  0  0  0  0  0  0  0  0
    3.8703    1.4814    0.9780 C   0  0  0  0  0  0  0  0  0  0  0  0
    4.4898    0.5166    1.9611 C   0  0  0  0  0  0  0  0  0  0  0  0
    5.7272   -0.0937    1.3414 C   0  0  0  0  0  0  0  0  0  0  0  0
    5.4176   -0.7955    0.0400 C   0  0  0  0  0  0  0  0  0  0  0  0
    4.6600    0.0489   -0.9293 C   0  0  0  0  0  0  0  0  0  0  0  0
  1  2  2  0
  2  3  1  0
  3  4  1  0
  4  5  2  0
  4  6  1  0
  6  7  1  0
  7  8  2  0
  8  9  1  0
  9 10  2  0
 10 11  1  0
 11 12  2  0
 12 13  1  0
 13 14  1  0
  2 15  1  0
 15 16  1  0
 16 17  1  0
 17 18  1  0
 18 19  1  0
 19 20  1  0
 12  7  1  0
 20 15  1  0
M  END
>  <zinc_id>  (1) 
ZINC000003305078

>  <smiles>  (1) 
O=C(NC(=S)Nc1ccccc1CO)C1CCCCC1

$$$$
