
     RDKit          3D

 19 21  0  0  0  0  0  0  0  0999 V2000
   -3.5456    1.5149    2.5082 C   0  0  0  0  0  0  0  0  0  0  0  0
   -2.6019    0.8394    1.5459 C   0  0  0  0  0  0  0  0  0  0  0  0
   -2.7429   -0.4907    1.2253 C   0  0  0  0  0  0  0  0  0  0  0  0
   -1.8710   -1.0901    0.3438 C   0  0  0  0  0  0  0  0  0  0  0  0
   -0.8810   -0.3620   -0.1999 C   0  0  0  0  0  0  0  0  0  0  0  0
   -0.7443    0.9204    0.1095 C   0  0  0  0  0  0  0  0  0  0  0  0
   -1.5708    1.5636    0.9690 C   0  0  0  0  0  0  0  0  0  0  0  0
    0.4684    1.7792   -0.5363 C   0  0  2  0  0  0  0  0  0  0  0  0
    0.2601    1.2116   -2.0853 C   0  0  0  0  0  0  0  0  0  0  0  0
   -1.0493    1.6351   -2.3216 O   0  0  0  0  0  0  0  0  0  0  0  0
    1.5944    0.6742   -0.1472 C   0  0  0  0  0  0  0  0  0  0  0  0
    2.6817    1.1810    0.5202 C   0  0  0  0  0  0  0  0  0  0  0  0
    3.6428    0.2459    0.8682 C   0  0  0  0  0  0  0  0  0  0  0  0
    3.5166   -1.0910    0.5673 C   0  0  0  0  0  0  0  0  0  0  0  0
    2.3875   -1.5019   -0.1057 C   0  0  0  0  0  0  0  0  0  0  0  0
    1.4507   -0.5888   -0.4450 C   0  0  0  0  0  0  0  0  0  0  0  0
    0.1461   -1.0113   -1.2471 C   0  0  1  0  0  0  0  0  0  0  0  0
    0.0973   -2.5677   -0.6991 C   0  0  0  0  0  0  0  0  0  0  0  0
   -1.2386   -2.8618   -0.8704 O   0  0  0  0  0  0  0  0  0  0  0  0
  1  2  1  0
  2  3  2  0
  3  4  1  0
  4  5  2  0
  5  6  1  0
  6  7  2  0
  6  8  1  0
  8  9  1  6
  9 10  1  0
  8 11  1  0
 11 12  2  0
 12 13  1  0
 13 14  2  0
 14 15  1  0
 15 16  2  0
 16 17  1  0
 17 18  1  1
 18 19  1  0
  7  2  1  0
 16 11  1  0
 17  5  1  0
M  END
>  <zinc_id>  (1) 
ZINC000002529411

>  <smiles>  (1) 
Cc1ccc2c(c1)[C@H](CO)c1ccccc1[C@H]2CO

$$$$
