
     RDKit          3D

 21 23  0  0  0  0  0  0  0  0999 V2000
    6.3126    1.0122   -1.5581 C   0  0  0  0  0  0  0  0  0  0  0  0
    5.3757   -0.0483   -1.6684 O   0  0  0  0  0  0  0  0  0  0  0  0
    4.0616    0.1572   -1.1887 C   0  0  0  0  0  0  0  0  0  0  0  0
    3.6607    1.3479   -0.6197 C   0  0  0  0  0  0  0  0  0  0  0  0
    2.3778    1.5388   -0.1564 C   0  0  0  0  0  0  0  0  0  0  0  0
    1.4435    0.5425   -0.2454 C   0  0  0  0  0  0  0  0  0  0  0  0
    0.1561    0.7677    0.2321 C   0  0  0  0  0  0  0  0  0  0  0  0
   -0.1777    1.8759    0.7489 O   0  0  0  0  0  0  0  0  0  0  0  0
   -0.7436   -0.2619    0.1204 C   0  0  0  0  0  0  0  0  0  0  0  0
   -2.1336   -0.1170    0.5718 C   0  0  0  0  0  0  0  0  0  0  0  0
   -3.1986   -0.0391   -0.2951 C   0  0  0  0  0  0  0  0  0  0  0  0
   -4.4797    0.1015    0.1784 C   0  0  0  0  0  0  0  0  0  0  0  0
   -4.7687    0.1703    1.5401 C   0  0  0  0  0  0  0  0  0  0  0  0
   -6.1188    0.3262    2.0093 N   0  0  0  0  0  0  0  0  0  0  0  0
   -3.6996    0.0924    2.4094 C   0  0  0  0  0  0  0  0  0  0  0  0
   -2.4115   -0.0469    1.9415 C   0  0  0  0  0  0  0  0  0  0  0  0
   -0.2856   -1.4381   -0.4587 C   0  0  0  0  0  0  0  0  0  0  0  0
   -1.2441   -2.5651   -0.5892 C   0  0  0  0  0  0  0  0  0  0  0  0
    0.9256   -1.5988   -0.8894 O   0  0  0  0  0  0  0  0  0  0  0  0
    1.8293   -0.6550   -0.8114 C   0  0  0  0  0  0  0  0  0  0  0  0
    3.1186   -0.8334   -1.2715 C   0  0  0  0  0  0  0  0  0  0  0  0
  1  2  1  0
  2  3  1  0
  3  4  2  0
  4  5  1  0
  5  6  2  0
  6  7  1  0
  7  8  2  0
  7  9  1  0
  9 10  1  0
 10 11  2  0
 11 12  1  0
 12 13  2  0
 13 14  1  0
 13 15  1  0
 15 16  2  0
  9 17  2  0
 17 18  1  0
 17 19  1  0
 19 20  1  0
 20 21  2  0
 21  3  1  0
 20  6  1  0
 16 10  1  0
M  END
>  <zinc_id>  (1) 
ZINC000000487938

>  <smiles>  (1) 
COc1ccc2c(=O)c(-c3ccc(N)cc3)c(C)oc2c1

$$$$
