
     RDKit          3D

 31 34  0  0  0  0  0  0  0  0999 V2000
    6.7772   -2.4354    0.0300 C   0  0  0  0  0  0  0  0  0  0  0  0
    6.3005   -3.4489   -1.0081 C   0  0  0  0  0  0  0  0  0  0  0  0
    5.3615   -2.8288   -1.8656 O   0  0  0  0  0  0  0  0  0  0  0  0
    4.1862   -2.2920   -1.3830 C   0  0  0  0  0  0  0  0  0  0  0  0
    3.3308   -1.7050   -2.3086 C   0  0  0  0  0  0  0  0  0  0  0  0
    2.1319   -1.1456   -1.8933 C   0  0  0  0  0  0  0  0  0  0  0  0
    1.7545   -1.1535   -0.5664 C   0  0  0  0  0  0  0  0  0  0  0  0
    0.5275   -0.5795   -0.1506 N   0  0  0  0  0  0  0  0  0  0  0  0
   -0.7139   -1.0853   -0.1402 C   0  0  0  0  0  0  0  0  0  0  0  0
   -1.0486   -2.3864   -0.5772 N   0  0  0  0  0  0  0  0  0  0  0  0
   -1.6109   -0.1480    0.3592 C   0  0  0  0  0  0  0  0  0  0  0  0
   -3.0645   -0.3022    0.5368 C   0  0  0  0  0  0  0  0  0  0  0  0
   -3.6740    0.6765    1.0052 O   0  0  0  0  0  0  0  0  0  0  0  0
   -3.7736   -1.3990    0.2377 O   0  0  0  0  0  0  0  0  0  0  0  0
   -4.9847   -1.8543    0.2556 C   0  0  0  0  0  0  0  0  0  0  0  0
   -6.1290   -1.1845   -0.6495 C   0  0  1  0  0  0  0  0  0  0  0  0
   -6.0541    0.2930    0.0284 C   0  0  0  0  0  0  0  0  0  0  0  0
   -5.2080   -0.7599   -1.9500 C   0  0  0  0  0  0  0  0  0  0  0  0
   -4.6902   -2.1090   -2.3819 C   0  0  0  0  0  0  0  0  0  0  0  0
   -0.8395    0.9547    0.6504 C   0  0  0  0  0  0  0  0  0  0  0  0
   -1.1694    2.1653    1.1610 N   0  0  0  0  0  0  0  0  0  0  0  0
   -0.2499    3.1118    1.3692 C   0  0  0  0  0  0  0  0  0  0  0  0
   -0.6084    4.3499    1.8948 C   0  0  0  0  0  0  0  0  0  0  0  0
    0.3721    5.3116    2.0988 C   0  0  0  0  0  0  0  0  0  0  0  0
    1.6886    5.0266    1.7777 C   0  0  0  0  0  0  0  0  0  0  0  0
    2.0281    3.7994    1.2593 C   0  0  0  0  0  0  0  0  0  0  0  0
    1.0526    2.8449    1.0571 C   0  0  0  0  0  0  0  0  0  0  0  0
    1.3873    1.6469    0.5505 N   0  0  0  0  0  0  0  0  0  0  0  0
    0.4638    0.6905    0.3392 C   0  0  0  0  0  0  0  0  0  0  0  0
    2.6349   -1.7492    0.3314 C   0  0  0  0  0  0  0  0  0  0  0  0
    3.8208   -2.3043   -0.0679 C   0  0  0  0  0  0  0  0  0  0  0  0
  1  2  1  0
  2  3  1  0
  3  4  1  0
  4  5  2  0
  5  6  1  0
  6  7  2  0
  7  8  1  0
  8  9  1  0
  9 10  1  0
  9 11  2  0
 11 12  1  0
 12 13  2  0
 12 14  1  0
 14 15  1  0
 15 16  1  0
 16 17  1  1
 16 18  1  0
 18 19  1  0
 11 20  1  0
 20 21  2  0
 21 22  1  0
 22 23  2  0
 23 24  1  0
 24 25  2  0
 25 26  1  0
 26 27  2  0
 27 28  1  0
 28 29  2  0
  7 30  1  0
 30 31  2  0
 31  4  1  0
 29  8  1  0
 29 20  1  0
 27 22  1  0
M  END
>  <zinc_id>  (1) 
ZINC000002367071

>  <smiles>  (1) 
CCOc1ccc(-n2c(N)c(C(=O)OC[C@@H](C)CC)c3nc4ccccc4nc32)cc1

$$$$
