
     RDKit          3D

 21 23  0  0  0  0  0  0  0  0999 V2000
    5.9434    0.6142   -0.3541 C   0  0  0  0  0  0  0  0  0  0  0  0
    4.4416    0.6059    0.3187 C   0  0  1  0  0  0  0  0  0  0  0  0
    3.7011    1.0142   -1.0907 C   0  0  0  0  0  0  0  0  0  0  0  0
    2.3105    0.5347   -0.9174 C   0  0  0  0  0  0  0  0  0  0  0  0
    1.4259    0.9177   -1.6954 O   0  0  0  0  0  0  0  0  0  0  0  0
    1.9286   -0.3895    0.1595 C   0  0  0  0  0  0  0  0  0  0  0  0
    0.7808   -0.6623    0.8462 C   0  0  0  0  0  0  0  0  0  0  0  0
   -0.5104   -0.0412    0.6349 C   0  0  0  0  0  0  0  0  0  0  0  0
   -0.6514    1.2072    0.9076 O   0  0  0  0  0  0  0  0  0  0  0  0
   -1.6684   -0.7009    0.1495 N   0  0  0  0  0  0  0  0  0  0  0  0
   -2.9015    0.0417   -0.0024 C   0  0  0  0  0  0  0  0  0  0  0  0
   -2.9181    1.4047    0.2933 C   0  0  0  0  0  0  0  0  0  0  0  0
   -4.0689    2.1358    0.1720 C   0  0  0  0  0  0  0  0  0  0  0  0
   -5.2506    1.5125   -0.2554 C   0  0  0  0  0  0  0  0  0  0  0  0
   -5.2178    0.1599   -0.5471 C   0  0  0  0  0  0  0  0  0  0  0  0
   -4.0569   -0.5632   -0.4202 C   0  0  0  0  0  0  0  0  0  0  0  0
   -3.9833   -1.8937   -0.7064 F   0  0  0  0  0  0  0  0  0  0  0  0
    1.1111   -1.6590    1.7613 C   0  0  0  0  0  0  0  0  0  0  0  0
    2.4202   -1.9913    1.6448 N   0  0  0  0  0  0  0  0  0  0  0  0
    2.9104   -1.2157    0.6685 C   0  0  0  0  0  0  0  0  0  0  0  0
    4.2536   -1.0317    0.0205 C   0  0  0  0  0  0  0  0  0  0  0  0
  2  1  1  6
  2  3  1  0
  3  4  1  0
  4  5  2  0
  4  6  1  0
  6  7  1  0
  7  8  1  0
  8  9  2  0
  8 10  1  0
 10 11  1  0
 11 12  2  0
 12 13  1  0
 13 14  2  0
 14 15  1  0
 15 16  2  0
 16 17  1  0
  7 18  2  0
 18 19  1  0
 19 20  1  0
 20 21  1  0
 21  2  1  0
 20  6  2  0
 16 11  1  0
M  END
>  <zinc_id>  (1) 
ZINC000000006959

>  <smiles>  (1) 
C[C@H]1CC(=O)c2c(C(=O)Nc3ccccc3F)c[nH]c2C1

$$$$
