
     RDKit          3D

 21 23  0  0  0  0  0  0  0  0999 V2000
   -2.0081    1.5760    4.2720 C   0  0  0  0  0  0  0  0  0  0  0  0
   -1.9318    0.7697    3.1039 O   0  0  0  0  0  0  0  0  0  0  0  0
   -0.7659    0.4958    2.4563 C   0  0  0  0  0  0  0  0  0  0  0  0
    0.3022    0.9764    2.9076 O   0  0  0  0  0  0  0  0  0  0  0  0
   -0.7479   -0.3254    1.2798 N   0  0  0  0  0  0  0  0  0  0  0  0
    0.7112   -0.5239    0.6748 C   0  0  1  0  0  0  0  0  0  0  0  0
    0.4360   -1.9703    0.1070 C   0  0  0  0  0  0  0  0  0  0  0  0
    0.6198   -2.9607    1.1076 C   0  0  0  0  0  0  0  0  0  0  0  0
    0.4082   -4.2662    0.7329 C   0  0  0  0  0  0  0  0  0  0  0  0
    0.0364   -4.5615   -0.5610 C   0  0  0  0  0  0  0  0  0  0  0  0
   -0.1368   -3.5565   -1.5266 C   0  0  0  0  0  0  0  0  0  0  0  0
    0.0814   -2.2577   -1.1249 C   0  0  0  0  0  0  0  0  0  0  0  0
   -0.0635   -1.2323   -1.9918 O   0  0  0  0  0  0  0  0  0  0  0  0
    0.1104    0.0962   -1.7656 C   0  0  0  0  0  0  0  0  0  0  0  0
   -0.0650    1.0794   -2.7330 C   0  0  0  0  0  0  0  0  0  0  0  0
    0.1363    2.4103   -2.4055 C   0  0  0  0  0  0  0  0  0  0  0  0
    0.5092    2.7790   -1.1313 C   0  0  0  0  0  0  0  0  0  0  0  0
    0.7105    4.1410   -0.8136 O   0  0  0  0  0  0  0  0  0  0  0  0
    0.5189    5.1016   -1.8344 C   0  0  0  0  0  0  0  0  0  0  0  0
    0.6748    1.7907   -0.1989 C   0  0  0  0  0  0  0  0  0  0  0  0
    0.4639    0.4381   -0.5553 C   0  0  0  0  0  0  0  0  0  0  0  0
  1  2  1  0
  2  3  1  0
  3  4  2  0
  3  5  1  0
  6  5  1  1
  6  7  1  0
  7  8  2  0
  8  9  1  0
  9 10  2  0
 10 11  1  0
 11 12  2  0
 12 13  1  0
 13 14  1  0
 14 15  2  0
 15 16  1  0
 16 17  2  0
 17 18  1  0
 18 19  1  0
 17 20  1  0
 20 21  2  0
 21  6  1  0
 12  7  1  0
 21 14  1  0
M  END
>  <zinc_id>  (1) 
ZINC000000618816

>  <smiles>  (1) 
COC(=O)N[C@H]1c2ccccc2Oc2ccc(OC)cc21

$$$$
