
     RDKit          3D

 19 20  0  0  0  0  0  0  0  0999 V2000
    4.7306   -2.5314   -0.9582 C   0  0  0  0  0  0  0  0  0  0  0  0
    4.5816   -1.0082   -0.8923 C   0  0  0  0  0  0  0  0  0  0  0  0
    3.2101   -0.7432   -0.7117 O   0  0  0  0  0  0  0  0  0  0  0  0
    2.6586    0.5014   -0.6038 C   0  0  0  0  0  0  0  0  0  0  0  0
    3.3916    1.5022   -0.6649 O   0  0  0  0  0  0  0  0  0  0  0  0
    1.2157    0.6545   -0.4177 C   0  0  0  0  0  0  0  0  0  0  0  0
    0.4808    1.8170   -0.2893 C   0  0  0  0  0  0  0  0  0  0  0  0
    1.1934    3.4627   -0.3278 S   0  0  0  0  0  0  0  0  0  0  0  0
   -0.1222    4.6791   -0.1247 C   0  0  0  0  0  0  0  0  0  0  0  0
   -0.8093    1.4686   -0.1379 N   0  0  0  0  0  0  0  0  0  0  0  0
   -0.9580    0.1552   -0.1599 N   0  0  0  0  0  0  0  0  0  0  0  0
   -2.1928   -0.5810   -0.0276 C   0  0  0  0  0  0  0  0  0  0  0  0
   -2.2628   -1.7604    0.6866 C   0  0  0  0  0  0  0  0  0  0  0  0
   -3.4302   -2.4766    0.8243 C   0  0  0  0  0  0  0  0  0  0  0  0
   -4.5998   -2.0371    0.2435 C   0  0  0  0  0  0  0  0  0  0  0  0
   -4.5443   -0.8609   -0.4725 C   0  0  0  0  0  0  0  0  0  0  0  0
   -3.3662   -0.1437   -0.6080 C   0  0  0  0  0  0  0  0  0  0  0  0
    0.2753   -0.3521   -0.3307 C   0  0  0  0  0  0  0  0  0  0  0  0
    0.5478   -1.7460   -0.4082 N   0  0  0  0  0  0  0  0  0  0  0  0
  1  2  1  0
  2  3  1  0
  3  4  1  0
  4  5  2  0
  4  6  1  0
  6  7  1  0
  7  8  1  0
  8  9  1  0
  7 10  2  0
 10 11  1  0
 11 12  1  0
 12 13  2  0
 13 14  1  0
 14 15  2  0
 15 16  1  0
 16 17  2  0
 11 18  1  0
 18 19  1  0
 18  6  2  0
 17 12  1  0
M  END
>  <zinc_id>  (1) 
ZINC000002575559

>  <smiles>  (1) 
CCOC(=O)c1c(SC)nn(-c2ccccc2)c1N

$$$$
