
     RDKit          3D

 22 25  0  0  0  0  0  0  0  0999 V2000
    7.2538   -0.7451    0.2212 C   0  0  0  0  0  0  0  0  0  0  0  0
    6.1766   -0.6347    1.1279 O   0  0  0  0  0  0  0  0  0  0  0  0
    4.8539   -0.5546    0.6150 C   0  0  0  0  0  0  0  0  0  0  0  0
    4.6496   -0.5859   -0.7451 C   0  0  0  0  0  0  0  0  0  0  0  0
    3.3437   -0.5067   -1.2471 C   0  0  0  0  0  0  0  0  0  0  0  0
    2.3059   -0.3994   -0.3461 C   0  0  0  0  0  0  0  0  0  0  0  0
    0.8345   -0.3136   -1.0127 C   0  0  1  0  0  0  0  0  0  0  0  0
    0.1533   -1.3507   -0.0216 N   0  0  0  0  0  0  0  0  0  0  0  0
   -1.2560   -1.2768   -0.0634 C   0  0  0  0  0  0  0  0  0  0  0  0
   -1.9728   -2.3498   -0.0599 O   0  0  0  0  0  0  0  0  0  0  0  0
   -1.9482    0.0433   -0.1126 C   0  0  0  0  0  0  0  0  0  0  0  0
   -1.0667    1.0735   -0.1154 C   0  0  0  0  0  0  0  0  0  0  0  0
   -2.0725    2.4433   -0.1606 S   0  0  0  0  0  0  0  0  0  0  0  0
   -3.6106    1.6644   -0.1749 C   0  0  0  0  0  0  0  0  0  0  0  0
   -3.2661    0.3600   -0.1437 C   0  0  0  0  0  0  0  0  0  0  0  0
   -4.4547   -0.5901   -0.1483 C   0  0  0  0  0  0  0  0  0  0  0  0
   -5.5688    0.0746    0.6007 C   0  0  0  0  0  0  0  0  0  0  0  0
   -6.0389    1.2536   -0.2600 C   0  0  0  0  0  0  0  0  0  0  0  0
   -4.9462    2.2669   -0.2114 C   0  0  0  0  0  0  0  0  0  0  0  0
    0.3453    0.9443   -0.0803 N   0  0  0  0  0  0  0  0  0  0  0  0
    2.5045   -0.3697    0.9547 C   0  0  0  0  0  0  0  0  0  0  0  0
    3.7804   -0.4467    1.4558 C   0  0  0  0  0  0  0  0  0  0  0  0
  1  2  1  0
  2  3  1  0
  3  4  2  0
  4  5  1  0
  5  6  2  0
  7  6  1  1
  7  8  1  0
  8  9  1  0
  9 10  2  0
  9 11  1  0
 11 12  2  0
 12 13  1  0
 13 14  1  0
 14 15  2  0
 15 16  1  0
 16 17  1  0
 17 18  1  0
 18 19  1  0
 12 20  1  0
  6 21  1  0
 21 22  2  0
 22  3  1  0
 20  7  1  0
 15 11  1  0
 19 14  1  0
M  END
>  <zinc_id>  (1) 
ZINC000000565631

>  <smiles>  (1) 
COc1ccc([C@H]2NC(=O)c3c(sc4c3CCCC4)N2)cc1

$$$$
