
     RDKit          3D

 20 21  0  0  0  0  0  0  0  0999 V2000
    4.6028    1.6079   -1.0241 C   0  0  0  0  0  0  0  0  0  0  0  0
    2.9636    1.4291   -1.0413 C   0  0  1  0  0  0  0  0  0  0  0  0
    3.0353   -0.2143   -1.0595 C   0  0  0  0  0  0  0  0  0  0  0  0
    1.7298   -0.6742   -0.5535 C   0  0  0  0  0  0  0  0  0  0  0  0
    0.7756   -1.3730   -1.3368 N   0  0  0  0  0  0  0  0  0  0  0  0
   -0.2138   -2.1051   -0.7295 N   0  0  0  0  0  0  0  0  0  0  0  0
   -1.4488   -1.5718   -0.2697 C   0  0  0  0  0  0  0  0  0  0  0  0
   -2.3463   -2.4552    0.3265 C   0  0  0  0  0  0  0  0  0  0  0  0
   -3.5477   -1.9605    0.7788 C   0  0  0  0  0  0  0  0  0  0  0  0
   -3.8933   -0.6405    0.6663 C   0  0  0  0  0  0  0  0  0  0  0  0
   -3.0198    0.2459    0.0806 C   0  0  0  0  0  0  0  0  0  0  0  0
   -3.3390    1.6276   -0.0569 N   0  0  0  0  0  4  0  0  0  0  0  0
   -4.4355    2.0229    0.3675 O   0  0  0  0  0  0  0  0  0  0  0  0
   -2.4358    2.4779   -0.6488 O   0  0  0  0  0  1  0  0  0  0  0  0
   -1.8048   -0.2538   -0.3770 C   0  0  0  0  0  0  0  0  0  0  0  0
    1.5350   -0.3659    0.7203 C   0  0  0  0  0  0  0  0  0  0  0  0
    2.7107    0.3666    1.2777 C   0  0  0  0  0  0  0  0  0  0  0  0
    3.9401   -0.4962    1.3035 C   0  0  0  0  0  0  0  0  0  0  0  0
    2.3770    0.6989    2.7124 C   0  0  0  0  0  0  0  0  0  0  0  0
    2.8150    1.6335    0.5697 C   0  0  0  0  0  0  0  0  0  0  0  0
  2  1  1  1
  2  3  1  0
  3  4  1  0
  4  5  1  0
  5  6  1  0
  6  7  1  0
  7  8  2  0
  8  9  1  0
  9 10  2  0
 10 11  1  0
 11 12  1  0
 12 13  2  0
 12 14  1  0
 11 15  2  0
  4 16  2  0
 16 17  1  0
 17 18  1  0
 17 19  1  0
 17 20  1  0
 20  2  1  0
 15  7  1  0
M  CHG  2  12   1  14  -1
M  END
>  <zinc_id>  (1) 
ZINC000003241272

>  <smiles>  (1) 
C[C@H]1CC(NNc2cccc([N+](=O)[O-])c2)=CC(C)(C)C1

$$$$
