
     RDKit          3D

 32 36  0  0  0  0  0  0  0  0999 V2000
   -4.5149   -1.6851   -1.0055 C   0  0  0  0  0  0  0  0  0  0  0  0
   -4.1114   -0.3337   -0.7640 N   0  0  0  0  0  0  0  0  0  0  0  0
   -5.1741    0.5853   -1.0396 C   0  0  0  0  0  0  0  0  0  0  0  0
   -6.3600    0.3430   -0.1929 C   0  0  0  0  0  0  0  0  0  0  0  0
   -6.5107    0.9836    1.0334 C   0  0  0  0  0  0  0  0  0  0  0  0
   -7.5804    0.7966    1.8463 C   0  0  0  0  0  0  0  0  0  0  0  0
   -8.5780   -0.0677    1.4544 C   0  0  0  0  0  0  0  0  0  0  0  0
   -8.4699   -0.7210    0.2517 C   0  0  0  0  0  0  0  0  0  0  0  0
   -7.3695   -0.5159   -0.5634 C   0  0  0  0  0  0  0  0  0  0  0  0
   -3.6922   -0.1586    0.6075 C   0  0  0  0  0  0  0  0  0  0  0  0
   -3.3648    1.2640    0.9120 C   0  0  0  0  0  0  0  0  0  0  0  0
   -2.0048    1.6273    0.4038 C   0  0  0  0  0  0  0  0  0  0  0  0
   -1.0090    0.6650    0.9523 C   0  0  0  0  0  0  0  0  0  0  0  0
    0.3685    1.1444    1.1370 C   0  0  0  0  0  0  0  0  0  0  0  0
    1.2917    0.0981    1.6810 C   0  0  0  0  0  0  0  0  0  0  0  0
    1.3317   -1.0382    0.6519 C   0  0  0  0  0  0  0  0  0  0  0  0
    1.8711   -0.4490   -0.5912 C   0  0  0  0  0  0  0  0  0  0  0  0
    1.1286   -0.1147   -1.6961 C   0  0  0  0  0  0  0  0  0  0  0  0
    1.9776    0.3817   -2.5923 N   0  0  0  0  0  0  0  0  0  0  0  0
    3.2358    0.3799   -2.1082 C   0  0  0  0  0  0  0  0  0  0  0  0
    4.4456    0.7849   -2.6475 C   0  0  0  0  0  0  0  0  0  0  0  0
    5.6212    0.6662   -1.9129 C   0  0  0  0  0  0  0  0  0  0  0  0
    5.5542    0.1402   -0.6458 C   0  0  0  0  0  0  0  0  0  0  0  0
    6.7241   -0.0181    0.1750 N   0  0  0  0  0  0  0  0  0  0  0  0
    7.3603    0.9881    0.7810 C   0  0  0  0  0  0  0  0  0  0  0  0
    8.3927    0.4711    1.4506 N   0  0  0  0  0  0  0  0  0  0  0  0
    8.4021   -0.8356    1.2669 N   0  0  0  0  0  0  0  0  0  0  0  0
    7.3710   -1.1451    0.4776 C   0  0  0  0  0  0  0  0  0  0  0  0
    4.3588   -0.2679   -0.0931 C   0  0  0  0  0  0  0  0  0  0  0  0
    3.1894   -0.1391   -0.8499 C   0  0  0  0  0  0  0  0  0  0  0  0
   -1.2446   -0.7387    0.5925 C   0  0  0  0  0  0  0  0  0  0  0  0
   -2.6399   -1.1460    1.0275 C   0  0  0  0  0  0  0  0  0  0  0  0
  1  2  1  0
  2  3  1  0
  3  4  1  0
  4  5  2  0
  5  6  1  0
  6  7  2  0
  7  8  1  0
  8  9  2  0
  2 10  1  0
 10 11  1  0
 11 12  1  0
 12 13  1  0
 13 14  1  0
 14 15  1  0
 15 16  1  0
 16 17  1  0
 17 18  2  0
 18 19  1  0
 19 20  1  0
 20 21  2  0
 21 22  1  0
 22 23  2  0
 23 24  1  0
 24 25  1  0
 25 26  2  0
 26 27  1  0
 27 28  2  0
 23 29  1  0
 29 30  2  0
 13 31  1  0
 31 32  1  0
  9  4  1  0
 32 10  1  0
 30 17  1  0
 30 20  1  0
 28 24  1  0
M  END
>  <zinc_id>  (1) 
ZINC000000579606

>  <smiles>  (1) 
CN(Cc1ccccc1)C1CCC(CCCc2c[nH]c3ccc(-n4cnnc4)cc23)CC1

$$$$
