
     RDKit          3D

 21 23  0  0  0  0  0  0  0  0999 V2000
   -1.3733    2.1860   -1.8788 C   0  0  0  0  0  0  0  0  0  0  0  0
   -1.1412    1.3779   -0.7653 O   0  0  0  0  0  0  0  0  0  0  0  0
   -1.8349    0.1837   -0.5665 C   0  0  0  0  0  0  0  0  0  0  0  0
   -2.7922   -0.1864   -1.5407 C   0  0  0  0  0  0  0  0  0  0  0  0
   -3.4787   -1.3621   -1.3494 C   0  0  0  0  0  0  0  0  0  0  0  0
   -3.2422   -2.1356   -0.2632 C   0  0  0  0  0  0  0  0  0  0  0  0
   -2.3090   -1.7474    0.6595 C   0  0  0  0  0  0  0  0  0  0  0  0
   -1.6184   -0.6143    0.5152 C   0  0  0  0  0  0  0  0  0  0  0  0
   -0.5270   -0.1191    1.5408 C   0  0  2  0  0  0  0  0  0  0  0  0
   -0.9557    1.4497    1.5155 C   0  0  0  0  0  0  0  0  0  0  0  0
    0.2163    2.2730    1.7596 C   0  0  0  0  0  0  0  0  0  0  0  0
    0.1247    3.1332    2.6892 O   0  0  0  0  0  0  0  0  0  0  0  0
    1.3783    2.0899    0.9763 N   0  0  0  0  0  0  0  0  0  0  0  0
    1.5954    0.8124    0.4491 C   0  0  0  0  0  0  0  0  0  0  0  0
    2.7520    0.5778   -0.3689 C   0  0  0  0  0  0  0  0  0  0  0  0
    2.9615   -0.6770   -0.9040 C   0  0  0  0  0  0  0  0  0  0  0  0
    4.1510   -0.9427   -1.7529 C   0  0  0  0  0  0  0  0  0  0  0  0
    2.0750   -1.6892   -0.6576 C   0  0  0  0  0  0  0  0  0  0  0  0
    2.2964   -3.0184   -1.2245 C   0  0  0  0  0  0  0  0  0  0  0  0
    0.9702   -1.4195    0.1386 C   0  0  0  0  0  0  0  0  0  0  0  0
    0.7518   -0.1718    0.6775 C   0  0  0  0  0  0  0  0  0  0  0  0
  1  2  1  0
  2  3  1  0
  3  4  2  0
  4  5  1  0
  5  6  2  0
  6  7  1  0
  7  8  2  0
  9  8  1  6
  9 10  1  0
 10 11  1  0
 11 12  2  0
 11 13  1  0
 13 14  1  0
 14 15  2  0
 15 16  1  0
 16 17  1  0
 16 18  2  0
 18 19  1  0
 18 20  1  0
 20 21  2  0
  8  3  1  0
 21  9  1  0
 21 14  1  0
M  END
>  <zinc_id>  (1) 
ZINC000000036522

>  <smiles>  (1) 
COc1ccccc1[C@@H]1CC(=O)Nc2cc(C)c(C)cc21

$$$$
