
     RDKit          3D

 19 20  0  0  0  0  0  0  0  0999 V2000
   -3.4135   -2.2537   -1.3265 C   0  0  0  0  0  0  0  0  0  0  0  0
   -3.8207   -1.1271   -0.4660 C   0  0  0  0  0  0  0  0  0  0  0  0
   -5.0769   -0.6650   -0.3705 N   0  0  0  0  0  0  0  0  0  0  0  0
   -5.1295    0.3494    0.4786 N   0  0  0  0  0  0  0  0  0  0  0  0
   -3.8899    0.5502    0.9423 C   0  0  0  0  0  0  0  0  0  0  0  0
   -3.5106    1.5900    1.9151 C   0  0  0  0  0  0  0  0  0  0  0  0
   -3.0320   -0.3619    0.3705 C   0  0  0  0  0  0  0  0  0  0  0  0
   -1.6519   -0.5209    0.5618 N   0  0  0  0  0  0  0  0  0  0  0  0
   -0.6504    0.1174   -0.1873 C   0  0  0  0  0  0  0  0  0  0  0  0
   -0.9900    1.1500   -1.4047 S   0  0  0  0  0  0  0  0  0  0  0  0
    0.7227   -0.1200    0.0963 N   0  0  0  0  0  0  0  0  0  0  0  0
    1.7837    0.4766   -0.6034 C   0  0  0  0  0  0  0  0  0  0  0  0
    1.5420    1.2742   -1.5438 O   0  0  0  0  0  0  0  0  0  0  0  0
    3.2015    0.1997   -0.2731 C   0  0  0  0  0  0  0  0  0  0  0  0
    4.2196    0.7918   -0.9677 C   0  0  0  0  0  0  0  0  0  0  0  0
    5.5142    0.5167   -0.6399 C   0  0  0  0  0  0  0  0  0  0  0  0
    5.8334   -0.3456    0.3768 C   0  0  0  0  0  0  0  0  0  0  0  0
    4.8257   -0.9568    1.0938 C   0  0  0  0  0  0  0  0  0  0  0  0
    3.5228   -0.6651    0.7464 C   0  0  0  0  0  0  0  0  0  0  0  0
  1  2  1  0
  2  3  2  0
  3  4  1  0
  4  5  1  0
  5  6  1  0
  5  7  2  0
  7  8  1  0
  8  9  1  0
  9 10  2  0
  9 11  1  0
 11 12  1  0
 12 13  2  0
 12 14  1  0
 14 15  2  0
 15 16  1  0
 16 17  2  0
 17 18  1  0
 18 19  2  0
  7  2  1  0
 19 14  1  0
M  END
>  <zinc_id>  (1) 
ZINC000000463525

>  <smiles>  (1) 
Cc1n[nH]c(C)c1NC(=S)NC(=O)c1ccccc1

$$$$
