
     RDKit          3D

 32 35  0  0  0  0  0  0  0  0999 V2000
    8.0621    2.1399    0.2128 C   0  0  0  0  0  0  0  0  0  0  0  0
    6.9787    1.1229    0.0720 C   0  0  0  0  0  0  0  0  0  0  0  0
    5.7421    1.4623   -0.4336 C   0  0  0  0  0  0  0  0  0  0  0  0
    4.7696    0.4915   -0.5469 C   0  0  0  0  0  0  0  0  0  0  0  0
    4.9739   -0.8189   -0.1749 C   0  0  0  0  0  0  0  0  0  0  0  0
    3.9294   -1.7673   -0.3176 N   0  0  0  0  0  0  0  0  0  0  0  0
    2.6676   -1.3493   -0.8499 C   0  0  0  0  0  0  0  0  0  0  0  0
    2.5550   -0.1303   -1.1700 O   0  0  0  0  0  0  0  0  0  0  0  0
    1.5386   -2.2964   -1.0213 C   0  0  0  0  0  0  0  0  0  0  0  0
    0.1399   -1.3804   -1.7187 S   0  0  0  0  0  0  0  0  0  0  0  0
   -0.4383   -0.1704   -0.5115 C   0  0  0  0  0  0  0  0  0  0  0  0
   -0.0059    1.0929   -0.3830 N   0  0  0  0  0  0  0  0  0  0  0  0
   -0.6893    1.6170    0.6117 N   0  0  0  0  0  0  0  0  0  0  0  0
   -1.5561    0.6855    1.1145 C   0  0  0  0  0  0  0  0  0  0  0  0
   -2.4812    0.8608    2.2511 C   0  0  0  0  0  0  0  0  0  0  0  0
   -3.6664    1.6841    1.9543 C   0  0  0  0  0  0  0  0  0  0  0  0
   -3.5493    3.0723    2.1117 C   0  0  0  0  0  0  0  0  0  0  0  0
   -4.6121    3.9120    1.8609 C   0  0  0  0  0  0  0  0  0  0  0  0
   -5.8393    3.3969    1.4413 C   0  0  0  0  0  0  0  0  0  0  0  0
   -5.9806    2.0365    1.2789 C   0  0  0  0  0  0  0  0  0  0  0  0
   -4.8903    1.2460    1.5424 C   0  0  0  0  0  0  0  0  0  0  0  0
   -1.4040   -0.4441    0.4122 N   0  0  0  0  0  0  0  0  0  0  0  0
   -2.0466   -1.7350    0.5098 C   0  0  0  0  0  0  0  0  0  0  0  0
   -3.2240   -1.9257   -0.3111 C   0  0  0  0  0  0  0  0  0  0  0  0
   -3.1053   -2.3112   -1.6517 C   0  0  0  0  0  0  0  0  0  0  0  0
   -4.2231   -2.5093   -2.4397 C   0  0  0  0  0  0  0  0  0  0  0  0
   -5.4864   -2.3338   -1.9312 C   0  0  0  0  0  0  0  0  0  0  0  0
   -5.6237   -1.9572   -0.6232 C   0  0  0  0  0  0  0  0  0  0  0  0
   -4.5040   -1.7636    0.1492 C   0  0  0  0  0  0  0  0  0  0  0  0
    6.2153   -1.1433    0.3288 C   0  0  0  0  0  0  0  0  0  0  0  0
    7.2164   -0.1800    0.4536 C   0  0  0  0  0  0  0  0  0  0  0  0
    8.5372   -0.6046    1.0076 C   0  0  0  0  0  0  0  0  0  0  0  0
  1  2  1  0
  2  3  2  0
  3  4  1  0
  4  5  2  0
  5  6  1  0
  6  7  1  0
  7  8  2  0
  7  9  1  0
  9 10  1  0
 10 11  1  0
 11 12  2  0
 12 13  1  0
 13 14  2  0
 14 15  1  0
 15 16  1  0
 16 17  2  0
 17 18  1  0
 18 19  2  0
 19 20  1  0
 20 21  2  0
 14 22  1  0
 22 23  1  0
 23 24  1  0
 24 25  2  0
 25 26  1  0
 26 27  2  0
 27 28  1  0
 28 29  2  0
  5 30  1  0
 30 31  2  0
 31 32  1  0
 31  2  1  0
 22 11  1  0
 29 24  1  0
 21 16  1  0
M  END
>  <zinc_id>  (1) 
ZINC000000925197

>  <smiles>  (1) 
Cc1ccc(NC(=O)CSc2nnc(Cc3ccccc3)n2Cc2ccccc2)cc1C

$$$$
