
     RDKit          3D

 21 24  0  0  0  0  0  0  0  0999 V2000
    2.0525    2.8073    0.2781 O   0  0  0  0  0  0  0  0  0  0  0  0
    1.0523    2.0456    0.1749 C   0  0  0  0  0  0  0  0  0  0  0  0
   -0.1185    2.3043    0.7750 N   0  0  0  0  0  0  0  0  0  0  0  0
   -1.1984    1.4751    0.6592 C   0  0  0  0  0  0  0  0  0  0  0  0
   -2.7820    1.5144    1.2760 S   0  0  0  0  0  0  0  0  0  0  0  0
   -3.3792    0.0708    0.5942 C   0  0  0  0  0  0  0  0  0  0  0  0
   -2.3131   -0.4109   -0.1064 C   0  0  0  0  0  0  0  0  0  0  0  0
   -1.1661    0.3260   -0.0732 C   0  0  0  0  0  0  0  0  0  0  0  0
    0.0810    0.0766   -0.6961 C   0  0  0  0  0  0  0  0  0  0  0  0
    0.2597   -0.9476   -1.4049 O   0  0  0  0  0  0  0  0  0  0  0  0
    1.1065    0.9242   -0.5484 N   0  0  0  0  0  0  0  0  0  0  0  0
    2.3559    0.5995   -1.2194 C   0  0  0  0  0  0  0  0  0  0  0  0
    3.2534   -0.2151   -0.3831 C   0  0  0  0  0  0  0  0  0  0  0  0
    3.2730   -1.5905   -0.3441 C   0  0  0  0  0  0  0  0  0  0  0  0
    4.2622   -1.9473    0.5692 C   0  0  0  0  0  0  0  0  0  0  0  0
    4.7820   -0.7714    1.0283 C   0  0  0  0  0  0  0  0  0  0  0  0
    4.1573    0.2026    0.4400 O   0  0  0  0  0  0  0  0  0  0  0  0
   -2.4817   -1.7359   -0.8745 C   0  0  0  0  0  0  0  0  0  0  0  0
   -3.8953   -2.1349   -0.8922 C   0  0  0  0  0  0  0  0  0  0  0  0
   -4.5717   -2.0359    0.4600 C   0  0  0  0  0  0  0  0  0  0  0  0
   -4.7299   -0.5571    0.7007 C   0  0  0  0  0  0  0  0  0  0  0  0
  1  2  2  0
  2  3  1  0
  3  4  1  0
  4  5  1  0
  5  6  1  0
  6  7  2  0
  7  8  1  0
  8  9  1  0
  9 10  2  0
  9 11  1  0
 11 12  1  0
 12 13  1  0
 13 14  2  0
 14 15  1  0
 15 16  2  0
 16 17  1  0
  7 18  1  0
 18 19  1  0
 19 20  1  0
 20 21  1  0
 11  2  1  0
 17 13  1  0
  8  4  2  0
 21  6  1  0
M  END
>  <zinc_id>  (1) 
ZINC000001052591

>  <smiles>  (1) 
O=c1[nH]c2sc3c(c2c(=O)n1Cc1ccco1)CCCC3

$$$$
