
     RDKit          3D

 20 23  0  0  0  0  0  0  0  0999 V2000
   -2.1983   -3.3950    0.1194 C   0  0  0  0  0  0  0  0  0  0  0  0
   -3.4463   -3.1061    0.5935 C   0  0  0  0  0  0  0  0  0  0  0  0
   -3.3889   -1.4109    0.7491 S   0  0  0  0  0  0  0  0  0  0  0  0
   -1.7741   -1.1297    0.2036 C   0  0  0  0  0  0  0  0  0  0  0  0
   -1.1041    0.1844    0.0773 C   0  0  0  0  0  0  0  0  0  0  0  0
   -1.7191    1.3750    0.2787 N   0  0  0  0  0  0  0  0  0  0  0  0
   -0.8843    2.3989    0.0531 C   0  0  0  0  0  0  0  0  0  0  0  0
   -1.0305    3.7856    0.1200 C   0  0  0  0  0  0  0  0  0  0  0  0
    0.0088    4.5685   -0.1699 N   0  0  0  0  0  0  0  0  0  0  0  0
    1.1754    4.0159   -0.5203 C   0  0  0  0  0  0  0  0  0  0  0  0
    1.2940    2.6598   -0.5787 C   0  0  0  0  0  0  0  0  0  0  0  0
    0.2797    1.8474   -0.2966 N   0  0  0  0  0  0  0  0  0  0  0  0
    0.1778    0.4726   -0.2904 C   0  0  0  0  0  0  0  0  0  0  0  0
    1.2412   -0.3747   -0.5725 N   0  0  0  0  0  0  0  0  0  0  0  0
    1.3959   -1.7725   -0.4979 C   0  0  0  0  0  0  0  0  0  0  0  0
    2.6967   -2.2489   -1.1487 C   0  0  0  0  0  0  0  0  0  0  0  0
    3.7897   -1.9625   -0.1499 C   0  0  0  0  0  0  0  0  0  0  0  0
    3.1140   -1.4568    1.1063 C   0  0  0  0  0  0  0  0  0  0  0  0
    1.7329   -2.0670    0.9977 C   0  0  0  0  0  0  0  0  0  0  0  0
   -1.3603   -2.3839   -0.0738 C   0  0  0  0  0  0  0  0  0  0  0  0
  1  2  2  0
  2  3  1  0
  3  4  1  0
  4  5  1  0
  5  6  1  0
  6  7  2  0
  7  8  1  0
  8  9  2  0
  9 10  1  0
 10 11  2  0
 11 12  1  0
 12 13  1  0
 13 14  1  0
 14 15  1  0
 15 16  1  0
 16 17  1  0
 17 18  1  0
 18 19  1  0
  4 20  2  0
 20  1  1  0
 13  5  2  0
 19 15  1  0
 12  7  1  0
M  END
>  <zinc_id>  (1) 
ZINC000003896507

>  <smiles>  (1) 
c1csc(-c2nc3cnccn3c2NC2CCCC2)c1

$$$$
