
     RDKit          3D

 19 20  0  0  0  0  0  0  0  0999 V2000
    4.2195    1.6299    1.3598 C   0  0  0  0  0  0  0  0  0  0  0  0
    4.1201    0.9051    0.0135 C   0  0  0  0  0  0  0  0  0  0  0  0
    3.8981    1.9376   -1.1027 C   0  0  0  0  0  0  0  0  0  0  0  0
    5.3584    0.1002   -0.2809 C   0  0  0  0  0  0  0  0  0  0  0  0
    2.9011    0.0318    0.0270 C   0  0  0  0  0  0  0  0  0  0  0  0
    2.7852   -1.3354    0.0313 C   0  0  0  0  0  0  0  0  0  0  0  0
    1.4162   -1.6252    0.0381 C   0  0  0  0  0  0  0  0  0  0  0  0
    0.8220   -2.9410    0.0441 N   0  0  0  0  0  0  0  0  0  0  0  0
    0.7807   -0.4668    0.0359 N   0  0  0  0  0  0  0  0  0  0  0  0
   -0.6315   -0.2707    0.0305 C   0  0  0  0  0  0  0  0  0  0  0  0
   -1.2913    0.0327   -1.1443 C   0  0  0  0  0  0  0  0  0  0  0  0
   -2.6502    0.2504   -1.1533 C   0  0  0  0  0  0  0  0  0  0  0  0
   -3.4265    0.1804   -0.0059 C   0  0  0  0  0  0  0  0  0  0  0  0
   -4.8366    0.4250   -0.0521 N   0  0  0  0  0  4  0  0  0  0  0  0
   -5.5038    0.3596    0.9947 O   0  0  0  0  0  0  0  0  0  0  0  0
   -5.4679    0.7198   -1.2084 O   0  0  0  0  0  1  0  0  0  0  0  0
   -2.7616   -0.1255    1.1649 C   0  0  0  0  0  0  0  0  0  0  0  0
   -1.3966   -0.3439    1.1775 C   0  0  0  0  0  0  0  0  0  0  0  0
    1.6646    0.5362    0.0303 N   0  0  0  0  0  0  0  0  0  0  0  0
  1  2  1  0
  2  3  1  0
  2  4  1  0
  2  5  1  0
  5  6  1  0
  6  7  2  0
  7  8  1  0
  7  9  1  0
  9 10  1  0
 10 11  2  0
 11 12  1  0
 12 13  2  0
 13 14  1  0
 14 15  2  0
 14 16  1  0
 13 17  1  0
 17 18  2  0
  9 19  1  0
 19  5  2  0
 18 10  1  0
M  CHG  2  14   1  16  -1
M  END
>  <zinc_id>  (1) 
ZINC000001126443

>  <smiles>  (1) 
CC(C)(C)c1cc(N)n(-c2ccc([N+](=O)[O-])cc2)n1

$$$$
