
     RDKit          3D

 18 19  0  0  0  0  0  0  0  0999 V2000
    5.5237    1.5326    1.5522 C   0  0  0  0  0  0  0  0  0  0  0  0
    4.1013    1.2392    1.1610 C   0  0  0  0  0  0  0  0  0  0  0  0
    3.9548   -0.2665    0.9590 C   0  0  0  0  0  0  0  0  0  0  0  0
    2.5550   -0.5861    0.5669 C   0  0  0  0  0  0  0  0  0  0  0  0
    2.2507   -0.5906   -0.7402 N   0  0  0  0  0  0  0  0  0  0  0  0
    1.0363   -0.8582   -1.2455 C   0  0  0  0  0  0  0  0  0  0  0  0
    0.0251   -1.1512   -0.3438 C   0  0  0  0  0  0  0  0  0  0  0  0
   -1.3646   -1.4532   -0.8313 C   0  0  0  0  0  0  0  0  0  0  0  0
   -2.1825   -0.2692   -0.6220 N   0  0  0  0  0  4  0  0  0  0  0  0
   -2.8565   -0.0912    0.5185 C   0  0  0  0  0  0  0  0  0  0  0  0
   -3.6296    1.0084    0.7369 C   0  0  0  0  0  0  0  0  0  0  0  0
   -3.7477    1.9834   -0.2112 C   0  0  0  0  0  0  0  0  0  0  0  0
   -3.0477    1.7941   -1.3898 C   0  0  0  0  0  0  0  0  0  0  0  0
   -2.2858    0.6858   -1.5765 C   0  0  0  0  0  0  0  0  0  0  0  0
   -1.5325    0.4975   -2.8682 C   0  0  0  0  0  0  0  0  0  0  0  0
    0.3386   -1.1466    1.0001 C   0  0  0  0  0  0  0  0  0  0  0  0
   -0.7266   -1.4613    1.8934 N   0  0  0  0  0  0  0  0  0  0  0  0
    1.5880   -0.8668    1.4404 N   0  0  0  0  0  0  0  0  0  0  0  0
  1  2  1  0
  2  3  1  0
  3  4  1  0
  4  5  2  0
  5  6  1  0
  6  7  2  0
  7  8  1  0
  8  9  1  0
  9 10  2  0
 10 11  1  0
 11 12  2  0
 12 13  1  0
 13 14  2  0
 14 15  1  0
  7 16  1  0
 16 17  1  0
 16 18  2  0
 18  4  1  0
 14  9  1  0
M  CHG  1   9   1
M  END
>  <zinc_id>  (1) 
ZINC000000000934

>  <smiles>  (1) 
CCCc1ncc(C[n+]2ccccc2C)c(N)n1

$$$$
