
     RDKit          3D

 33 36  0  0  0  0  0  0  0  0999 V2000
   -1.8568   -3.5768    1.9104 C   0  0  0  0  0  0  0  0  0  0  0  0
   -2.2991   -2.3597    1.3159 O   0  0  0  0  0  0  0  0  0  0  0  0
   -3.6183   -2.3193    0.7981 C   0  0  0  0  0  0  0  0  0  0  0  0
   -4.4504   -3.4119    0.8603 C   0  0  0  0  0  0  0  0  0  0  0  0
   -5.7715   -3.4148    0.3690 C   0  0  0  0  0  0  0  0  0  0  0  0
   -6.1589   -2.2250   -0.1847 C   0  0  0  0  0  0  0  0  0  0  0  0
   -5.3440   -1.1276   -0.2558 C   0  0  0  0  0  0  0  0  0  0  0  0
   -4.0252   -1.1360    0.2404 C   0  0  0  0  0  0  0  0  0  0  0  0
   -3.1966    0.0523    0.1132 C   0  0  0  0  0  0  0  0  0  0  0  0
   -1.8066   -0.0275    0.2028 C   0  0  0  0  0  0  0  0  0  0  0  0
   -1.0262    1.0751   -0.0346 C   0  0  0  0  0  0  0  0  0  0  0  0
    0.4604    0.9929   -0.0911 C   0  0  0  0  0  0  0  0  0  0  0  0
    1.1122    0.3333    0.7269 O   0  0  0  0  0  0  0  0  0  0  0  0
    1.0430    1.6850   -1.1125 N   0  0  0  0  0  0  0  0  0  0  0  0
    2.4253    1.9133   -1.5938 C   0  0  1  0  0  0  0  0  0  0  0  0
    2.8584    3.1249   -0.5611 C   0  0  0  0  0  0  0  0  0  0  0  0
    3.2742    0.7819   -0.9783 C   0  0  0  0  0  0  0  0  0  0  0  0
    2.8385   -0.5189   -0.9203 C   0  0  0  0  0  0  0  0  0  0  0  0
    3.6437   -1.5199   -0.3548 C   0  0  0  0  0  0  0  0  0  0  0  0
    4.8964   -1.2358    0.1596 C   0  0  0  0  0  0  0  0  0  0  0  0
    5.7399   -2.2910    0.7989 C   0  0  0  0  0  0  0  0  0  0  0  0
    6.1664   -1.8536    2.1954 C   0  0  0  0  0  0  0  0  0  0  0  0
    6.9943   -2.6055    0.0248 C   0  0  0  0  0  0  0  0  0  0  0  0
    4.9881   -3.5736    0.9510 C   0  0  0  0  0  0  0  0  0  0  0  0
    5.3194    0.0750    0.0911 C   0  0  0  0  0  0  0  0  0  0  0  0
    4.5202    1.0745   -0.4704 C   0  0  0  0  0  0  0  0  0  0  0  0
   -1.5908    2.2867   -0.3614 C   0  0  0  0  0  0  0  0  0  0  0  0
   -0.7633    3.4058   -0.5862 C   0  0  0  0  0  0  0  0  0  0  0  0
   -1.4108    4.5703   -0.8892 C   0  0  0  0  0  0  0  0  0  0  0  0
   -2.7530    4.6915   -0.9772 C   0  0  0  0  0  0  0  0  0  0  0  0
   -3.5234    3.5508   -0.7462 C   0  0  0  0  0  0  0  0  0  0  0  0
   -2.9605    2.3427   -0.4369 C   0  0  0  0  0  0  0  0  0  0  0  0
   -3.7251    1.2409   -0.2032 N   0  0  0  0  0  0  0  0  0  0  0  0
  1  2  1  0
  2  3  1  0
  3  4  2  0
  4  5  1  0
  5  6  2  0
  6  7  1  0
  7  8  2  0
  8  9  1  0
  9 10  2  0
 10 11  1  0
 11 12  1  0
 12 13  2  0
 12 14  1  0
 14 15  1  0
 15 16  1  1
 15 17  1  0
 17 18  2  0
 18 19  1  0
 19 20  2  0
 20 21  1  0
 21 22  1  0
 21 23  1  0
 21 24  1  0
 20 25  1  0
 25 26  2  0
 11 27  2  0
 27 28  1  0
 28 29  2  0
 29 30  1  0
 30 31  2  0
 31 32  1  0
 32 33  2  0
  8  3  1  0
 33  9  1  0
 26 17  1  0
 32 27  1  0
M  END
>  <zinc_id>  (1) 
ZINC000002785395

>  <smiles>  (1) 
COc1ccccc1-c1cc(C(=O)N[C@@H](C)c2ccc(C(C)(C)C)cc2)c2ccccc2n1

$$$$
