
     RDKit          3D

 31 34  0  0  0  0  0  0  0  0999 V2000
   -4.2899   -5.9979   -0.8549 C   0  0  0  0  0  0  0  0  0  0  0  0
   -3.8006   -4.5982   -0.9460 C   0  0  0  0  0  0  0  0  0  0  0  0
   -4.1382   -3.6991    0.0318 C   0  0  0  0  0  0  0  0  0  0  0  0
   -3.7144   -2.4049   -0.0071 C   0  0  0  0  0  0  0  0  0  0  0  0
   -2.9172   -1.9310   -1.0423 C   0  0  0  0  0  0  0  0  0  0  0  0
   -2.3490   -0.2636   -1.1277 S   0  0  0  0  0  0  0  0  0  0  0  0
   -0.7743   -0.0933   -0.2951 C   0  0  0  0  0  0  0  0  0  0  0  0
   -0.1046    1.0455   -0.1972 C   0  0  0  0  0  0  0  0  0  0  0  0
   -0.5131    2.3037   -0.7260 N   0  0  0  0  0  0  0  0  0  0  0  0
   -0.4055    3.5047    0.0294 C   0  0  0  0  0  0  0  0  0  0  0  0
    0.0911    3.5488    1.3049 C   0  0  0  0  0  0  0  0  0  0  0  0
    0.1626    4.7558    1.9713 C   0  0  0  0  0  0  0  0  0  0  0  0
   -0.2590    5.9257    1.3739 C   0  0  0  0  0  0  0  0  0  0  0  0
   -0.1816    7.2406    2.0987 C   0  0  0  0  0  0  0  0  0  0  0  0
   -0.7557    5.8761    0.0958 C   0  0  0  0  0  0  0  0  0  0  0  0
   -0.8217    4.6813   -0.5517 C   0  0  0  0  0  0  0  0  0  0  0  0
   -1.3622    4.6546   -1.9315 C   0  0  0  0  0  0  0  0  0  0  0  0
    1.1288    0.7592    0.5558 C   0  0  0  0  0  0  0  0  0  0  0  0
    2.0072    1.6089    0.8389 O   0  0  0  0  0  0  0  0  0  0  0  0
    1.1623   -0.6116    0.9037 N   0  0  0  0  0  0  0  0  0  0  0  0
    2.1768   -1.3105    1.6343 C   0  0  0  0  0  0  0  0  0  0  0  0
    3.2397   -1.8806    0.8020 C   0  0  0  0  0  0  0  0  0  0  0  0
    4.3711   -1.1521    0.5025 C   0  0  0  0  0  0  0  0  0  0  0  0
    5.3922   -1.6628   -0.2808 C   0  0  0  0  0  0  0  0  0  0  0  0
    5.3076   -2.9283   -0.7902 C   0  0  0  0  0  0  0  0  0  0  0  0
    4.1876   -3.6792   -0.5067 C   0  0  0  0  0  0  0  0  0  0  0  0
    3.1741   -3.1547    0.2785 C   0  0  0  0  0  0  0  0  0  0  0  0
   -0.0250   -1.1669    0.3784 C   0  0  0  0  0  0  0  0  0  0  0  0
   -0.3916   -2.3617    0.4621 O   0  0  0  0  0  0  0  0  0  0  0  0
   -2.5872   -2.8528   -2.0193 C   0  0  0  0  0  0  0  0  0  0  0  0
   -3.0105   -4.1557   -1.9853 C   0  0  0  0  0  0  0  0  0  0  0  0
  1  2  1  0
  2  3  2  0
  3  4  1  0
  4  5  2  0
  5  6  1  0
  6  7  1  0
  7  8  2  0
  8  9  1  0
  9 10  1  0
 10 11  2  0
 11 12  1  0
 12 13  2  0
 13 14  1  0
 13 15  1  0
 15 16  2  0
 16 17  1  0
  8 18  1  0
 18 19  2  0
 18 20  1  0
 20 21  1  0
 21 22  1  0
 22 23  2  0
 23 24  1  0
 24 25  2  0
 25 26  1  0
 26 27  2  0
 20 28  1  0
 28 29  2  0
  5 30  1  0
 30 31  2  0
 31  2  1  0
 28  7  1  0
 16 10  1  0
 27 22  1  0
M  END
>  <zinc_id>  (1) 
ZINC000001932152

>  <smiles>  (1) 
Cc1ccc(SC2=C(Nc3ccc(C)cc3C)C(=O)N(Cc3ccccc3)C2=O)cc1

$$$$
