
     RDKit          3D

 31 34  0  0  0  0  0  0  0  0999 V2000
    6.5019   -0.3590    2.8212 C   0  0  0  0  0  0  0  0  0  0  0  0
    7.7861    0.3520    2.4546 C   0  0  0  0  0  0  0  0  0  0  0  0
    7.7204    0.9659    1.0715 C   0  0  0  0  0  0  0  0  0  0  0  0
    6.5596    1.9669    1.1043 C   0  0  0  0  0  0  0  0  0  0  0  0
    6.3986    2.6451   -0.2334 C   0  0  0  0  0  0  0  0  0  0  0  0
    6.1134    1.6465   -1.3298 C   0  0  0  0  0  0  0  0  0  0  0  0
    4.8947    0.8989   -1.0824 N   0  0  0  0  0  0  0  0  0  0  0  0
    3.6292    1.4938   -0.9518 C   0  0  0  0  0  0  0  0  0  0  0  0
    3.4997    2.7308   -1.0469 O   0  0  0  0  0  0  0  0  0  0  0  0
    2.4618    0.6773   -0.7055 C   0  0  0  0  0  0  0  0  0  0  0  0
    2.6027   -0.6897   -0.6081 C   0  0  0  0  0  0  0  0  0  0  0  0
    1.5100   -1.4784   -0.3758 C   0  0  0  0  0  0  0  0  0  0  0  0
    0.2329   -0.9694   -0.2284 C   0  0  0  0  0  0  0  0  0  0  0  0
   -0.8351   -1.7459   -0.0012 N   0  0  0  0  0  0  0  0  0  0  0  0
   -2.0791   -1.2235    0.1397 C   0  0  0  0  0  0  0  0  0  0  0  0
   -3.2433   -2.0677    0.3864 C   0  0  0  0  0  0  0  0  0  0  0  0
   -3.6370   -3.0382   -0.5095 C   0  0  0  0  0  0  0  0  0  0  0  0
   -4.7276   -3.8552   -0.3159 C   0  0  0  0  0  0  0  0  0  0  0  0
   -5.4568   -3.6819    0.8420 C   0  0  0  0  0  0  0  0  0  0  0  0
   -5.0977   -2.7210    1.7676 C   0  0  0  0  0  0  0  0  0  0  0  0
   -3.9838   -1.9091    1.5377 C   0  0  0  0  0  0  0  0  0  0  0  0
   -2.2108    0.1478    0.0406 C   0  0  0  0  0  0  0  0  0  0  0  0
   -3.5477    0.7166    0.1917 C   0  0  0  0  0  0  0  0  0  0  0  0
   -4.5516    0.4200   -0.6769 C   0  0  0  0  0  0  0  0  0  0  0  0
   -5.7954    0.9830   -0.4897 C   0  0  0  0  0  0  0  0  0  0  0  0
   -6.0554    1.8341    0.5452 C   0  0  0  0  0  0  0  0  0  0  0  0
   -5.0363    2.1279    1.4170 C   0  0  0  0  0  0  0  0  0  0  0  0
   -3.7896    1.5704    1.2387 C   0  0  0  0  0  0  0  0  0  0  0  0
   -1.1464    0.9371   -0.1871 N   0  0  0  0  0  0  0  0  0  0  0  0
    0.0901    0.4173   -0.3271 C   0  0  0  0  0  0  0  0  0  0  0  0
    1.1925    1.2076   -0.5610 C   0  0  0  0  0  0  0  0  0  0  0  0
  1  2  1  0
  2  3  1  0
  3  4  1  0
  4  5  1  0
  5  6  1  0
  6  7  1  0
  7  8  1  0
  8  9  2  0
  8 10  1  0
 10 11  2  0
 11 12  1  0
 12 13  2  0
 13 14  1  0
 14 15  2  0
 15 16  1  0
 16 17  2  0
 17 18  1  0
 18 19  2  0
 19 20  1  0
 20 21  2  0
 15 22  1  0
 22 23  1  0
 23 24  2  0
 24 25  1  0
 25 26  2  0
 26 27  1  0
 27 28  2  0
 22 29  2  0
 29 30  1  0
 30 31  2  0
 31 10  1  0
 30 13  1  0
 21 16  1  0
 28 23  1  0
M  END
>  <zinc_id>  (1) 
ZINC000003033245

>  <smiles>  (1) 
CCCCCCNC(=O)c1ccc2nc(-c3ccccc3)c(-c3ccccc3)nc2c1

$$$$
