
     RDKit          3D

 22 25  0  0  0  0  0  0  0  0999 V2000
    2.3427   -2.7185   -0.4031 C   0  0  0  0  0  0  0  0  0  0  0  0
    2.0959   -1.3363   -0.3239 O   0  0  0  0  0  0  0  0  0  0  0  0
    3.0735   -0.3650   -0.2751 C   0  0  0  0  0  0  0  0  0  0  0  0
    4.4377   -0.6445   -0.2990 C   0  0  0  0  0  0  0  0  0  0  0  0
    5.3402    0.3667   -0.2476 C   0  0  0  0  0  0  0  0  0  0  0  0
    4.9142    1.6706   -0.1717 C   0  0  0  0  0  0  0  0  0  0  0  0
    3.5445    1.9646   -0.1470 C   0  0  0  0  0  0  0  0  0  0  0  0
    2.6886    0.8911   -0.2022 C   0  0  0  0  0  0  0  0  0  0  0  0
    1.1201    1.3200   -0.1688 C   0  0  1  0  0  0  0  0  0  0  0  0
    0.6079    0.3518   -1.3520 N   0  0  0  0  0  0  0  0  0  0  0  0
   -0.7647    0.1093   -1.3273 C   0  0  0  0  0  0  0  0  0  0  0  0
   -1.3900    0.0673   -2.4105 O   0  0  0  0  0  0  0  0  0  0  0  0
   -1.4519   -0.0930   -0.0200 C   0  0  0  0  0  0  0  0  0  0  0  0
   -0.6416   -0.0183    1.0629 C   0  0  0  0  0  0  0  0  0  0  0  0
   -1.7159   -0.2970    2.3623 S   0  0  0  0  0  0  0  0  0  0  0  0
   -3.1694   -0.5018    1.4934 C   0  0  0  0  0  0  0  0  0  0  0  0
   -2.7588   -0.3420    0.1887 C   0  0  0  0  0  0  0  0  0  0  0  0
   -3.9211   -0.4865   -0.7928 C   0  0  0  0  0  0  0  0  0  0  0  0
   -4.9519    0.5239   -0.3057 C   0  0  0  0  0  0  0  0  0  0  0  0
   -5.5309    0.0894    1.0049 C   0  0  0  0  0  0  0  0  0  0  0  0
   -4.6183   -0.7840    1.8139 C   0  0  0  0  0  0  0  0  0  0  0  0
    0.7491    0.2323    0.9493 N   0  0  0  0  0  0  0  0  0  0  0  0
  1  2  1  0
  2  3  1  0
  3  4  2  0
  4  5  1  0
  5  6  2  0
  6  7  1  0
  7  8  2  0
  9  8  1  6
  9 10  1  0
 10 11  1  0
 11 12  2  0
 11 13  1  0
 13 14  2  0
 14 15  1  0
 15 16  1  0
 16 17  2  0
 17 18  1  0
 18 19  1  0
 19 20  1  0
 20 21  1  0
 14 22  1  0
  8  3  1  0
 22  9  1  0
 17 13  1  0
 21 16  1  0
M  END
>  <zinc_id>  (1) 
ZINC000000565715

>  <smiles>  (1) 
COc1ccccc1[C@H]1NC(=O)c2c(sc3c2CCCC3)N1

$$$$
