
     RDKit          3D

 20 22  0  0  0  0  0  0  0  0999 V2000
    0.9372   -2.6917    2.3100 N   0  0  0  0  0  0  0  0  0  0  0  0
    1.6790   -1.6082    1.6892 C   0  0  0  0  0  0  0  0  0  0  0  0
    3.2318   -1.0190    2.0791 S   0  0  0  0  0  0  0  0  0  0  0  0
    3.3537    0.2136    0.9179 C   0  0  0  0  0  0  0  0  0  0  0  0
    2.1718    0.1367    0.2480 C   0  0  0  0  0  0  0  0  0  0  0  0
    1.2908   -0.8090    0.6408 C   0  0  0  0  0  0  0  0  0  0  0  0
   -0.0502   -1.0377    0.0202 C   0  0  0  0  0  0  0  0  0  0  0  0
   -0.8231   -1.9193    0.4148 O   0  0  0  0  0  0  0  0  0  0  0  0
   -0.4630   -0.2252   -1.0567 N   0  0  0  0  0  0  0  0  0  0  0  0
   -1.7025   -0.3147   -1.7534 C   0  0  0  0  0  0  0  0  0  0  0  0
   -2.8541    0.2428   -1.0207 C   0  0  0  0  0  0  0  0  0  0  0  0
   -4.0985    0.2333   -1.6017 C   0  0  0  0  0  0  0  0  0  0  0  0
   -5.2080    0.7491   -0.9435 C   0  0  0  0  0  0  0  0  0  0  0  0
   -5.0741    1.2857    0.3205 C   0  0  0  0  0  0  0  0  0  0  0  0
   -3.8353    1.2956    0.8997 C   0  0  0  0  0  0  0  0  0  0  0  0
   -2.7197    0.7758    0.2355 C   0  0  0  0  0  0  0  0  0  0  0  0
    2.0283    1.1579   -0.8669 C   0  0  0  0  0  0  0  0  0  0  0  0
    3.2393    1.0319   -1.7310 C   0  0  0  0  0  0  0  0  0  0  0  0
    4.5382    1.2392   -0.9970 C   0  0  0  0  0  0  0  0  0  0  0  0
    4.3583    1.2634    0.4995 C   0  0  0  0  0  0  0  0  0  0  0  0
  1  2  1  0
  2  3  1  0
  3  4  1  0
  4  5  2  0
  5  6  1  0
  6  7  1  0
  7  8  2  0
  7  9  1  0
  9 10  1  0
 10 11  1  0
 11 12  2  0
 12 13  1  0
 13 14  2  0
 14 15  1  0
 15 16  2  0
  5 17  1  0
 17 18  1  0
 18 19  1  0
 19 20  1  0
  6  2  2  0
 16 11  1  0
 20  4  1  0
M  END
>  <zinc_id>  (1) 
ZINC000000309912

>  <smiles>  (1) 
Nc1sc2c(c1C(=O)NCc1ccccc1)CCCC2

$$$$
