
     RDKit          3D

 19 20  0  0  0  0  0  0  0  0999 V2000
   -6.8099    0.0816    0.5029 C   0  0  0  0  0  0  0  0  0  0  0  0
   -5.3379   -0.0031    0.3866 C   0  0  0  0  0  0  0  0  0  0  0  0
   -4.5557    0.7637    1.2167 C   0  0  0  0  0  0  0  0  0  0  0  0
   -3.1977    0.6967    1.1217 C   0  0  0  0  0  0  0  0  0  0  0  0
   -2.5411   -0.1155    0.2189 C   0  0  0  0  0  0  0  0  0  0  0  0
   -1.1424   -0.2040    0.0995 N   0  0  0  0  0  0  0  0  0  0  0  0
   -0.3342    0.5752    0.9428 C   0  0  0  0  0  0  0  0  0  0  0  0
   -0.9734    1.5828    2.0601 S   0  0  0  0  0  0  0  0  0  0  0  0
    1.1025    0.5462    0.8881 N   0  0  0  0  0  0  0  0  0  0  0  0
    1.8179   -0.2663   -0.0159 C   0  0  0  0  0  0  0  0  0  0  0  0
    1.1549   -0.9909   -0.8015 O   0  0  0  0  0  0  0  0  0  0  0  0
    3.2737   -0.3072   -0.0839 C   0  0  0  0  0  0  0  0  0  0  0  0
    4.0605   -1.0613   -0.9250 C   0  0  0  0  0  0  0  0  0  0  0  0
    5.3962   -0.7834   -0.6409 C   0  0  0  0  0  0  0  0  0  0  0  0
    5.3857    0.1213    0.3532 N   0  0  0  0  0  0  0  0  0  0  0  0
    6.6103    0.6807    0.9484 C   0  0  0  0  0  0  0  0  0  0  0  0
    4.1395    0.3906    0.6690 N   0  0  0  0  0  0  0  0  0  0  0  0
   -3.3427   -0.8836   -0.6123 C   0  0  0  0  0  0  0  0  0  0  0  0
   -4.7063   -0.8236   -0.5248 C   0  0  0  0  0  0  0  0  0  0  0  0
  1  2  1  0
  2  3  2  0
  3  4  1  0
  4  5  2  0
  5  6  1  0
  6  7  1  0
  7  8  2  0
  7  9  1  0
  9 10  1  0
 10 11  2  0
 10 12  1  0
 12 13  1  0
 13 14  2  0
 14 15  1  0
 15 16  1  0
 15 17  1  0
  5 18  1  0
 18 19  2  0
 19  2  1  0
 17 12  2  0
M  END
>  <zinc_id>  (1) 
ZINC000002806599

>  <smiles>  (1) 
Cc1ccc(NC(=S)NC(=O)c2ccn(C)n2)cc1

$$$$
