
     RDKit          3D

 33 37  0  0  0  0  0  0  0  0999 V2000
   -3.5578    2.7188    1.0179 C   0  0  0  0  0  0  0  0  0  0  0  0
   -3.0902    1.3247    0.8551 C   0  0  0  0  0  0  0  0  0  0  0  0
   -1.7469    1.0259    0.5990 C   0  0  0  0  0  0  0  0  0  0  0  0
   -1.3362   -0.2791    0.4595 C   0  0  0  0  0  0  0  0  0  0  0  0
    0.0340   -0.6221    0.1963 N   0  0  0  0  0  0  0  0  0  0  0  0
    0.3479   -1.9995    0.0704 C   0  0  0  0  0  0  0  0  0  0  0  0
   -0.5361   -3.0053    0.1781 N   0  0  0  0  0  0  0  0  0  0  0  0
   -0.2075   -4.3019    0.0536 C   0  0  0  0  0  0  0  0  0  0  0  0
    1.0693   -4.6217   -0.1917 N   0  0  0  0  0  0  0  0  0  0  0  0
    2.0257   -3.6898   -0.3162 C   0  0  0  0  0  0  0  0  0  0  0  0
    3.3481   -4.0096   -0.5696 C   0  0  0  0  0  0  0  0  0  0  0  0
    4.2415   -2.9727   -0.6775 C   0  0  0  0  0  0  0  0  0  0  0  0
    3.9027   -1.6445   -0.5495 C   0  0  0  0  0  0  0  0  0  0  0  0
    4.9208   -0.6031   -0.6796 C   0  0  0  0  0  0  0  0  0  0  0  0
    5.7576    0.2243   -0.7918 C   0  0  0  0  0  0  0  0  0  0  0  0
    6.8797    1.2847   -0.9532 C   0  0  2  0  0  0  0  0  0  0  0  0
    6.9084    1.7632    0.5999 C   0  0  0  0  0  0  0  0  0  0  0  0
    6.7790    3.2392    0.6581 C   0  0  0  0  0  0  0  0  0  0  0  0
    5.2874    3.5158    0.5571 C   0  0  0  0  0  0  0  0  0  0  0  0
    4.8393    2.6156   -0.5151 N   0  0  0  0  0  0  0  0  0  0  0  0
    5.9020    2.4712   -1.4812 C   0  0  0  0  0  0  0  0  0  0  0  0
    2.5871   -1.3301   -0.2976 C   0  0  0  0  0  0  0  0  0  0  0  0
    1.6621   -2.3399   -0.1827 C   0  0  0  0  0  0  0  0  0  0  0  0
   -2.3202   -1.2503    0.5871 C   0  0  0  0  0  0  0  0  0  0  0  0
   -3.6247   -0.9815    0.8346 C   0  0  0  0  0  0  0  0  0  0  0  0
   -4.0178    0.3163    0.9705 C   0  0  0  0  0  0  0  0  0  0  0  0
   -5.3526    0.5711    1.2232 O   0  0  0  0  0  0  0  0  0  0  0  0
   -6.0542    1.3242    0.2942 C   0  0  0  0  0  0  0  0  0  0  0  0
   -5.4925    1.7908   -0.8738 C   0  0  0  0  0  0  0  0  0  0  0  0
   -6.1757    2.5411   -1.8086 C   0  0  0  0  0  0  0  0  0  0  0  0
   -7.5003    2.8619   -1.5942 C   0  0  0  0  0  0  0  0  0  0  0  0
   -8.0841    2.4060   -0.4324 C   0  0  0  0  0  0  0  0  0  0  0  0
   -7.3954    1.6561    0.4984 C   0  0  0  0  0  0  0  0  0  0  0  0
  1  2  1  0
  2  3  2  0
  3  4  1  0
  4  5  1  0
  5  6  1  0
  6  7  2  0
  7  8  1  0
  8  9  2  0
  9 10  1  0
 10 11  2  0
 11 12  1  0
 12 13  2  0
 13 14  1  0
 14 15  3  0
 16 15  1  1
 16 17  1  0
 17 18  1  0
 18 19  1  0
 19 20  1  0
 20 21  1  0
 13 22  1  0
 22 23  2  0
  4 24  2  0
 24 25  1  0
 25 26  2  0
 26 27  1  0
 27 28  1  0
 28 29  2  0
 29 30  1  0
 30 31  2  0
 31 32  1  0
 32 33  2  0
 26  2  1  0
 33 28  1  0
 23  6  1  0
 23 10  1  0
 21 16  1  0
M  END
>  <zinc_id>  (1) 
ZINC000001549093

>  <smiles>  (1) 
Cc1cc(Nc2ncnc3ccc(C#C[C@@H]4CCCNC4)cc23)ccc1Oc1ccccc1

$$$$
