
     RDKit          3D

 32 35  0  0  0  0  0  0  0  0999 V2000
   -4.9359   -4.6028   -2.7573 C   0  0  0  0  0  0  0  0  0  0  0  0
   -4.8351   -4.1266   -1.3449 C   0  0  0  0  0  0  0  0  0  0  0  0
   -3.7167   -3.3155   -1.1161 O   0  0  0  0  0  0  0  0  0  0  0  0
   -3.4374   -2.7698    0.1263 C   0  0  0  0  0  0  0  0  0  0  0  0
   -4.3065   -3.0495    1.1586 C   0  0  0  0  0  0  0  0  0  0  0  0
   -4.0783   -2.5311    2.4237 C   0  0  0  0  0  0  0  0  0  0  0  0
   -2.9738   -1.7457    2.5956 C   0  0  0  0  0  0  0  0  0  0  0  0
   -2.1009   -1.4663    1.5538 C   0  0  0  0  0  0  0  0  0  0  0  0
   -2.3268   -1.9804    0.2980 C   0  0  0  0  0  0  0  0  0  0  0  0
   -1.4289   -1.6842   -0.7420 N   0  0  0  0  0  0  0  0  0  0  0  0
   -0.3010   -0.8564   -0.4876 C   0  0  0  0  0  0  0  0  0  0  0  0
   -0.3381    0.4911   -0.3821 C   0  0  0  0  0  0  0  0  0  0  0  0
   -1.8144    1.4305   -0.5475 S   0  0  0  0  0  0  0  0  0  0  0  0
   -1.6312    3.1409   -0.3584 C   0  0  0  0  0  0  0  0  0  0  0  0
   -0.4777    3.8099   -0.0950 C   0  0  0  0  0  0  0  0  0  0  0  0
   -0.3975    5.1804    0.0449 C   0  0  0  0  0  0  0  0  0  0  0  0
   -1.5477    5.9254   -0.0881 C   0  0  0  0  0  0  0  0  0  0  0  0
   -2.7215    5.2820   -0.3528 C   0  0  0  0  0  0  0  0  0  0  0  0
   -2.7871    3.9322   -0.4882 C   0  0  0  0  0  0  0  0  0  0  0  0
    1.0070    0.9072   -0.1248 C   0  0  0  0  0  0  0  0  0  0  0  0
    1.4555    2.0777    0.0464 O   0  0  0  0  0  0  0  0  0  0  0  0
    1.9012   -0.2385   -0.0715 N   0  0  0  0  0  0  0  0  0  0  0  0
    3.3049   -0.2037    0.1637 C   0  0  0  0  0  0  0  0  0  0  0  0
    3.8814   -0.8388    1.2501 C   0  0  0  0  0  0  0  0  0  0  0  0
    5.2489   -0.7982    1.4699 C   0  0  0  0  0  0  0  0  0  0  0  0
    6.0913   -0.1214    0.6123 C   0  0  0  0  0  0  0  0  0  0  0  0
    7.5593   -0.0923    0.8704 C   0  0  0  0  0  0  0  0  0  0  0  0
    5.5229    0.5123   -0.4703 C   0  0  0  0  0  0  0  0  0  0  0  0
    4.1567    0.4714   -0.6892 C   0  0  0  0  0  0  0  0  0  0  0  0
    3.5396    1.1525   -1.8542 C   0  0  0  0  0  0  0  0  0  0  0  0
    1.0440   -1.3417   -0.3049 C   0  0  0  0  0  0  0  0  0  0  0  0
    1.4434   -2.5501   -0.3388 O   0  0  0  0  0  0  0  0  0  0  0  0
  1  2  1  0
  2  3  1  0
  3  4  1  0
  4  5  2  0
  5  6  1  0
  6  7  2  0
  7  8  1  0
  8  9  2  0
  9 10  1  0
 10 11  1  0
 11 12  2  0
 12 13  1  0
 13 14  1  0
 14 15  2  0
 15 16  1  0
 16 17  2  0
 17 18  1  0
 18 19  2  0
 12 20  1  0
 20 21  2  0
 20 22  1  0
 22 23  1  0
 23 24  2  0
 24 25  1  0
 25 26  2  0
 26 27  1  0
 26 28  1  0
 28 29  2  0
 29 30  1  0
 22 31  1  0
 31 32  2  0
  9  4  1  0
 31 11  1  0
 19 14  1  0
 29 23  1  0
M  END
>  <zinc_id>  (1) 
ZINC000001930008

>  <smiles>  (1) 
CCOc1ccccc1NC1=C(Sc2ccccc2)C(=O)N(c2ccc(C)cc2C)C1=O

$$$$
