
     RDKit          3D

 20 21  0  0  0  0  0  0  0  0999 V2000
    6.4373    0.2124    0.4640 C   0  0  0  0  0  0  0  0  0  0  0  0
    5.5213    0.3131   -0.4943 C   0  0  0  0  0  0  0  0  0  0  0  0
    4.3173   -0.5447   -0.3763 C   0  0  0  0  0  0  0  0  0  0  0  0
    3.1802    0.2884   -0.3111 O   0  0  0  0  0  0  0  0  0  0  0  0
    1.8829   -0.2605   -0.1945 C   0  0  0  0  0  0  0  0  0  0  0  0
    1.8500   -1.5124   -0.1568 O   0  0  0  0  0  0  0  0  0  0  0  0
    0.7432    0.5552   -0.1286 N   0  0  0  0  0  0  0  0  0  0  0  0
   -0.5724    0.0950   -0.0131 C   0  0  0  0  0  0  0  0  0  0  0  0
   -1.6422    1.0006    0.0448 C   0  0  0  0  0  0  0  0  0  0  0  0
   -1.5559    2.4666   -0.0033 C   0  0  0  0  0  0  0  0  0  0  0  0
   -0.4354    3.0208   -0.1063 O   0  0  0  0  0  0  0  0  0  0  0  0
   -2.7151    3.2250    0.0657 O   0  0  0  0  0  0  0  0  0  0  0  0
   -2.7046    4.6378    0.0250 C   0  0  0  0  0  0  0  0  0  0  0  0
   -2.7592    0.2743    0.1523 N   0  0  0  0  0  0  0  0  0  0  0  0
   -2.4770   -1.0376    0.1673 C   0  0  0  0  0  0  0  0  0  0  0  0
   -3.2558   -2.1564    0.2596 C   0  0  0  0  0  0  0  0  0  0  0  0
   -2.7417   -3.4363    0.2556 C   0  0  0  0  0  0  0  0  0  0  0  0
   -1.3629   -3.5593    0.1515 C   0  0  0  0  0  0  0  0  0  0  0  0
   -0.5964   -2.4260    0.0598 C   0  0  0  0  0  0  0  0  0  0  0  0
   -1.1136   -1.1561    0.0644 C   0  0  0  0  0  0  0  0  0  0  0  0
  1  2  2  0
  2  3  1  0
  3  4  1  0
  4  5  1  0
  5  6  2  0
  5  7  1  0
  7  8  1  0
  8  9  2  0
  9 10  1  0
 10 11  2  0
 10 12  1  0
 12 13  1  0
  9 14  1  0
 14 15  1  0
 15 16  2  0
 16 17  1  0
 17 18  2  0
 18 19  1  0
 19 20  2  0
 20  8  1  0
 20 15  1  0
M  END
>  <zinc_id>  (1) 
ZINC000002315488

>  <smiles>  (1) 
C=CCOC(=O)Nc1c(C(=O)OC)[nH]c2ccccc12

$$$$
