
     RDKit          3D

 32 35  0  0  0  0  0  0  0  0999 V2000
    9.1645    2.1831   -0.2589 C   0  0  0  0  0  0  0  0  0  0  0  0
    7.6903    1.9963   -0.5462 C   0  0  0  0  0  0  0  0  0  0  0  0
    7.1436    0.9874    0.2560 O   0  0  0  0  0  0  0  0  0  0  0  0
    5.8070    0.6075    0.1995 C   0  0  0  0  0  0  0  0  0  0  0  0
    5.3157   -0.3955    1.0135 C   0  0  0  0  0  0  0  0  0  0  0  0
    3.9861   -0.8037    0.9868 C   0  0  0  0  0  0  0  0  0  0  0  0
    3.1103   -0.1942    0.1201 C   0  0  0  0  0  0  0  0  0  0  0  0
    1.7441   -0.5896    0.0689 N   0  0  0  0  0  0  0  0  0  0  0  0
    0.6911   -0.1155    0.8894 C   0  0  0  0  0  0  0  0  0  0  0  0
    0.7682    0.7380    1.8101 O   0  0  0  0  0  0  0  0  0  0  0  0
   -0.5587   -0.7961    0.4898 C   0  0  0  0  0  0  0  0  0  0  0  0
   -1.7928   -0.4722    1.1579 N   0  0  0  0  0  0  0  0  0  0  0  0
   -2.3816    0.8180    1.0202 C   0  0  0  0  0  0  0  0  0  0  0  0
   -3.5496    1.0804    1.7045 C   0  0  0  0  0  0  0  0  0  0  0  0
   -4.1003    2.3393    1.5464 C   0  0  0  0  0  0  0  0  0  0  0  0
   -3.5044    3.2806    0.7420 C   0  0  0  0  0  0  0  0  0  0  0  0
   -4.1095    4.6234    0.5841 C   0  0  0  0  0  0  0  0  0  0  0  0
   -5.0760    4.5736   -0.5972 C   0  0  0  0  0  0  0  0  0  0  0  0
   -2.3368    2.9845    0.0725 C   0  0  0  0  0  0  0  0  0  0  0  0
   -1.7523    1.7319    0.2050 C   0  0  0  0  0  0  0  0  0  0  0  0
   -0.3179   -1.6247   -0.4888 C   0  0  0  0  0  0  0  0  0  0  0  0
   -1.3887   -2.6890   -1.3637 S   0  0  0  0  0  0  0  0  0  0  0  0
   -2.9955   -2.8503   -0.6621 C   0  0  0  0  0  0  0  0  0  0  0  0
   -3.9047   -3.6450   -1.3814 C   0  0  0  0  0  0  0  0  0  0  0  0
   -5.1648   -3.8706   -0.9543 C   0  0  0  0  0  0  0  0  0  0  0  0
   -5.6095   -3.3205    0.2204 C   0  0  0  0  0  0  0  0  0  0  0  0
   -4.7260   -2.5335    0.9435 C   0  0  0  0  0  0  0  0  0  0  0  0
   -3.4653   -2.3257    0.4870 C   0  0  0  0  0  0  0  0  0  0  0  0
    1.1415   -1.5261   -0.7940 C   0  0  0  0  0  0  0  0  0  0  0  0
    1.6838   -2.2031   -1.6955 O   0  0  0  0  0  0  0  0  0  0  0  0
    3.5748    0.8023   -0.6961 C   0  0  0  0  0  0  0  0  0  0  0  0
    4.9134    1.2088   -0.6651 C   0  0  0  0  0  0  0  0  0  0  0  0
  1  2  1  0
  2  3  1  0
  3  4  1  0
  4  5  2  0
  5  6  1  0
  6  7  2  0
  7  8  1  0
  8  9  1  0
  9 10  2  0
  9 11  1  0
 11 12  1  0
 12 13  1  0
 13 14  2  0
 14 15  1  0
 15 16  2  0
 16 17  1  0
 17 18  1  0
 16 19  1  0
 19 20  2  0
 11 21  2  0
 21 22  1  0
 22 23  1  0
 23 24  2  0
 24 25  1  0
 25 26  2  0
 26 27  1  0
 27 28  2  0
 21 29  1  0
 29 30  2  0
  7 31  1  0
 31 32  2  0
 32  4  1  0
 29  8  1  0
 20 13  1  0
 28 23  1  0
M  END
>  <zinc_id>  (1) 
ZINC000001928666

>  <smiles>  (1) 
CCOc1ccc(N2C(=O)C(Nc3ccc(CC)cc3)=C(Sc3ccccc3)C2=O)cc1

$$$$
