
     RDKit          3D

 20 21  0  0  0  0  0  0  0  0999 V2000
   -1.8336    3.4708    0.5991 C   0  0  0  0  0  0  0  0  0  0  0  0
   -1.9199    2.0338    0.2330 C   0  0  0  0  0  0  0  0  0  0  0  0
   -3.2261    1.5453   -0.0445 C   0  0  0  0  0  0  0  0  0  0  0  0
   -3.2981    0.2042   -0.3654 C   0  0  0  0  0  0  0  0  0  0  0  0
   -2.2601   -0.6360   -0.4292 C   0  0  0  0  0  0  0  0  0  0  0  0
   -2.4241   -2.0160   -0.9614 C   0  0  0  0  0  0  0  0  0  0  0  0
   -3.2355   -2.8963    0.0836 C   0  0  0  0  0  0  0  0  0  0  0  0
   -3.6050   -1.8354   -2.0685 C   0  0  0  0  0  0  0  0  0  0  0  0
   -0.9609   -0.1363   -0.1512 C   0  0  0  0  0  0  0  0  0  0  0  0
    0.0341   -1.0707   -0.2162 O   0  0  0  0  0  0  0  0  0  0  0  0
    1.3126   -0.8875    0.3352 C   0  0  0  0  0  0  0  0  0  0  0  0
    1.6865   -1.8673    1.3012 C   0  0  0  0  0  0  0  0  0  0  0  0
    2.8816   -1.8120    1.9292 C   0  0  0  0  0  0  0  0  0  0  0  0
    3.7564   -0.7847    1.6210 C   0  0  0  0  0  0  0  0  0  0  0  0
    3.4176    0.1904    0.6742 C   0  0  0  0  0  0  0  0  0  0  0  0
    2.1672    0.0891    0.0506 C   0  0  0  0  0  0  0  0  0  0  0  0
    1.7750    1.0731   -0.9107 N   0  0  0  0  0  0  0  0  0  0  0  0
    2.7512    2.0963   -1.2155 C   0  0  0  0  0  0  0  0  0  0  0  0
    3.8414    2.0659   -0.6270 O   0  0  0  0  0  0  0  0  0  0  0  0
   -0.8605    1.1733    0.1626 C   0  0  0  0  0  0  0  0  0  0  0  0
  1  2  1  0
  2  3  2  0
  3  4  1  0
  4  5  2  0
  5  6  1  0
  6  7  1  0
  6  8  1  0
  5  9  1  0
  9 10  1  0
 10 11  1  0
 11 12  2  0
 12 13  1  0
 13 14  2  0
 14 15  1  0
 15 16  2  0
 16 17  1  0
 17 18  1  0
 18 19  2  0
  9 20  2  0
 20  2  1  0
 16 11  1  0
M  END
>  <zinc_id>  (1) 
ZINC000000581215

>  <smiles>  (1) 
Cc1ccc(C(C)C)c(Oc2ccccc2NC=O)c1

$$$$
