
     RDKit          3D

 22 24  0  0  0  0  0  0  0  0999 V2000
    6.9519   -1.9818   -0.6447 C   0  0  0  0  0  0  0  0  0  0  0  0
    6.5836   -0.6910   -1.0963 O   0  0  0  0  0  0  0  0  0  0  0  0
    5.2794   -0.2483   -1.0095 C   0  0  0  0  0  0  0  0  0  0  0  0
    4.9812    1.0184   -1.4656 C   0  0  0  0  0  0  0  0  0  0  0  0
    3.6869    1.5251   -1.4069 C   0  0  0  0  0  0  0  0  0  0  0  0
    2.6751    0.7289   -0.8743 C   0  0  0  0  0  0  0  0  0  0  0  0
    1.3617    0.9524   -0.6962 N   0  0  0  0  0  0  0  0  0  0  0  0
    0.7664   -0.1220   -0.1354 C   0  0  0  0  0  0  0  0  0  0  0  0
   -0.6306   -0.2547    0.2054 C   0  0  0  0  0  0  0  0  0  0  0  0
   -1.0430   -1.3303    0.7292 O   0  0  0  0  0  0  0  0  0  0  0  0
   -1.5751    0.7605   -0.0155 N   0  0  0  0  0  0  0  0  0  0  0  0
   -2.9574    0.5632    0.3486 C   0  0  0  0  0  0  0  0  0  0  0  0
   -3.8490    1.5840    0.1146 C   0  0  0  0  0  0  0  0  0  0  0  0
   -5.1792    1.4441    0.4446 C   0  0  0  0  0  0  0  0  0  0  0  0
   -5.6189    0.2701    1.0143 C   0  0  0  0  0  0  0  0  0  0  0  0
   -7.0719    0.1103    1.3776 C   0  0  0  0  0  0  0  0  0  0  0  0
   -4.7159   -0.7420    1.2424 C   0  0  0  0  0  0  0  0  0  0  0  0
   -5.2071   -1.8844    1.8097 F   0  0  0  0  0  0  0  0  0  0  0  0
   -3.3922   -0.6070    0.9158 C   0  0  0  0  0  0  0  0  0  0  0  0
    1.7578   -1.0515    0.0408 C   0  0  0  0  0  0  0  0  0  0  0  0
    2.9525   -0.5389   -0.4135 C   0  0  0  0  0  0  0  0  0  0  0  0
    4.2436   -1.0121   -0.4852 C   0  0  0  0  0  0  0  0  0  0  0  0
  1  2  1  0
  2  3  1  0
  3  4  2  0
  4  5  1  0
  5  6  2  0
  6  7  1  0
  7  8  1  0
  8  9  1  0
  9 10  2  0
  9 11  1  0
 11 12  1  0
 12 13  2  0
 13 14  1  0
 14 15  2  0
 15 16  1  0
 15 17  1  0
 17 18  1  0
 17 19  2  0
  8 20  2  0
 20 21  1  0
 21 22  2  0
 22  3  1  0
 21  6  1  0
 19 12  1  0
M  END
>  <zinc_id>  (1) 
ZINC000000114537

>  <smiles>  (1) 
COc1ccc2[nH]c(C(=O)Nc3ccc(C)c(F)c3)cc2c1

$$$$
