
     RDKit          3D

 21 23  0  0  0  0  0  0  0  0999 V2000
    2.5526    1.9706   -1.7090 C   0  0  0  0  0  0  0  0  0  0  0  0
    3.7448    1.6393   -0.8420 C   0  0  0  0  0  0  0  0  0  0  0  0
    4.2284    0.3014   -1.0616 N   0  0  0  0  0  0  0  0  0  0  0  0
    3.3035   -0.7843   -0.8059 C   0  0  0  0  0  0  0  0  0  0  0  0
    2.0533   -0.7212   -0.3913 N   0  0  0  0  0  0  0  0  0  0  0  0
    1.3750   -1.8204   -0.2174 C   0  0  0  0  0  0  0  0  0  0  0  0
   -0.0439   -1.7875    0.2514 C   0  0  0  0  0  0  0  0  0  0  0  0
   -0.8582   -2.8734    0.4707 C   0  0  0  0  0  0  0  0  0  0  0  0
   -2.0675   -2.4204    0.8894 N   0  0  0  0  0  0  0  0  0  0  0  0
   -2.0450   -1.0768    0.9426 C   0  0  0  0  0  0  0  0  0  0  0  0
   -3.0008   -0.1432    1.2996 C   0  0  0  0  0  0  0  0  0  0  0  0
   -2.6738    1.1886    1.2520 C   0  0  0  0  0  0  0  0  0  0  0  0
   -3.6050    2.1760    1.6033 O   0  0  0  0  0  0  0  0  0  0  0  0
   -4.9104    1.7902    2.0158 C   0  0  0  0  0  0  0  0  0  0  0  0
   -1.4244    1.6251    0.8601 C   0  0  0  0  0  0  0  0  0  0  0  0
   -1.1247    2.9900    0.8230 O   0  0  0  0  0  0  0  0  0  0  0  0
    0.1657    3.3930    0.4161 C   0  0  0  0  0  0  0  0  0  0  0  0
   -0.4787    0.6847    0.5062 C   0  0  0  0  0  0  0  0  0  0  0  0
   -0.7897   -0.6717    0.5474 C   0  0  0  0  0  0  0  0  0  0  0  0
    2.0295   -3.0028   -0.4863 C   0  0  0  0  0  0  0  0  0  0  0  0
    3.5690   -2.4576   -0.9688 S   0  0  0  0  0  0  0  0  0  0  0  0
  1  2  1  0
  2  3  1  0
  3  4  1  0
  4  5  2  0
  5  6  1  0
  6  7  1  0
  7  8  2  0
  8  9  1  0
  9 10  1  0
 10 11  2  0
 11 12  1  0
 12 13  1  0
 13 14  1  0
 12 15  2  0
 15 16  1  0
 16 17  1  0
 15 18  1  0
 18 19  2  0
  6 20  2  0
 20 21  1  0
 21  4  1  0
 19  7  1  0
 19 10  1  0
M  END
>  <zinc_id>  (1) 
ZINC000002362916

>  <smiles>  (1) 
CCNc1nc(-c2c[nH]c3cc(OC)c(OC)cc23)cs1

$$$$
