
     RDKit          3D

 32 36  0  0  0  0  0  0  0  0999 V2000
   -0.8183   -3.5076    1.2851 C   0  0  0  0  0  0  0  0  0  0  0  0
   -0.9941   -2.6462    0.0976 C   0  0  0  0  0  0  0  0  0  0  0  0
   -1.1787   -3.3925   -1.1940 C   0  0  0  0  0  0  0  0  0  0  0  0
   -0.0613   -1.5240   -0.0018 C   0  0  0  0  0  0  0  0  0  0  0  0
   -0.0997   -0.4716   -0.8439 C   0  0  0  0  0  0  0  0  0  0  0  0
   -1.1023   -0.0430   -1.8144 C   0  0  0  0  0  0  0  0  0  0  0  0
   -2.1575    0.7454   -1.2008 C   0  0  0  0  0  0  0  0  0  0  0  0
   -3.0314   -0.0497   -0.1172 C   0  0  2  0  0  0  0  0  0  0  0  0
   -3.6088   -1.1251   -1.1808 C   0  0  0  0  0  0  0  0  0  0  0  0
   -4.8312   -1.8961   -0.4383 C   0  0  1  0  0  0  0  0  0  0  0  0
   -4.4988   -1.6163    1.0024 O   0  0  0  0  0  0  0  0  0  0  0  0
   -5.9087   -0.6832   -0.6267 C   0  0  0  0  0  0  0  0  0  0  0  0
   -5.4470    0.4957    0.0654 C   0  0  0  0  0  0  0  0  0  0  0  0
   -6.1433    1.1266    0.9131 O   0  0  0  0  0  0  0  0  0  0  0  0
   -4.2026    0.9250   -0.2276 O   0  0  0  0  0  0  0  0  0  0  0  0
    1.0564    0.3039   -0.5896 C   0  0  0  0  0  0  0  0  0  0  0  0
    1.4714    1.5081   -1.2240 C   0  0  0  0  0  0  0  0  0  0  0  0
    2.0796    1.6985   -2.4022 C   0  0  0  0  0  0  0  0  0  0  0  0
    2.4711    2.8859   -2.9818 C   0  0  0  0  0  0  0  0  0  0  0  0
    2.1880    4.0296   -2.2207 C   0  0  0  0  0  0  0  0  0  0  0  0
    1.5680    3.9182   -1.0044 C   0  0  0  0  0  0  0  0  0  0  0  0
    1.2090    2.6865   -0.5002 C   0  0  0  0  0  0  0  0  0  0  0  0
    1.7606   -0.3096    0.4104 C   0  0  0  0  0  0  0  0  0  0  0  0
    2.9476    0.0605    1.0118 C   0  0  0  0  0  0  0  0  0  0  0  0
    3.6453    1.2126    0.6472 C   0  0  0  0  0  0  0  0  0  0  0  0
    4.8263    1.5215    1.3013 C   0  0  0  0  0  0  0  0  0  0  0  0
    5.3611    0.7390    2.3128 C   0  0  0  0  0  0  0  0  0  0  0  0
    4.6626   -0.4019    2.6698 C   0  0  0  0  0  0  0  0  0  0  0  0
    3.4674   -0.7225    2.0133 C   0  0  0  0  0  0  0  0  0  0  0  0
    2.7419   -1.8455    2.3445 C   0  0  0  0  0  0  0  0  0  0  0  0
    1.5549   -2.2094    1.7379 C   0  0  0  0  0  0  0  0  0  0  0  0
    1.0726   -1.4130    0.7558 N   0  0  0  0  0  0  0  0  0  0  0  0
  1  2  1  0
  2  3  1  0
  2  4  1  0
  4  5  2  0
  5  6  1  0
  6  7  1  0
  8  7  1  6
  8  9  1  0
  9 10  1  0
 10 11  1  1
 10 12  1  0
 12 13  1  0
 13 14  2  0
 13 15  1  0
  5 16  1  0
 16 17  1  0
 17 18  2  0
 18 19  1  0
 19 20  2  0
 20 21  1  0
 21 22  2  0
 16 23  2  0
 23 24  1  0
 24 25  2  0
 25 26  1  0
 26 27  2  0
 27 28  1  0
 28 29  2  0
 29 30  1  0
 30 31  2  0
 31 32  1  0
 32  4  1  0
 15  8  1  0
 22 17  1  0
 32 23  1  0
 29 24  1  0
M  END
>  <zinc_id>  (1) 
ZINC000001482561

>  <smiles>  (1) 
CC(C)c1c(CC[C@@H]2C[C@@H](O)CC(=O)O2)c(-c2ccccc2)c2c3ccccc3ccn12

$$$$
