
     RDKit          3D

 31 35  0  0  0  0  0  0  0  0999 V2000
   -3.2543   -4.1583    1.5260 O   0  0  0  0  0  0  0  0  0  0  0  0
   -2.8283   -2.8805    1.1803 C   0  0  0  0  0  0  0  0  0  0  0  0
   -2.3864   -1.9619    2.1101 C   0  0  0  0  0  0  0  0  0  0  0  0
   -1.9633   -0.6972    1.7795 C   0  0  0  0  0  0  0  0  0  0  0  0
   -1.9906   -0.3382    0.4094 C   0  0  0  0  0  0  0  0  0  0  0  0
   -2.3986   -1.1712   -0.4971 C   0  0  0  0  0  0  0  0  0  0  0  0
   -2.8174   -2.4358   -0.1313 C   0  0  0  0  0  0  0  0  0  0  0  0
   -2.3957   -0.7501   -1.8045 O   0  0  0  0  0  0  0  0  0  0  0  0
   -1.9052    0.4201   -2.1556 C   0  0  0  0  0  0  0  0  0  0  0  0
   -2.2596    1.6323   -1.1614 C   0  0  1  0  0  0  0  0  0  0  0  0
   -3.7384    1.3203   -0.7595 C   0  0  0  0  0  0  0  0  0  0  0  0
   -4.6178    0.5985   -1.4063 C   0  0  0  0  0  0  0  0  0  0  0  0
   -5.8846    0.4128   -0.9314 C   0  0  0  0  0  0  0  0  0  0  0  0
   -6.2300    1.0025    0.2528 C   0  0  0  0  0  0  0  0  0  0  0  0
   -5.3535    1.7740    0.9836 C   0  0  0  0  0  0  0  0  0  0  0  0
   -4.0692    1.9136    0.4219 C   0  0  0  0  0  0  0  0  0  0  0  0
   -1.4738    1.1368    0.2536 C   0  0  2  0  0  0  0  0  0  0  0  0
   -0.0205    0.9093   -0.3503 C   0  0  0  0  0  0  0  0  0  0  0  0
    0.2614    0.9270   -1.6348 C   0  0  0  0  0  0  0  0  0  0  0  0
    1.5532    0.7256   -2.0630 C   0  0  0  0  0  0  0  0  0  0  0  0
    2.5702    0.5015   -1.1427 C   0  0  0  0  0  0  0  0  0  0  0  0
    3.8713    0.2965   -1.5400 O   0  0  0  0  0  0  0  0  0  0  0  0
    4.8675    0.0758   -0.5975 C   0  0  0  0  0  0  0  0  0  0  0  0
    6.1960   -0.1206   -1.2707 C   0  0  0  0  0  0  0  0  0  0  0  0
    7.1847   -0.3428   -0.2236 N   0  0  0  0  0  0  0  0  0  0  0  0
    7.3311    0.9049    0.5133 C   0  0  0  0  0  0  0  0  0  0  0  0
    6.0849    0.9394    1.3750 C   0  0  0  0  0  0  0  0  0  0  0  0
    5.7422   -0.5264    1.6372 C   0  0  0  0  0  0  0  0  0  0  0  0
    6.7284   -1.2876    0.7793 C   0  0  0  0  0  0  0  0  0  0  0  0
    2.2409    0.4899    0.1787 C   0  0  0  0  0  0  0  0  0  0  0  0
    0.9554    0.6896    0.6215 C   0  0  0  0  0  0  0  0  0  0  0  0
  1  2  1  0
  2  3  2  0
  3  4  1  0
  4  5  2  0
  5  6  1  0
  6  7  2  0
  6  8  1  0
  8  9  1  0
  9 10  1  0
 10 11  1  1
 11 12  2  0
 12 13  1  0
 13 14  2  0
 14 15  1  0
 15 16  2  0
 10 17  1  0
 17 18  1  6
 18 19  2  0
 19 20  1  0
 20 21  2  0
 21 22  1  0
 22 23  1  0
 23 24  1  0
 24 25  1  0
 25 26  1  0
 26 27  1  0
 27 28  1  0
 28 29  1  0
 21 30  1  0
 30 31  2  0
  7  2  1  0
 16 11  1  0
 31 18  1  0
 17  5  1  0
 29 25  1  0
M  END
>  <zinc_id>  (1) 
ZINC000004392605

>  <smiles>  (1) 
Oc1ccc2c(c1)OC[C@@H](c1ccccc1)[C@@H]2c1ccc(OCCN2CCCC2)cc1

$$$$
