
     RDKit          3D

 19 21  0  0  0  0  0  0  0  0999 V2000
   -2.5949    2.9988    1.4147 Cl  0  0  0  0  0  0  0  0  0  0  0  0
   -1.6965    1.6250    0.8293 C   0  0  0  0  0  0  0  0  0  0  0  0
   -0.3724    1.4860    0.9706 N   0  0  0  0  0  0  0  0  0  0  0  0
    0.2773    0.4293    0.5136 N   0  0  0  0  0  0  0  0  0  0  0  0
   -0.3579   -0.5769   -0.1253 C   0  0  0  0  0  0  0  0  0  0  0  0
    0.2785   -1.7205   -0.6307 N   0  0  0  0  0  0  0  0  0  0  0  0
    1.6221   -2.0081   -0.5654 N   0  0  0  0  0  0  0  0  0  0  0  0
    2.6568   -1.0548   -0.3790 C   0  0  0  0  0  0  0  0  0  0  0  0
    3.0317   -0.6417    0.8162 C   0  0  0  0  0  0  0  0  0  0  0  0
    4.0877    0.3360    1.0864 C   0  0  0  0  0  0  0  0  0  0  0  0
    4.7485    0.8979   -0.1255 C   0  0  0  0  0  0  0  0  0  0  0  0
    3.6911    0.9539   -1.2353 C   0  0  0  0  0  0  0  0  0  0  0  0
    3.3575   -0.4877   -1.5611 C   0  0  0  0  0  0  0  0  0  0  0  0
   -1.7355   -0.4787   -0.2969 C   0  0  0  0  0  0  0  0  0  0  0  0
   -2.4572   -1.4676   -0.9407 C   0  0  0  0  0  0  0  0  0  0  0  0
   -3.8225   -1.3637   -1.1073 C   0  0  0  0  0  0  0  0  0  0  0  0
   -4.5150   -0.2686   -0.6368 C   0  0  0  0  0  0  0  0  0  0  0  0
   -3.7826    0.7198    0.0084 C   0  0  0  0  0  0  0  0  0  0  0  0
   -2.4166    0.6213    0.1780 C   0  0  0  0  0  0  0  0  0  0  0  0
  1  2  1  0
  2  3  2  0
  3  4  1  0
  4  5  2  0
  5  6  1  0
  6  7  1  0
  7  8  1  0
  8  9  2  0
  9 10  1  0
 10 11  1  0
 11 12  1  0
 12 13  1  0
  5 14  1  0
 14 15  2  0
 15 16  1  0
 16 17  2  0
 17 18  1  0
 18 19  2  0
 19  2  1  0
 13  8  1  0
 19 14  1  0
M  END
>  <zinc_id>  (1) 
ZINC000002685704

>  <smiles>  (1) 
Clc1nnc(NNC2=CCCCC2)c2ccccc12

$$$$
