
     RDKit          3D

 21 22  0  0  0  0  0  0  0  0999 V2000
    4.9805   -1.1520   -1.5977 C   0  0  0  0  0  0  0  0  0  0  0  0
    4.6166   -0.7939   -0.2119 C   0  0  0  0  0  0  0  0  0  0  0  0
    5.3275   -1.0867    0.7907 O   0  0  0  0  0  0  0  0  0  0  0  0
    3.3694   -0.0553    0.0820 C   0  0  0  0  0  0  0  0  0  0  0  0
    3.2052    1.3102    0.1433 C   0  0  0  0  0  0  0  0  0  0  0  0
    4.2853    2.3034   -0.0821 C   0  0  0  0  0  0  0  0  0  0  0  0
    1.9157    1.5359    0.4376 N   0  0  0  0  0  0  0  0  0  0  0  0
    1.2341    0.4007    0.5707 C   0  0  0  0  0  0  0  0  0  0  0  0
   -0.1827    0.2300    0.8866 C   0  0  0  0  0  0  0  0  0  0  0  0
   -0.6697   -0.9265    0.9755 O   0  0  0  0  0  0  0  0  0  0  0  0
   -1.0472    1.3273    1.1008 N   0  0  0  0  0  0  0  0  0  0  0  0
   -2.4259    1.0977    1.4068 C   0  0  0  0  0  0  0  0  0  0  0  0
   -3.1583    0.3589    0.3581 C   0  0  0  0  0  0  0  0  0  0  0  0
   -2.5956   -0.0773   -0.8098 C   0  0  0  0  0  0  0  0  0  0  0  0
   -3.3420   -0.7615   -1.7448 C   0  0  0  0  0  0  0  0  0  0  0  0
   -4.6845   -1.0406   -1.5545 C   0  0  0  0  0  0  0  0  0  0  0  0
   -5.2469   -0.6017   -0.3816 C   0  0  0  0  0  0  0  0  0  0  0  0
   -4.4921    0.0938    0.5709 C   0  0  0  0  0  0  0  0  0  0  0  0
   -5.0828    0.5151    1.7250 F   0  0  0  0  0  0  0  0  0  0  0  0
    2.1325   -0.6018    0.3506 C   0  0  0  0  0  0  0  0  0  0  0  0
    1.8612   -2.0757    0.3854 C   0  0  0  0  0  0  0  0  0  0  0  0
  1  2  1  0
  2  3  2  0
  2  4  1  0
  4  5  2  0
  5  6  1  0
  5  7  1  0
  7  8  1  0
  8  9  1  0
  9 10  2  0
  9 11  1  0
 11 12  1  0
 12 13  1  0
 13 14  2  0
 14 15  1  0
 15 16  2  0
 16 17  1  0
 17 18  2  0
 18 19  1  0
  8 20  2  0
 20 21  1  0
 20  4  1  0
 18 13  1  0
M  END
>  <zinc_id>  (1) 
ZINC000002651581

>  <smiles>  (1) 
CC(=O)c1c(C)[nH]c(C(=O)NCc2ccccc2F)c1C

$$$$
