
     RDKit          3D

 31 34  0  0  0  0  0  0  0  0999 V2000
    9.4663   -1.3856    2.1218 C   0  0  0  0  0  0  0  0  0  0  0  0
    8.0375   -1.0709    1.8172 C   0  0  0  0  0  0  0  0  0  0  0  0
    7.4255   -2.0893    0.8627 C   0  0  0  0  0  0  0  0  0  0  0  0
    6.0095   -1.7241    0.5985 C   0  0  0  0  0  0  0  0  0  0  0  0
    5.6679   -0.8942   -0.4434 C   0  0  0  0  0  0  0  0  0  0  0  0
    4.3581   -0.5402   -0.7087 C   0  0  0  0  0  0  0  0  0  0  0  0
    3.3303   -1.0135    0.0736 C   0  0  0  0  0  0  0  0  0  0  0  0
    1.9603   -0.6861   -0.1471 N   0  0  0  0  0  0  0  0  0  0  0  0
    1.5149    0.1522   -1.1833 C   0  0  0  0  0  0  0  0  0  0  0  0
    2.3759    0.6388   -1.9571 O   0  0  0  0  0  0  0  0  0  0  0  0
    0.1215    0.4914   -1.4159 C   0  0  0  0  0  0  0  0  0  0  0  0
   -0.3561    1.2838   -2.3874 N   0  0  0  0  0  0  0  0  0  0  0  0
   -1.7039    1.3587   -2.2783 C   0  0  0  0  0  0  0  0  0  0  0  0
   -2.1101    0.6171   -1.2376 N   0  0  0  0  0  0  0  0  0  0  0  0
   -3.4966    0.4657   -0.8246 C   0  0  0  0  0  0  0  0  0  0  0  0
   -3.6115   -0.5187    0.2797 C   0  0  0  0  0  0  0  0  0  0  0  0
   -3.5379   -0.1725    1.6047 C   0  0  0  0  0  0  0  0  0  0  0  0
   -3.6558   -1.1564    2.5528 C   0  0  0  0  0  0  0  0  0  0  0  0
   -3.8441   -2.4653    2.1824 C   0  0  0  0  0  0  0  0  0  0  0  0
   -3.9215   -2.8390    0.8584 C   0  0  0  0  0  0  0  0  0  0  0  0
   -3.8005   -1.8344   -0.0743 C   0  0  0  0  0  0  0  0  0  0  0  0
   -4.0098    1.7944   -0.4278 C   0  0  0  0  0  0  0  0  0  0  0  0
   -3.9008    2.2249    0.8793 C   0  0  0  0  0  0  0  0  0  0  0  0
   -4.3727    3.4582    1.2668 C   0  0  0  0  0  0  0  0  0  0  0  0
   -4.9606    4.2583    0.3124 C   0  0  0  0  0  0  0  0  0  0  0  0
   -5.0704    3.8318   -0.9904 C   0  0  0  0  0  0  0  0  0  0  0  0
   -4.5934    2.5959   -1.3612 C   0  0  0  0  0  0  0  0  0  0  0  0
   -0.9987    0.0817   -0.7028 C   0  0  0  0  0  0  0  0  0  0  0  0
   -0.9589   -0.8113    0.4687 C   0  0  0  0  0  0  0  0  0  0  0  0
    3.6570   -1.8471    1.1225 C   0  0  0  0  0  0  0  0  0  0  0  0
    4.9785   -2.2044    1.3904 C   0  0  0  0  0  0  0  0  0  0  0  0
  1  2  1  0
  2  3  1  0
  3  4  1  0
  4  5  2  0
  5  6  1  0
  6  7  2  0
  7  8  1  0
  8  9  1  0
  9 10  2  0
  9 11  1  0
 11 12  1  0
 12 13  2  0
 13 14  1  0
 14 15  1  0
 15 16  1  0
 16 17  2  0
 17 18  1  0
 18 19  2  0
 19 20  1  0
 20 21  2  0
 15 22  1  0
 22 23  2  0
 23 24  1  0
 24 25  2  0
 25 26  1  0
 26 27  2  0
 14 28  1  0
 28 29  1  0
  7 30  1  0
 30 31  2  0
 31  4  1  0
 28 11  2  0
 21 16  1  0
 27 22  1  0
M  END
>  <zinc_id>  (1) 
ZINC000003923434

>  <smiles>  (1) 
CCCc1ccc(NC(=O)c2ncn(C(c3ccccc3)c3ccccc3)c2C)cc1

$$$$
