
     RDKit          3D

 21 24  0  0  0  0  0  0  0  0999 V2000
   -0.1287   -2.3400   -0.6296 C   0  0  0  0  0  0  0  0  0  0  0  0
   -0.4620   -0.9789   -0.0814 C   0  0  0  0  0  0  0  0  0  0  0  0
    0.5254   -0.1910    0.1807 C   0  0  0  0  0  0  0  0  0  0  0  0
    1.9974   -0.2643    0.0639 C   0  0  0  0  0  0  0  0  0  0  0  0
    2.8408   -1.3221    0.2083 C   0  0  0  0  0  0  0  0  0  0  0  0
    4.2168   -1.1495   -0.0060 C   0  0  0  0  0  0  0  0  0  0  0  0
    5.1025   -2.2109    0.1339 O   0  0  0  0  0  0  0  0  0  0  0  0
    4.6319    0.1104   -0.3569 C   0  0  0  0  0  0  0  0  0  0  0  0
    3.7365    1.1845   -0.4980 C   0  0  0  0  0  0  0  0  0  0  0  0
    2.4043    1.0193   -0.2903 C   0  0  0  0  0  0  0  0  0  0  0  0
    1.2362    1.8685   -0.3143 N   0  0  0  0  0  0  0  0  0  0  0  0
    0.3540    1.2545    0.7292 C   0  0  1  0  0  0  0  0  0  0  0  0
   -1.0227    1.6323    0.6600 C   0  0  0  0  0  0  0  0  0  0  0  0
   -1.4665    3.0642    0.9477 C   0  0  0  0  0  0  0  0  0  0  0  0
   -2.0627    0.8636    0.3563 C   0  0  0  0  0  0  0  0  0  0  0  0
   -3.4491    1.3763    0.3638 C   0  0  0  0  0  0  0  0  0  0  0  0
   -4.3930    0.5018    0.0273 C   0  0  0  0  0  0  0  0  0  0  0  0
   -4.1323   -0.8488   -0.3299 N   0  0  0  0  0  0  0  0  0  0  0  0
   -5.2836   -1.7000   -0.6679 C   0  0  0  0  0  0  0  0  0  0  0  0
   -2.8044   -1.3568   -0.3587 C   0  0  0  0  0  0  0  0  0  0  0  0
   -1.8407   -0.5132   -0.0288 C   0  0  0  0  0  0  0  0  0  0  0  0
  1  2  1  0
  2  3  2  0
  3  4  1  0
  4  5  2  0
  5  6  1  0
  6  7  1  0
  6  8  2  0
  8  9  1  0
  9 10  2  0
 10 11  1  0
 12 11  1  1
 12 13  1  0
 13 14  1  0
 13 15  2  0
 15 16  1  0
 16 17  2  0
 17 18  1  0
 18 19  1  0
 18 20  1  0
 20 21  2  0
 21  2  1  0
 12  3  1  0
 21 15  1  0
 10  4  1  0
M  END
>  <zinc_id>  (1) 
ZINC000003643624

>  <smiles>  (1) 
CC1=C2c3cc(O)ccc3N[C@@H]2C(C)=C2C=CN(C)C=C12

$$$$
