
     RDKit          3D

 19 20  0  0  0  0  0  0  0  0999 V2000
    3.8258    1.0504    0.7323 C   0  0  0  0  0  0  0  0  0  0  0  0
    4.6500    0.3059   -0.2449 C   0  0  0  0  0  0  0  0  0  0  0  0
    3.9786   -1.1909   -0.4581 C   0  0  1  0  0  0  0  0  0  0  0  0
    4.1406   -1.6231    1.1111 C   0  0  0  0  0  0  0  0  0  0  0  0
    2.4806   -0.6926   -0.3719 C   0  0  0  0  0  0  0  0  0  0  0  0
    1.7192   -0.9313    0.7117 C   0  0  0  0  0  0  0  0  0  0  0  0
    0.4116   -0.4913    0.7520 C   0  0  0  0  0  0  0  0  0  0  0  0
   -0.0960    0.1874   -0.3232 C   0  0  0  0  0  0  0  0  0  0  0  0
   -1.5158    0.6171   -0.2500 C   0  0  0  0  0  0  0  0  0  0  0  0
   -1.7881    1.9338    0.0051 C   0  0  0  0  0  0  0  0  0  0  0  0
   -0.8472    3.0865    0.2345 C   0  0  0  0  0  0  0  0  0  0  0  0
   -3.4841    1.9802    0.0138 S   0  0  0  0  0  0  0  0  0  0  0  0
   -3.8142    0.3364   -0.3048 C   0  0  0  0  0  0  0  0  0  0  0  0
   -5.0816   -0.3427   -0.4354 N   0  0  0  0  0  0  0  0  0  0  0  0
   -2.5610   -0.2112   -0.4101 C   0  0  0  0  0  0  0  0  0  0  0  0
   -2.4030   -1.6463   -0.6778 C   0  0  0  0  0  0  0  0  0  0  0  0
   -2.2762   -2.7975   -0.8979 N   0  0  0  0  0  0  0  0  0  0  0  0
    0.6743    0.4436   -1.4494 C   0  0  0  0  0  0  0  0  0  0  0  0
    1.9864   -0.0144   -1.4526 C   0  0  0  0  0  0  0  0  0  0  0  0
  1  2  1  0
  2  3  1  0
  3  4  1  1
  3  5  1  0
  5  6  2  0
  6  7  1  0
  7  8  2  0
  8  9  1  0
  9 10  2  0
 10 11  1  0
 10 12  1  0
 12 13  1  0
 13 14  1  0
 13 15  2  0
 15 16  1  0
 16 17  3  0
  8 18  1  0
 18 19  2  0
 19  5  1  0
 15  9  1  0
M  END
>  <zinc_id>  (1) 
ZINC000002584871

>  <smiles>  (1) 
CC[C@@H](C)c1ccc(-c2c(C)sc(N)c2C#N)cc1

$$$$
