
     RDKit          3D

 21 23  0  0  0  0  0  0  0  0999 V2000
   -2.2350   -2.8486    1.0477 C   0  0  0  0  0  0  0  0  0  0  0  0
   -0.8810   -2.7940    0.3320 C   0  0  0  0  0  0  0  0  0  0  0  0
   -1.0877   -1.9811   -0.9536 C   0  0  0  0  0  0  0  0  0  0  0  0
   -1.5590   -0.6135   -0.6331 C   0  0  0  0  0  0  0  0  0  0  0  0
   -2.9042   -0.2472   -0.7434 C   0  0  0  0  0  0  0  0  0  0  0  0
   -3.3286    1.0319   -0.4316 C   0  0  0  0  0  0  0  0  0  0  0  0
   -4.5560    1.3557   -0.5325 O   0  0  0  0  0  0  0  0  0  0  0  0
   -2.4234    1.8711   -0.0346 O   0  0  0  0  0  0  0  0  0  0  0  0
   -1.1403    1.6083    0.0956 C   0  0  0  0  0  0  0  0  0  0  0  0
   -0.2449    2.5684    0.5232 C   0  0  0  0  0  0  0  0  0  0  0  0
    1.0968    2.3459    0.6724 C   0  0  0  0  0  0  0  0  0  0  0  0
    2.0043    3.3153    1.1054 O   0  0  0  0  0  0  0  0  0  0  0  0
    1.5530    1.0731    0.3686 C   0  0  0  0  0  0  0  0  0  0  0  0
    0.6872    0.0885   -0.0628 C   0  0  0  0  0  0  0  0  0  0  0  0
   -0.6681    0.3397   -0.2047 C   0  0  0  0  0  0  0  0  0  0  0  0
    1.1892   -1.1599   -0.3557 O   0  0  0  0  0  0  0  0  0  0  0  0
    2.5356   -1.5214   -0.2117 C   0  0  0  0  0  0  0  0  0  0  0  0
    3.0112   -2.0882   -1.5331 C   0  0  0  0  0  0  0  0  0  0  0  0
    2.5856   -2.6952    0.7793 C   0  0  0  0  0  0  0  0  0  0  0  0
    3.4029   -0.4283    0.2501 C   0  0  0  0  0  0  0  0  0  0  0  0
    2.9624    0.7796    0.5227 C   0  0  0  0  0  0  0  0  0  0  0  0
  1  2  1  0
  2  3  1  0
  3  4  1  0
  4  5  2  0
  5  6  1  0
  6  7  2  0
  6  8  1  0
  8  9  1  0
  9 10  2  0
 10 11  1  0
 11 12  1  0
 11 13  2  0
 13 14  1  0
 14 15  2  0
 14 16  1  0
 16 17  1  0
 17 18  1  0
 17 19  1  0
 17 20  1  0
 20 21  2  0
 15  4  1  0
 15  9  1  0
 21 13  1  0
M  END
>  <zinc_id>  (1) 
ZINC000003585126

>  <smiles>  (1) 
CCCc1cc(=O)oc2cc(O)c3c(c12)OC(C)(C)C=C3

$$$$
