
     RDKit          3D

 21 23  0  0  0  0  0  0  0  0999 V2000
    4.7166   -2.8609   -0.0233 C   0  0  0  0  0  0  0  0  0  0  0  0
    3.7338   -2.0098   -0.5795 O   0  0  0  0  0  0  0  0  0  0  0  0
    3.0138   -1.0991    0.1798 C   0  0  0  0  0  0  0  0  0  0  0  0
    3.2069   -0.9577    1.5438 C   0  0  0  0  0  0  0  0  0  0  0  0
    2.4483   -0.0222    2.2461 C   0  0  0  0  0  0  0  0  0  0  0  0
    1.5177    0.7503    1.5836 C   0  0  0  0  0  0  0  0  0  0  0  0
    1.3435    0.6077    0.2919 C   0  0  0  0  0  0  0  0  0  0  0  0
    0.3181    1.4205   -0.5942 C   0  0  2  0  0  0  0  0  0  0  0  0
   -0.0792    2.5499    0.4628 C   0  0  0  0  0  0  0  0  0  0  0  0
   -1.2686    3.2183   -0.1588 C   0  0  0  0  0  0  0  0  0  0  0  0
   -1.2568    4.3629   -0.5881 O   0  0  0  0  0  0  0  0  0  0  0  0
   -2.4357    2.3513   -0.1926 N   0  0  0  0  0  0  0  0  0  0  0  0
   -2.1492    0.9569   -0.3305 C   0  0  0  0  0  0  0  0  0  0  0  0
   -3.2336    0.0624   -0.2775 C   0  0  0  0  0  0  0  0  0  0  0  0
   -3.0159   -1.2929   -0.3248 C   0  0  0  0  0  0  0  0  0  0  0  0
   -4.1153   -2.2916   -0.2733 C   0  0  0  0  0  0  0  0  0  0  0  0
   -1.7269   -1.7642   -0.4245 C   0  0  0  0  0  0  0  0  0  0  0  0
   -1.4984   -3.2622   -0.4744 C   0  0  0  0  0  0  0  0  0  0  0  0
   -0.6968   -0.8786   -0.4754 C   0  0  0  0  0  0  0  0  0  0  0  0
   -0.9089    0.4798   -0.4299 C   0  0  0  0  0  0  0  0  0  0  0  0
    2.0867   -0.3208   -0.4452 C   0  0  0  0  0  0  0  0  0  0  0  0
  1  2  1  0
  2  3  1  0
  3  4  2  0
  4  5  1  0
  5  6  2  0
  6  7  1  0
  8  7  1  1
  8  9  1  0
  9 10  1  0
 10 11  2  0
 10 12  1  0
 12 13  1  0
 13 14  2  0
 14 15  1  0
 15 16  1  0
 15 17  2  0
 17 18  1  0
 17 19  1  0
 19 20  2  0
  7 21  2  0
 21  3  1  0
 20  8  1  0
 20 13  1  0
M  END
>  <zinc_id>  (1) 
ZINC000000036530

>  <smiles>  (1) 
COc1cccc([C@@H]2CC(=O)Nc3cc(C)c(C)cc32)c1

$$$$
