
     RDKit          3D

 18 19  0  0  0  0  0  0  0  0999 V2000
    6.7490   -0.8026   -1.2108 C   0  0  0  0  0  0  0  0  0  0  0  0
    5.7427   -1.5246   -0.3854 C   0  0  0  0  0  0  0  0  0  0  0  0
    4.3795   -0.8403   -0.4213 C   0  0  0  0  0  0  0  0  0  0  0  0
    3.3966   -1.6220    0.4381 C   0  0  0  0  0  0  0  0  0  0  0  0
    2.0719   -0.9066    0.3682 C   0  0  0  0  0  0  0  0  0  0  0  0
    1.7530    0.0811    1.2747 C   0  0  0  0  0  0  0  0  0  0  0  0
    0.5378    0.7321    1.2048 C   0  0  0  0  0  0  0  0  0  0  0  0
   -0.4022    0.4324    0.2412 C   0  0  0  0  0  0  0  0  0  0  0  0
   -1.7081    1.1355    0.1700 C   0  0  0  0  0  0  0  0  0  0  0  0
   -1.7323    2.4950    0.2969 C   0  0  0  0  0  0  0  0  0  0  0  0
   -3.3849    2.8779    0.1587 S   0  0  0  0  0  0  0  0  0  0  0  0
   -4.0052    1.3091   -0.0563 C   0  0  0  0  0  0  0  0  0  0  0  0
   -5.3883    0.9278   -0.2388 N   0  0  0  0  0  0  0  0  0  0  0  0
   -2.8944    0.5150   -0.0145 C   0  0  0  0  0  0  0  0  0  0  0  0
   -3.0440   -0.9368   -0.1686 C   0  0  0  0  0  0  0  0  0  0  0  0
   -3.1531   -2.0974   -0.2798 N   0  0  0  0  0  0  0  0  0  0  0  0
   -0.0633   -0.5571   -0.6541 C   0  0  0  0  0  0  0  0  0  0  0  0
    1.1456   -1.2184   -0.5998 C   0  0  0  0  0  0  0  0  0  0  0  0
  1  2  1  0
  2  3  1  0
  3  4  1  0
  4  5  1  0
  5  6  2  0
  6  7  1  0
  7  8  2  0
  8  9  1  0
  9 10  2  0
 10 11  1  0
 11 12  1  0
 12 13  1  0
 12 14  2  0
 14 15  1  0
 15 16  3  0
  8 17  1  0
 17 18  2  0
 18  5  1  0
 14  9  1  0
M  END
>  <zinc_id>  (1) 
ZINC000002104894

>  <smiles>  (1) 
CCCCc1ccc(-c2csc(N)c2C#N)cc1

$$$$
