
     RDKit          3D

 21 23  0  0  0  0  0  0  0  0999 V2000
   -5.8497    1.2451   -1.2745 C   0  0  0  0  0  0  0  0  0  0  0  0
   -4.5056    0.8557   -0.7857 C   0  0  0  0  0  0  0  0  0  0  0  0
   -4.3066    0.8111    0.6777 C   0  0  0  0  0  0  0  0  0  0  0  0
   -3.7284   -0.0884   -1.6203 C   0  0  0  0  0  0  0  0  0  0  0  0
   -2.4200   -0.3296   -0.9176 C   0  0  0  0  0  0  0  0  0  0  0  0
   -1.2379    0.2053   -1.2200 N   0  0  0  0  0  0  0  0  0  0  0  0
   -0.3434   -0.2529   -0.3614 N   0  0  0  0  0  0  0  0  0  0  0  0
    1.0452    0.0842   -0.3521 C   0  0  0  0  0  0  0  0  0  0  0  0
    1.6917    0.4371    0.8157 C   0  0  0  0  0  0  0  0  0  0  0  0
    3.0269    0.7672    0.8422 C   0  0  0  0  0  0  0  0  0  0  0  0
    3.7817    0.7582   -0.3150 C   0  0  0  0  0  0  0  0  0  0  0  0
    5.1748    1.0872   -0.3283 N   0  0  0  0  0  4  0  0  0  0  0  0
    5.7397    1.4091    0.7266 O   0  0  0  0  0  0  0  0  0  0  0  0
    5.8511    1.0401   -1.5009 O   0  0  0  0  0  1  0  0  0  0  0  0
    3.1445    0.4091   -1.4728 C   0  0  0  0  0  0  0  0  0  0  0  0
    1.8072    0.0773   -1.5035 C   0  0  0  0  0  0  0  0  0  0  0  0
   -0.9189   -1.0912    0.5153 C   0  0  0  0  0  0  0  0  0  0  0  0
   -2.2591   -1.1539    0.1730 C   0  0  0  0  0  0  0  0  0  0  0  0
   -2.9752   -2.0600    1.0902 C   0  0  0  0  0  0  0  0  0  0  0  0
   -2.0053   -2.2732    2.2267 C   0  0  0  0  0  0  0  0  0  0  0  0
   -0.7125   -1.9375    1.6469 N   0  0  0  0  0  0  0  0  0  0  0  0
  1  2  1  0
  2  3  1  0
  2  4  1  0
  4  5  1  0
  5  6  2  0
  6  7  1  0
  7  8  1  0
  8  9  2  0
  9 10  1  0
 10 11  2  0
 11 12  1  0
 12 13  2  0
 12 14  1  0
 11 15  1  0
 15 16  2  0
  7 17  1  0
 17 18  2  0
 18 19  1  0
 19 20  1  0
 20 21  1  0
 18  5  1  0
 16  8  1  0
 21 17  1  0
M  CHG  2  12   1  14  -1
M  END
>  <zinc_id>  (1) 
ZINC000003701034

>  <smiles>  (1) 
CC(C)Cc1nn(-c2ccc([N+](=O)[O-])cc2)c2c1CCN2

$$$$
