
     RDKit          3D

 21 23  0  0  0  0  0  0  0  0999 V2000
   -4.3793    0.5783    1.2555 C   0  0  0  0  0  0  0  0  0  0  0  0
   -3.5438   -0.8398    1.0059 C   0  0  1  0  0  0  0  0  0  0  0  0
   -4.8517   -1.7704    0.7235 C   0  0  0  0  0  0  0  0  0  0  0  0
   -5.8257   -1.0458   -0.0357 C   0  0  0  0  0  0  0  0  0  0  0  0
   -6.9309   -0.7089    0.4202 O   0  0  0  0  0  0  0  0  0  0  0  0
   -5.4085   -0.7379   -1.3902 N   0  0  0  0  0  0  0  0  0  0  0  0
   -4.0215   -0.5016   -1.4347 N   0  0  0  0  0  0  0  0  0  0  0  0
   -3.1900   -0.5223   -0.5210 C   0  0  0  0  0  0  0  0  0  0  0  0
   -1.7524   -0.2502   -0.7483 C   0  0  0  0  0  0  0  0  0  0  0  0
   -0.8592   -0.2650    0.1890 C   0  0  0  0  0  0  0  0  0  0  0  0
    0.5553   -0.0053    0.0120 C   0  0  0  0  0  0  0  0  0  0  0  0
    1.1173    0.2935   -1.2065 C   0  0  0  0  0  0  0  0  0  0  0  0
    2.4910    0.5346   -1.3125 C   0  0  0  0  0  0  0  0  0  0  0  0
    3.3036    0.4751   -0.1895 C   0  0  0  0  0  0  0  0  0  0  0  0
    4.7012    0.7218   -0.3066 N   0  0  0  0  0  0  0  0  0  0  0  0
    5.4708    1.1146    0.7072 C   0  0  0  0  0  0  0  0  0  0  0  0
    6.7676    1.2557    0.2300 C   0  0  0  0  0  0  0  0  0  0  0  0
    6.7528    0.9390   -1.0873 N   0  0  0  0  0  0  0  0  0  0  0  0
    5.4781    0.6166   -1.3894 C   0  0  0  0  0  0  0  0  0  0  0  0
    2.7421    0.1754    1.0348 C   0  0  0  0  0  0  0  0  0  0  0  0
    1.3831   -0.0573    1.1061 C   0  0  0  0  0  0  0  0  0  0  0  0
  2  1  1  1
  2  3  1  0
  3  4  1  0
  4  5  2  0
  4  6  1  0
  6  7  1  0
  7  8  2  0
  8  9  1  0
  9 10  2  0
 10 11  1  0
 11 12  2  0
 12 13  1  0
 13 14  2  0
 14 15  1  0
 15 16  1  0
 16 17  2  0
 17 18  1  0
 18 19  2  0
 14 20  1  0
 20 21  2  0
  8  2  1  0
 21 11  1  0
 19 15  1  0
M  END
>  <zinc_id>  (1) 
ZINC000000003978

>  <smiles>  (1) 
C[C@H]1CC(=O)NN=C1/C=C/c1ccc(-n2ccnc2)cc1

$$$$
