
     RDKit          3D

 19 20  0  0  0  0  0  0  0  0999 V2000
   -3.8404   -1.6065    0.8269 C   0  0  0  0  0  0  0  0  0  0  0  0
   -2.6093   -0.9673    0.2654 C   0  0  0  0  0  0  0  0  0  0  0  0
   -1.5356   -1.7174   -0.1788 C   0  0  0  0  0  0  0  0  0  0  0  0
   -0.4083   -1.1205   -0.6936 C   0  0  0  0  0  0  0  0  0  0  0  0
    0.6760   -1.8508   -1.1431 O   0  0  0  0  0  0  0  0  0  0  0  0
    1.8194   -1.2328   -1.6660 C   0  0  0  0  0  0  0  0  0  0  0  0
    2.4826   -0.3440   -0.7345 N   0  0  0  0  0  0  0  0  0  0  0  0
    2.3031    0.9487   -0.5198 N   0  0  0  0  0  0  0  0  0  0  0  0
    3.1228    1.4004    0.4341 C   0  0  0  0  0  0  0  0  0  0  0  0
    3.2650    2.7039    0.9723 N   0  0  0  0  0  0  0  0  0  0  0  0
    3.8625    0.3164    0.8407 C   0  0  0  0  0  0  0  0  0  0  0  0
    3.4566   -0.7792    0.1030 C   0  0  0  0  0  0  0  0  0  0  0  0
    4.0056   -2.1555    0.2310 C   0  0  0  0  0  0  0  0  0  0  0  0
   -0.4062    0.2581   -0.7427 C   0  0  0  0  0  0  0  0  0  0  0  0
   -1.4653    1.0249   -0.3055 C   0  0  0  0  0  0  0  0  0  0  0  0
   -2.5853    0.4196    0.2063 C   0  0  0  0  0  0  0  0  0  0  0  0
   -3.7745    1.1957    0.7003 C   0  0  0  0  0  0  0  0  0  0  0  0
   -3.4463    2.6551    0.4949 C   0  0  0  0  0  0  0  0  0  0  0  0
   -4.9224    0.8512   -0.2452 C   0  0  0  0  0  0  0  0  0  0  0  0
  1  2  1  0
  2  3  2  0
  3  4  1  0
  4  5  1  0
  5  6  1  0
  6  7  1  0
  7  8  1  0
  8  9  2  0
  9 10  1  0
  9 11  1  0
 11 12  2  0
 12 13  1  0
  4 14  2  0
 14 15  1  0
 15 16  2  0
 16 17  1  0
 17 18  1  0
 17 19  1  0
 16  2  1  0
 12  7  1  0
M  END
>  <zinc_id>  (1) 
ZINC000002534955

>  <smiles>  (1) 
Cc1cc(OCn2nc(N)cc2C)ccc1C(C)C

$$$$
