
     RDKit          3D

 22 25  0  0  0  0  0  0  0  0999 V2000
   -6.8496    0.4768    2.0432 C   0  0  0  0  0  0  0  0  0  0  0  0
   -6.2789    0.1042    0.8284 O   0  0  0  0  0  0  0  0  0  0  0  0
   -4.9122   -0.2122    0.6864 C   0  0  0  0  0  0  0  0  0  0  0  0
   -4.4061   -0.5732   -0.5377 C   0  0  0  0  0  0  0  0  0  0  0  0
   -3.0382   -0.8935   -0.6971 C   0  0  0  0  0  0  0  0  0  0  0  0
   -2.2127   -0.8419    0.3835 C   0  0  0  0  0  0  0  0  0  0  0  0
   -0.6817   -1.1976    0.2186 C   0  0  1  0  0  0  0  0  0  0  0  0
   -0.4560   -0.3518   -1.1175 N   0  0  0  0  0  0  0  0  0  0  0  0
    0.9340   -0.2413   -1.4152 C   0  0  0  0  0  0  0  0  0  0  0  0
    1.3660   -0.3572   -2.6043 O   0  0  0  0  0  0  0  0  0  0  0  0
    1.9143    0.0157   -0.3190 C   0  0  0  0  0  0  0  0  0  0  0  0
    1.3203    0.1173    0.9063 C   0  0  0  0  0  0  0  0  0  0  0  0
    2.6852    0.4190    1.9274 S   0  0  0  0  0  0  0  0  0  0  0  0
    3.9316    0.4027    0.7647 C   0  0  0  0  0  0  0  0  0  0  0  0
    3.2540    0.1612   -0.3974 C   0  0  0  0  0  0  0  0  0  0  0  0
    4.1907    0.1016   -1.6069 C   0  0  0  0  0  0  0  0  0  0  0  0
    4.8769    1.4531   -1.6177 C   0  0  0  0  0  0  0  0  0  0  0  0
    5.8192    1.5157   -0.4199 C   0  0  0  0  0  0  0  0  0  0  0  0
    5.4084    0.5625    0.6707 C   0  0  0  0  0  0  0  0  0  0  0  0
   -0.1026   -0.0098    1.1244 N   0  0  0  0  0  0  0  0  0  0  0  0
   -2.6980   -0.4860    1.6039 C   0  0  0  0  0  0  0  0  0  0  0  0
   -4.0647   -0.1652    1.7672 C   0  0  0  0  0  0  0  0  0  0  0  0
  1  2  1  0
  2  3  1  0
  3  4  2  0
  4  5  1  0
  5  6  2  0
  7  6  1  6
  7  8  1  0
  8  9  1  0
  9 10  2  0
  9 11  1  0
 11 12  2  0
 12 13  1  0
 13 14  1  0
 14 15  2  0
 15 16  1  0
 16 17  1  0
 17 18  1  0
 18 19  1  0
 12 20  1  0
  6 21  1  0
 21 22  2  0
 22  3  1  0
 20  7  1  0
 15 11  1  0
 19 14  1  0
M  END
>  <zinc_id>  (1) 
ZINC000000565630

>  <smiles>  (1) 
COc1ccc([C@@H]2NC(=O)c3c(sc4c3CCCC4)N2)cc1

$$$$
