
     RDKit          3D

 19 20  0  0  0  0  0  0  0  0999 V2000
    1.9785    2.2114   -1.8703 C   0  0  0  0  0  0  0  0  0  0  0  0
    2.1339    1.5941   -0.5093 C   0  0  0  0  0  0  0  0  0  0  0  0
    1.6048    2.5522    0.5609 C   0  0  0  0  0  0  0  0  0  0  0  0
    3.6153    1.3938   -0.2651 C   0  0  0  0  0  0  0  0  0  0  0  0
    1.4052    0.3913   -0.3796 O   0  0  0  0  0  0  0  0  0  0  0  0
    1.3981   -0.3599    0.7969 C   0  0  0  0  0  0  0  0  0  0  0  0
    2.1134    0.1547    1.7281 O   0  0  0  0  0  0  0  0  0  0  0  0
    0.7065   -1.5256    0.9581 N   0  0  0  0  0  0  0  0  0  0  0  0
    0.6012   -2.3829    2.0633 C   0  0  0  0  0  0  0  0  0  0  0  0
   -0.2742   -3.5485    1.6266 C   0  0  0  0  0  0  0  0  0  0  0  0
   -1.2767   -2.8276    0.7833 C   0  0  0  0  0  0  0  0  0  0  0  0
   -0.1420   -2.1090   -0.2031 C   0  0  1  0  0  0  0  0  0  0  0  0
   -1.0331   -0.7808   -0.4584 C   0  0  0  0  0  0  0  0  0  0  0  0
   -1.2050   -0.4105   -1.7631 C   0  0  0  0  0  0  0  0  0  0  0  0
   -1.9723    0.7339   -1.9649 C   0  0  0  0  0  0  0  0  0  0  0  0
   -2.5121    1.4303   -0.9058 C   0  0  0  0  0  0  0  0  0  0  0  0
   -3.3032    2.6151   -1.1688 N   0  0  0  0  0  0  0  0  0  0  0  0
   -2.2974    0.9988    0.3809 C   0  0  0  0  0  0  0  0  0  0  0  0
   -1.5408   -0.1307    0.5904 C   0  0  0  0  0  0  0  0  0  0  0  0
  1  2  1  0
  2  3  1  0
  2  4  1  0
  2  5  1  0
  5  6  1  0
  6  7  2  0
  6  8  1  0
  8  9  1  0
  9 10  1  0
 10 11  1  0
 11 12  1  0
 12 13  1  6
 13 14  2  0
 14 15  1  0
 15 16  2  0
 16 17  1  0
 16 18  1  0
 18 19  2  0
 12  8  1  0
 19 13  1  0
M  END
>  <zinc_id>  (1) 
ZINC000002509821

>  <smiles>  (1) 
CC(C)(C)OC(=O)N1CCC[C@H]1c1ccc(N)cc1

$$$$
