
     RDKit          3D

 33 36  0  0  0  0  0  0  0  0999 V2000
    6.6543   -3.2037    0.0667 C   0  0  0  0  0  0  0  0  0  0  0  0
    7.3420   -2.0151    0.6924 C   0  0  0  0  0  0  0  0  0  0  0  0
    6.8578   -0.8163    0.0721 O   0  0  0  0  0  0  0  0  0  0  0  0
    5.4912   -0.5772    0.1794 C   0  0  0  0  0  0  0  0  0  0  0  0
    4.9197    0.5595   -0.3839 C   0  0  0  0  0  0  0  0  0  0  0  0
    3.5758    0.8266   -0.2962 C   0  0  0  0  0  0  0  0  0  0  0  0
    2.7508   -0.0393    0.3620 C   0  0  0  0  0  0  0  0  0  0  0  0
    1.3441    0.2264    0.5001 N   0  0  0  0  0  0  0  0  0  0  0  0
    0.2798   -0.6302    0.8530 C   0  0  0  0  0  0  0  0  0  0  0  0
    0.4054   -1.8771    1.1074 O   0  0  0  0  0  0  0  0  0  0  0  0
   -0.9411    0.1190    0.8794 C   0  0  0  0  0  0  0  0  0  0  0  0
   -2.2165   -0.3464    1.1905 N   0  0  0  0  0  0  0  0  0  0  0  0
   -2.8828   -1.4819    0.6777 C   0  0  0  0  0  0  0  0  0  0  0  0
   -2.3302   -2.4097   -0.1722 C   0  0  0  0  0  0  0  0  0  0  0  0
   -3.0427   -3.4985   -0.6533 C   0  0  0  0  0  0  0  0  0  0  0  0
   -4.3642   -3.7051   -0.2939 C   0  0  0  0  0  0  0  0  0  0  0  0
   -5.1647   -4.8620   -0.7956 C   0  0  0  0  0  0  0  0  0  0  0  0
   -5.4980   -4.7268   -2.2601 C   0  0  0  0  0  0  0  0  0  0  0  0
   -4.4927   -6.1721   -0.5472 C   0  0  0  0  0  0  0  0  0  0  0  0
   -4.9269   -2.7800    0.5585 C   0  0  0  0  0  0  0  0  0  0  0  0
   -4.2205   -1.7023    1.0333 C   0  0  0  0  0  0  0  0  0  0  0  0
   -0.6919    1.4021    0.5588 C   0  0  0  0  0  0  0  0  0  0  0  0
   -1.9647    2.6190    0.4928 S   0  0  0  0  0  0  0  0  0  0  0  0
   -1.4326    4.2365    0.1306 C   0  0  0  0  0  0  0  0  0  0  0  0
   -2.4163    5.2404    0.1093 C   0  0  0  0  0  0  0  0  0  0  0  0
   -2.1241    6.5357   -0.1562 C   0  0  0  0  0  0  0  0  0  0  0  0
   -0.8561    6.9545   -0.4213 C   0  0  0  0  0  0  0  0  0  0  0  0
    0.1382    5.9785   -0.4068 C   0  0  0  0  0  0  0  0  0  0  0  0
   -0.1672    4.6604   -0.1347 C   0  0  0  0  0  0  0  0  0  0  0  0
    0.7215    1.5219    0.3121 C   0  0  0  0  0  0  0  0  0  0  0  0
    1.3800    2.5462   -0.0165 O   0  0  0  0  0  0  0  0  0  0  0  0
    3.2596   -1.1706    0.9336 C   0  0  0  0  0  0  0  0  0  0  0  0
    4.6131   -1.4124    0.8290 C   0  0  0  0  0  0  0  0  0  0  0  0
  1  2  1  0
  2  3  1  0
  3  4  1  0
  4  5  2  0
  5  6  1  0
  6  7  2  0
  7  8  1  0
  8  9  1  0
  9 10  2  0
  9 11  1  0
 11 12  1  0
 12 13  1  0
 13 14  2  0
 14 15  1  0
 15 16  2  0
 16 17  1  0
 17 18  1  0
 17 19  1  0
 16 20  1  0
 20 21  2  0
 11 22  2  0
 22 23  1  0
 23 24  1  0
 24 25  2  0
 25 26  1  0
 26 27  2  0
 27 28  1  0
 28 29  2  0
 22 30  1  0
 30 31  2  0
  7 32  1  0
 32 33  2  0
 33  4  1  0
 30  8  1  0
 21 13  1  0
 29 24  1  0
M  END
>  <zinc_id>  (1) 
ZINC000001954513

>  <smiles>  (1) 
CCOc1ccc(N2C(=O)C(Nc3ccc(C(C)C)cc3)=C(Sc3ccccc3)C2=O)cc1

$$$$
