
     RDKit          3D

 20 21  0  0  0  0  0  0  0  0999 V2000
   -2.3997    1.7095    1.4184 C   0  0  0  0  0  0  0  0  0  0  0  0
   -3.0172    0.2172    1.8268 C   0  0  2  0  0  0  0  0  0  0  0  0
   -2.0803   -0.7597    0.8248 C   0  0  0  0  0  0  0  0  0  0  0  0
   -1.1692    0.3955    0.0932 C   0  0  1  0  0  0  0  0  0  0  0  0
   -0.2645   -0.5338   -0.6633 O   0  0  0  0  0  0  0  0  0  0  0  0
    0.5813   -1.1645    0.1515 C   0  0  0  0  0  0  0  0  0  0  0  0
    0.4822   -1.0947    1.3396 O   0  0  0  0  0  0  0  0  0  0  0  0
    1.7389   -1.9639   -0.6437 C   0  0  2  0  0  0  0  0  0  0  0  0
    2.4069   -2.5992    0.6272 O   0  0  0  0  0  0  0  0  0  0  0  0
    2.7921   -0.6941   -0.5162 C   0  0  0  0  0  0  0  0  0  0  0  0
    2.3548    0.5092   -0.1129 C   0  0  0  0  0  0  0  0  0  0  0  0
    3.3067    1.4990   -0.0458 C   0  0  0  0  0  0  0  0  0  0  0  0
    4.6312    1.3206   -0.3500 C   0  0  0  0  0  0  0  0  0  0  0  0
    4.9718    0.0350   -0.7438 C   0  0  0  0  0  0  0  0  0  0  0  0
    4.0577   -1.0004   -0.8343 C   0  0  0  0  0  0  0  0  0  0  0  0
   -2.3310    0.3889   -1.2169 C   0  0  0  0  0  0  0  0  0  0  0  0
   -3.5863    0.8160   -0.6057 C   0  0  0  0  0  0  0  0  0  0  0  0
   -3.7182    2.3434   -0.7920 C   0  0  0  0  0  0  0  0  0  0  0  0
   -4.5971    0.2608   -1.6499 C   0  0  0  0  0  0  0  0  0  0  0  0
   -4.1603    0.3152    0.6123 C   0  0  0  0  0  0  0  0  0  0  0  0
  2  1  1  6
  2  3  1  0
  3  4  1  0
  4  5  1  6
  5  6  1  0
  6  7  2  0
  6  8  1  0
  8  9  1  1
  8 10  1  0
 10 11  2  0
 11 12  1  0
 12 13  2  0
 13 14  1  0
 14 15  2  0
  4 16  1  0
 16 17  1  0
 17 18  1  0
 17 19  1  0
 17 20  1  0
 20  2  1  0
 15 10  1  0
M  END
>  <zinc_id>  (1) 
ZINC000000000189

>  <smiles>  (1) 
C[C@@H]1C[C@@H](OC(=O)[C@H](O)c2ccccc2)CC(C)(C)C1

$$$$
