
     RDKit          3D

 20 21  0  0  0  0  0  0  0  0999 V2000
   -4.0744    2.6467    1.4391 C   0  0  0  0  0  0  0  0  0  0  0  0
   -3.1342    1.7646    0.9044 O   0  0  0  0  0  0  0  0  0  0  0  0
   -3.4319    0.4952    0.4336 C   0  0  0  0  0  0  0  0  0  0  0  0
   -4.6152    0.1196    0.4928 O   0  0  0  0  0  0  0  0  0  0  0  0
   -2.3525   -0.3663   -0.1180 C   0  0  0  0  0  0  0  0  0  0  0  0
   -2.6346   -1.6193   -0.5828 C   0  0  0  0  0  0  0  0  0  0  0  0
   -1.6487   -2.4235   -1.0930 C   0  0  0  0  0  0  0  0  0  0  0  0
   -2.0428   -3.7682   -1.5749 C   0  0  0  0  0  0  0  0  0  0  0  0
   -0.3884   -1.9415   -1.1233 C   0  0  0  0  0  0  0  0  0  0  0  0
   -0.0235   -0.6360   -0.6519 C   0  0  0  0  0  0  0  0  0  0  0  0
    1.2114   -0.2686   -0.7246 O   0  0  0  0  0  0  0  0  0  0  0  0
    2.4417    0.0975   -0.7971 C   0  0  0  0  0  0  0  0  0  0  0  0
    3.3470   -0.8562   -1.3567 C   0  0  0  0  0  0  0  0  0  0  0  0
    4.6708   -0.6274   -1.5031 C   0  0  0  0  0  0  0  0  0  0  0  0
    5.1459    0.5937   -1.0842 C   0  0  0  0  0  0  0  0  0  0  0  0
    4.3216    1.5379   -0.5433 C   0  0  0  0  0  0  0  0  0  0  0  0
    2.9813    1.3005   -0.3974 C   0  0  0  0  0  0  0  0  0  0  0  0
    2.1492    2.3362    0.1828 N   0  0  0  0  0  0  0  0  0  0  0  0
   -1.0825    0.1099   -0.1525 C   0  0  0  0  0  0  0  0  0  0  0  0
   -0.8401    1.5053    0.3778 C   0  0  0  0  0  0  0  0  0  0  0  0
  1  2  1  0
  2  3  1  0
  3  4  2  0
  3  5  1  0
  5  6  2  0
  6  7  1  0
  7  8  1  0
  7  9  2  0
  9 10  1  0
 10 11  1  0
 11 12  1  0
 12 13  2  0
 13 14  1  0
 14 15  2  0
 15 16  1  0
 16 17  2  0
 17 18  1  0
 10 19  2  0
 19 20  1  0
 19  5  1  0
 17 12  1  0
M  END
>  <zinc_id>  (1) 
ZINC000001699583

>  <smiles>  (1) 
COC(=O)c1cc(C)cc(Oc2ccccc2N)c1C

$$$$
