
     RDKit          3D

 21 22  0  0  0  0  0  0  0  0999 V2000
   -2.8700   -1.4664   -2.3506 C   0  0  0  0  0  0  0  0  0  0  0  0
   -2.6119    0.0159   -2.1558 C   0  0  0  0  0  0  0  0  0  0  0  0
   -3.1716    0.4171   -0.8323 C   0  0  0  0  0  0  0  0  0  0  0  0
   -4.3502    1.1136   -0.7036 C   0  0  0  0  0  0  0  0  0  0  0  0
   -4.8479    1.4737    0.5407 C   0  0  0  0  0  0  0  0  0  0  0  0
   -4.1272    1.1146    1.6701 C   0  0  0  0  0  0  0  0  0  0  0  0
   -2.9439    0.4150    1.5376 C   0  0  0  0  0  0  0  0  0  0  0  0
   -2.1618    0.0256    2.7418 C   0  0  0  0  0  0  0  0  0  0  0  0
   -2.4625    0.0648    0.2962 C   0  0  0  0  0  0  0  0  0  0  0  0
   -1.2250   -0.6662    0.1486 N   0  0  0  0  0  0  0  0  0  0  0  0
   -0.0024    0.0642    0.0276 C   0  0  0  0  0  0  0  0  0  0  0  0
   -0.0764    1.3111    0.0574 O   0  0  0  0  0  0  0  0  0  0  0  0
    1.2893   -0.5704   -0.1253 C   0  0  0  0  0  0  0  0  0  0  0  0
    1.4587   -1.9349   -0.2153 C   0  0  0  0  0  0  0  0  0  0  0  0
    2.7343   -2.4527   -0.3583 C   0  0  0  0  0  0  0  0  0  0  0  0
    3.8436   -1.6316   -0.4129 C   0  0  0  0  0  0  0  0  0  0  0  0
    3.6870   -0.2524   -0.3231 C   0  0  0  0  0  0  0  0  0  0  0  0
    4.8174    0.6037   -0.3757 N   0  0  0  0  0  4  0  0  0  0  0  0
    5.9795    0.1819   -0.5039 O   0  0  0  0  0  0  0  0  0  0  0  0
    4.6277    1.9572   -0.2814 O   0  0  0  0  0  1  0  0  0  0  0  0
    2.4131    0.2166   -0.1831 C   0  0  0  0  0  0  0  0  0  0  0  0
  1  2  1  0
  2  3  1  0
  3  4  2  0
  4  5  1  0
  5  6  2  0
  6  7  1  0
  7  8  1  0
  7  9  2  0
  9 10  1  0
 10 11  1  0
 11 12  2  0
 11 13  1  0
 13 14  2  0
 14 15  1  0
 15 16  2  0
 16 17  1  0
 17 18  1  0
 18 19  2  0
 18 20  1  0
 17 21  2  0
  9  3  1  0
 21 13  1  0
M  CHG  2  18   1  20  -1
M  END
>  <zinc_id>  (1) 
ZINC000000580874

>  <smiles>  (1) 
CCc1cccc(C)c1NC(=O)c1cccc([N+](=O)[O-])c1

$$$$
