
     RDKit          3D

 32 35  0  0  0  0  0  0  0  0999 V2000
   -6.8457   -1.4138   -0.8809 C   0  0  0  0  0  0  0  0  0  0  0  0
   -5.8949   -0.5039   -0.4923 O   0  0  0  0  0  0  0  0  0  0  0  0
   -5.8450    0.7734   -0.1326 C   0  0  0  0  0  0  0  0  0  0  0  0
   -6.9986    1.5626   -0.0355 C   0  0  0  0  0  0  0  0  0  0  0  0
   -6.9515    2.8788    0.3466 C   0  0  0  0  0  0  0  0  0  0  0  0
   -5.7376    3.4811    0.6534 C   0  0  0  0  0  0  0  0  0  0  0  0
   -4.6292    2.6823    0.5486 C   0  0  0  0  0  0  0  0  0  0  0  0
   -4.6299    1.3607    0.1713 C   0  0  0  0  0  0  0  0  0  0  0  0
   -3.3725    0.6335    0.1195 C   0  0  0  0  0  0  0  0  0  0  0  0
   -2.3162    1.2765    0.4377 O   0  0  0  0  0  0  0  0  0  0  0  0
   -3.1916   -0.7006   -0.2399 N   0  0  0  0  0  0  0  0  0  0  0  0
   -1.9365   -1.3675   -0.2536 C   0  0  0  0  0  0  0  0  0  0  0  0
   -1.4147   -2.0974    0.8309 C   0  0  0  0  0  0  0  0  0  0  0  0
   -2.0648   -2.2948    2.1322 C   0  0  0  0  0  0  0  0  0  0  0  0
   -0.2428   -2.5502    0.4289 N   0  0  0  0  0  0  0  0  0  0  0  0
    0.0568   -2.1956   -0.7951 N   0  0  0  0  0  0  0  0  0  0  0  0
    1.3183   -2.5662   -1.4759 C   0  0  0  0  0  0  0  0  0  0  0  0
    2.3559   -1.5398   -1.2023 C   0  0  0  0  0  0  0  0  0  0  0  0
    2.6614   -0.5950   -2.1935 C   0  0  0  0  0  0  0  0  0  0  0  0
    3.6127    0.3324   -1.8467 C   0  0  0  0  0  0  0  0  0  0  0  0
    4.2462    0.3755   -0.6497 C   0  0  0  0  0  0  0  0  0  0  0  0
    3.9213   -0.5850    0.3238 C   0  0  0  0  0  0  0  0  0  0  0  0
    4.5091   -0.6095    1.5576 O   0  0  0  0  0  0  0  0  0  0  0  0
    5.4519    0.2946    2.0110 C   0  0  0  0  0  0  0  0  0  0  0  0
    5.9187    1.2978    1.1447 C   0  0  0  0  0  0  0  0  0  0  0  0
    6.8540    2.2305    1.5215 C   0  0  0  0  0  0  0  0  0  0  0  0
    7.3498    2.1813    2.7835 C   0  0  0  0  0  0  0  0  0  0  0  0
    6.9086    1.2068    3.6532 C   0  0  0  0  0  0  0  0  0  0  0  0
    5.9759    0.2782    3.2774 C   0  0  0  0  0  0  0  0  0  0  0  0
    2.9815   -1.5168    0.0109 C   0  0  0  0  0  0  0  0  0  0  0  0
   -0.9785   -1.4671   -1.2275 C   0  0  0  0  0  0  0  0  0  0  0  0
   -1.0722   -0.8427   -2.5784 C   0  0  0  0  0  0  0  0  0  0  0  0
  1  2  1  0
  2  3  1  0
  3  4  2  0
  4  5  1  0
  5  6  2  0
  6  7  1  0
  7  8  2  0
  8  9  1  0
  9 10  2  0
  9 11  1  0
 11 12  1  0
 12 13  1  0
 13 14  1  0
 13 15  2  0
 15 16  1  0
 16 17  1  0
 17 18  1  0
 18 19  2  0
 19 20  1  0
 20 21  2  0
 21 22  1  0
 22 23  1  0
 23 24  1  0
 24 25  2  0
 25 26  1  0
 26 27  2  0
 27 28  1  0
 28 29  2  0
 22 30  2  0
 16 31  1  0
 31 32  1  0
  8  3  1  0
 31 12  2  0
 30 18  1  0
 29 24  1  0
M  END
>  <zinc_id>  (1) 
ZINC000000675759

>  <smiles>  (1) 
COc1ccccc1C(=O)Nc1c(C)nn(Cc2cccc(Oc3ccccc3)c2)c1C

$$$$
