
     RDKit          3D

 21 22  0  0  0  0  0  0  0  0999 V2000
   -2.5877   -1.8759   -1.4654 C   0  0  0  0  0  0  0  0  0  0  0  0
   -3.2738   -0.7326   -0.8031 C   0  0  0  0  0  0  0  0  0  0  0  0
   -4.6525   -0.7333   -0.5973 C   0  0  0  0  0  0  0  0  0  0  0  0
   -5.2094    0.3704    0.0319 C   0  0  0  0  0  0  0  0  0  0  0  0
   -4.4334    1.4135    0.4282 C   0  0  0  0  0  0  0  0  0  0  0  0
   -3.0536    1.3770    0.2079 C   0  0  0  0  0  0  0  0  0  0  0  0
   -2.1959    2.5112    0.6456 C   0  0  0  0  0  0  0  0  0  0  0  0
   -2.4561    0.3166   -0.4061 C   0  0  0  0  0  0  0  0  0  0  0  0
   -1.0507    0.2713   -0.6722 N   0  0  0  0  0  0  0  0  0  0  0  0
   -0.3112   -0.7129    0.0298 C   0  0  0  0  0  0  0  0  0  0  0  0
   -0.9276   -1.5026    0.8510 O   0  0  0  0  0  0  0  0  0  0  0  0
    1.1166   -0.8729   -0.1607 C   0  0  0  0  0  0  0  0  0  0  0  0
    1.6259   -2.0840   -0.6609 C   0  0  0  0  0  0  0  0  0  0  0  0
    2.9754   -2.2571   -0.9176 C   0  0  0  0  0  0  0  0  0  0  0  0
    3.8363   -1.2095   -0.6734 C   0  0  0  0  0  0  0  0  0  0  0  0
    3.3760    0.0006   -0.1780 C   0  0  0  0  0  0  0  0  0  0  0  0
    4.2541    1.0615    0.1307 N   0  0  0  0  0  4  0  0  0  0  0  0
    3.8840    2.2398    0.0237 O   0  0  0  0  0  0  0  0  0  0  0  0
    5.5414    0.8232    0.5695 O   0  0  0  0  0  1  0  0  0  0  0  0
    2.0050    0.1456    0.0716 C   0  0  0  0  0  0  0  0  0  0  0  0
    1.5372    1.4503    0.6071 C   0  0  0  0  0  0  0  0  0  0  0  0
  1  2  1  0
  2  3  2  0
  3  4  1  0
  4  5  2  0
  5  6  1  0
  6  7  1  0
  6  8  2  0
  8  9  1  0
  9 10  1  0
 10 11  2  0
 10 12  1  0
 12 13  2  0
 13 14  1  0
 14 15  2  0
 15 16  1  0
 16 17  1  0
 17 18  2  0
 17 19  1  0
 16 20  2  0
 20 21  1  0
  8  2  1  0
 20 12  1  0
M  CHG  2  17   1  19  -1
M  END
>  <zinc_id>  (1) 
ZINC000000311393

>  <smiles>  (1) 
Cc1cccc(C)c1NC(=O)c1cccc([N+](=O)[O-])c1C

$$$$
