
     RDKit          3D

 21 24  0  0  0  0  0  0  0  0999 V2000
   -5.9442    0.2507   -1.7408 F   0  0  0  0  0  0  0  0  0  0  0  0
   -4.6276    0.4481   -1.5129 C   0  0  0  0  0  0  0  0  0  0  0  0
   -3.9729    1.4712   -2.1668 C   0  0  0  0  0  0  0  0  0  0  0  0
   -2.6292    1.6969   -1.9544 C   0  0  0  0  0  0  0  0  0  0  0  0
   -1.9412    0.8745   -1.0677 C   0  0  0  0  0  0  0  0  0  0  0  0
   -0.6387    0.8465   -0.6570 N   0  0  0  0  0  0  0  0  0  0  0  0
   -0.4611   -0.1524    0.2243 C   0  0  0  0  0  0  0  0  0  0  0  0
    0.6104   -0.6364    0.9445 C   0  0  0  0  0  0  0  0  0  0  0  0
    1.8896   -0.0413    0.8313 N   0  0  0  0  0  0  0  0  0  0  0  0
    2.9973   -0.5744    1.6029 C   0  0  0  0  0  0  0  0  0  0  0  0
    4.2028    0.4711    1.0944 C   0  0  1  0  0  0  0  0  0  0  0  0
    5.4006   -0.6726    1.3424 C   0  0  0  0  0  0  0  0  0  0  0  0
    6.2077   -0.4091    0.0760 C   0  0  0  0  0  0  0  0  0  0  0  0
    5.2955    0.4011   -0.8089 C   0  0  0  0  0  0  0  0  0  0  0  0
    4.0330    0.0371   -0.3826 O   0  0  0  0  0  0  0  0  0  0  0  0
    0.4216   -1.6862    1.7590 N   0  0  0  0  0  0  0  0  0  0  0  0
   -0.7724   -2.2767    1.8937 C   0  0  0  0  0  0  0  0  0  0  0  0
   -1.8098   -1.8213    1.2074 N   0  0  0  0  0  0  0  0  0  0  0  0
   -1.6764   -0.7681    0.3735 C   0  0  0  0  0  0  0  0  0  0  0  0
   -2.6181   -0.1404   -0.4272 C   0  0  0  0  0  0  0  0  0  0  0  0
   -3.9669   -0.3779   -0.6313 C   0  0  0  0  0  0  0  0  0  0  0  0
  1  2  1  0
  2  3  2  0
  3  4  1  0
  4  5  2  0
  5  6  1  0
  6  7  1  0
  7  8  2  0
  8  9  1  0
  9 10  1  0
 11 10  1  1
 11 12  1  0
 12 13  1  0
 13 14  1  0
 14 15  1  0
  8 16  1  0
 16 17  2  0
 17 18  1  0
 18 19  2  0
 19 20  1  0
 20 21  2  0
 21  2  1  0
 20  5  1  0
 19  7  1  0
 15 11  1  0
M  END
>  <zinc_id>  (1) 
ZINC000000538840

>  <smiles>  (1) 
Fc1ccc2[nH]c3c(NC[C@H]4CCCO4)ncnc3c2c1

$$$$
