
     RDKit          3D

 21 23  0  0  0  0  0  0  0  0999 V2000
   -4.1492   -0.2709   -0.1970 C   0  0  0  0  0  0  0  0  0  0  0  0
   -4.1652   -1.5143    0.9034 C   0  0  1  0  0  0  0  0  0  0  0  0
   -3.4457   -2.5109   -0.0745 N   0  0  0  0  0  0  0  0  0  0  0  0
   -2.2314   -1.9485   -0.4530 C   0  0  0  0  0  0  0  0  0  0  0  0
   -1.4525   -2.1353   -1.6284 C   0  0  0  0  0  0  0  0  0  0  0  0
   -0.2589   -1.4656   -1.7640 C   0  0  0  0  0  0  0  0  0  0  0  0
    0.1822   -0.6076   -0.7502 C   0  0  0  0  0  0  0  0  0  0  0  0
    1.4475    0.0924   -0.9074 C   0  0  0  0  0  0  0  0  0  0  0  0
    2.4375   -0.5488   -1.6188 C   0  0  0  0  0  0  0  0  0  0  0  0
    3.6748    0.0285   -1.8270 C   0  0  0  0  0  0  0  0  0  0  0  0
    3.8995    1.2654   -1.3059 C   0  0  0  0  0  0  0  0  0  0  0  0
    2.9615    1.9531   -0.5922 C   0  0  0  0  0  0  0  0  0  0  0  0
    3.2250    3.2429   -0.0616 N   0  0  0  0  0  4  0  0  0  0  0  0
    2.3947    3.8865    0.5846 O   0  0  0  0  0  0  0  0  0  0  0  0
    4.4591    3.8051   -0.2744 O   0  0  0  0  0  1  0  0  0  0  0  0
    1.7273    1.3408   -0.4024 C   0  0  0  0  0  0  0  0  0  0  0  0
   -0.6156   -0.4733    0.3541 C   0  0  0  0  0  0  0  0  0  0  0  0
   -1.8295   -1.1322    0.5301 C   0  0  0  0  0  0  0  0  0  0  0  0
   -2.7165   -1.0531    1.6096 C   0  0  0  0  0  0  0  0  0  0  0  0
   -2.9670    0.2126    2.3055 C   0  0  0  0  0  0  0  0  0  0  0  0
   -2.5775   -2.1668    2.6319 C   0  0  0  0  0  0  0  0  0  0  0  0
  2  1  1  6
  2  3  1  0
  3  4  1  0
  4  5  2  0
  5  6  1  0
  6  7  2  0
  7  8  1  0
  8  9  2  0
  9 10  1  0
 10 11  2  0
 11 12  1  0
 12 13  1  0
 13 14  2  0
 13 15  1  0
 12 16  2  0
  7 17  1  0
 17 18  2  0
 18 19  1  0
 19 20  1  0
 19 21  1  0
 19  2  1  0
 18  4  1  0
 16  8  1  0
M  CHG  2  13   1  15  -1
M  END
>  <zinc_id>  (1) 
ZINC000000026416

>  <smiles>  (1) 
C[C@H]1Nc2ccc(-c3cccc([N+](=O)[O-])c3)cc2C1(C)C

$$$$
