
     RDKit          3D

 22 23  0  0  0  0  0  0  0  0999 V2000
    0.6938   -2.6552    0.2227 C   0  0  0  0  0  0  0  0  0  0  0  0
    1.2254   -1.4176    0.4056 C   0  0  0  0  0  0  0  0  0  0  0  0
    2.5403   -1.2953    0.6680 N   0  0  0  0  0  0  0  0  0  0  0  0
    3.4882   -0.4338    0.9824 N   0  0  0  0  0  0  0  0  0  0  0  0
    4.0783    0.4470    0.0560 C   0  0  0  0  0  0  0  0  0  0  0  0
    3.6545    0.3932   -1.1406 O   0  0  0  0  0  0  0  0  0  0  0  0
    5.0630    1.3637    0.3432 O   0  0  0  0  0  0  0  0  0  0  0  0
    5.6138    2.2335   -0.6286 C   0  0  0  0  0  0  0  0  0  0  0  0
    0.2816   -0.2930    0.3313 C   0  0  0  0  0  0  0  0  0  0  0  0
    0.7463    0.9695    0.0820 C   0  0  0  0  0  0  0  0  0  0  0  0
   -0.0889    2.0604    0.0007 C   0  0  0  0  0  0  0  0  0  0  0  0
   -1.4544    1.8320    0.1807 C   0  0  0  0  0  0  0  0  0  0  0  0
   -2.3521    2.8763    0.0927 C   0  0  0  0  0  0  0  0  0  0  0  0
   -3.7187    2.6829    0.2447 C   0  0  0  0  0  0  0  0  0  0  0  0
   -4.1993    1.3993    0.4961 C   0  0  0  0  0  0  0  0  0  0  0  0
   -3.3300    0.3386    0.5943 C   0  0  0  0  0  0  0  0  0  0  0  0
   -1.9634    0.5771    0.4312 C   0  0  0  0  0  0  0  0  0  0  0  0
   -1.0748   -0.4895    0.5025 C   0  0  0  0  0  0  0  0  0  0  0  0
   -1.5870   -1.7314    0.7475 O   0  0  0  0  0  0  0  0  0  0  0  0
   -2.1021   -2.7089   -0.0621 C   0  0  0  0  0  0  0  0  0  0  0  0
   -2.5402   -3.8551    0.5771 F   0  0  0  0  0  0  0  0  0  0  0  0
   -2.9742   -2.2941   -1.0325 F   0  0  0  0  0  0  0  0  0  0  0  0
  1  2  2  0
  2  3  1  0
  3  4  1  0
  4  5  1  0
  5  6  2  0
  5  7  1  0
  7  8  1  0
  2  9  1  0
  9 10  2  0
 10 11  1  0
 11 12  2  0
 12 13  1  0
 13 14  2  0
 14 15  1  0
 15 16  2  0
 16 17  1  0
 17 18  2  0
 18 19  1  0
 19 20  1  0
 20 21  1  0
 20 22  1  0
 18  9  1  0
 17 12  1  0
M  END
>  <zinc_id>  (1) 
ZINC000003243939

>  <smiles>  (1) 
C=C(NNC(=O)OC)c1ccc2ccccc2c1OC(F)F

$$$$
