
     RDKit          3D

 22 24  0  0  0  0  0  0  0  0999 V2000
    5.7204    0.3826    0.0784 C   0  0  0  0  0  0  0  0  0  0  0  0
    4.2885   -0.0327    0.0050 C   0  0  0  0  0  0  0  0  0  0  0  0
    3.4900   -0.0527    1.1296 C   0  0  0  0  0  0  0  0  0  0  0  0
    2.1657   -0.4363    1.0643 C   0  0  0  0  0  0  0  0  0  0  0  0
    1.5721   -0.8174   -0.1169 C   0  0  0  0  0  0  0  0  0  0  0  0
    0.2205   -1.2280   -0.2092 N   0  0  0  0  0  0  0  0  0  0  0  0
   -0.7952   -0.4698   -0.1063 C   0  0  0  0  0  0  0  0  0  0  0  0
   -0.7661    0.9548    0.1243 C   0  0  0  0  0  0  0  0  0  0  0  0
    0.3582    1.8086    0.2848 N   0  0  0  0  0  4  0  0  0  0  0  0
    1.0820    2.0768   -0.6815 O   0  0  0  0  0  0  0  0  0  0  0  0
    0.6511    2.3565    1.5030 O   0  0  0  0  0  1  0  0  0  0  0  0
   -2.0608    1.3461    0.1620 C   0  0  0  0  0  0  0  0  0  0  0  0
   -2.4871    2.6567    0.3652 O   0  0  0  0  0  0  0  0  0  0  0  0
   -2.9468    0.2313   -0.0354 C   0  0  0  0  0  0  0  0  0  0  0  0
   -4.3207    0.0774   -0.0873 C   0  0  0  0  0  0  0  0  0  0  0  0
   -4.9042   -1.1455   -0.2963 C   0  0  0  0  0  0  0  0  0  0  0  0
   -4.1297   -2.2714   -0.4628 C   0  0  0  0  0  0  0  0  0  0  0  0
   -2.7655   -2.1263   -0.4125 C   0  0  0  0  0  0  0  0  0  0  0  0
   -2.1798   -0.8876   -0.2010 C   0  0  0  0  0  0  0  0  0  0  0  0
    2.3767   -0.7985   -1.2569 C   0  0  0  0  0  0  0  0  0  0  0  0
    1.7305   -1.2108   -2.5288 C   0  0  0  0  0  0  0  0  0  0  0  0
    3.7003   -0.4135   -1.1831 C   0  0  0  0  0  0  0  0  0  0  0  0
  1  2  1  0
  2  3  2  0
  3  4  1  0
  4  5  2  0
  5  6  1  0
  6  7  2  0
  7  8  1  0
  8  9  1  0
  9 10  2  0
  9 11  1  0
  8 12  2  0
 12 13  1  0
 12 14  1  0
 14 15  2  0
 15 16  1  0
 16 17  2  0
 17 18  1  0
 18 19  2  0
  5 20  1  0
 20 21  1  0
 20 22  2  0
 22  2  1  0
 19  7  1  0
 19 14  1  0
M  CHG  2   9   1  11  -1
M  END
>  <zinc_id>  (1) 
ZINC000002490261

>  <smiles>  (1) 
Cc1ccc(/N=C2\C([N+](=O)[O-])=C(O)c3ccccc32)c(C)c1

$$$$
