
     RDKit          3D

 31 34  0  0  0  0  0  0  0  0999 V2000
    3.7707    3.8934   -0.2403 C   0  0  0  0  0  0  0  0  0  0  0  0
    4.0881    3.3425   -1.5590 N   0  0  0  0  0  0  0  0  0  0  0  0
    2.8519    3.3886   -2.3345 C   0  0  0  0  0  0  0  0  0  0  0  0
    4.5298    1.9778   -1.3546 C   0  0  0  0  0  0  0  0  0  0  0  0
    4.8889    1.2987   -2.6480 C   0  0  0  0  0  0  0  0  0  0  0  0
    5.3330   -0.1188   -2.2889 C   0  0  0  0  0  0  0  0  0  0  0  0
    4.2105   -0.7592   -1.6324 N   0  0  0  0  0  0  0  0  0  0  0  0
    4.3731   -2.0988   -1.1956 C   0  0  0  0  0  0  0  0  0  0  0  0
    5.5210   -2.7747   -1.3723 N   0  0  0  0  0  0  0  0  0  0  0  0
    5.6433   -4.0608   -0.9401 C   0  0  0  0  0  0  0  0  0  0  0  0
    4.6144   -4.7264   -0.3095 C   0  0  0  0  0  0  0  0  0  0  0  0
    3.4321   -4.0338   -0.1261 C   0  0  0  0  0  0  0  0  0  0  0  0
    3.3179   -2.7137   -0.5739 C   0  0  0  0  0  0  0  0  0  0  0  0
    2.0778   -1.9885   -0.3815 C   0  0  0  0  0  0  0  0  0  0  0  0
    1.9957   -0.8053   -0.7907 O   0  0  0  0  0  0  0  0  0  0  0  0
    0.9362   -2.5322    0.2456 N   0  0  0  0  0  0  0  0  0  0  0  0
   -0.2777   -1.7695    0.4139 C   0  0  0  0  0  0  0  0  0  0  0  0
   -1.3817   -2.3246    1.0274 C   0  0  0  0  0  0  0  0  0  0  0  0
   -2.5533   -1.5990    1.1932 C   0  0  0  0  0  0  0  0  0  0  0  0
   -2.6235   -0.3140    0.7450 C   0  0  0  0  0  0  0  0  0  0  0  0
   -3.8719    0.4609    0.9201 C   0  0  0  0  0  0  0  0  0  0  0  0
   -4.0854    1.7426    0.5253 C   0  0  0  0  0  0  0  0  0  0  0  0
   -5.2830    2.2876    0.7660 C   0  0  0  0  0  0  0  0  0  0  0  0
   -5.6935    3.5871    0.4371 C   0  0  0  0  0  0  0  0  0  0  0  0
   -6.9289    4.0335    0.7279 C   0  0  0  0  0  0  0  0  0  0  0  0
   -7.8740    3.2808    1.3549 C   0  0  0  0  0  0  0  0  0  0  0  0
   -7.4979    1.9837    1.6957 C   0  0  0  0  0  0  0  0  0  0  0  0
   -6.2112    1.5091    1.3963 C   0  0  0  0  0  0  0  0  0  0  0  0
   -5.3615    0.0383    1.6262 S   0  0  0  0  0  0  0  0  0  0  0  0
   -1.5446    0.2645    0.1322 C   0  0  0  0  0  0  0  0  0  0  0  0
   -0.3961   -0.4699   -0.0218 C   0  0  0  0  0  0  0  0  0  0  0  0
  1  2  1  0
  2  3  1  0
  2  4  1  0
  4  5  1  0
  5  6  1  0
  6  7  1  0
  7  8  1  0
  8  9  2  0
  9 10  1  0
 10 11  2  0
 11 12  1  0
 12 13  2  0
 13 14  1  0
 14 15  2  0
 14 16  1  0
 16 17  1  0
 17 18  2  0
 18 19  1  0
 19 20  2  0
 20 21  1  0
 21 22  2  0
 22 23  1  0
 23 24  2  0
 24 25  1  0
 25 26  2  0
 26 27  1  0
 27 28  2  0
 28 29  1  0
 20 30  1  0
 30 31  2  0
 13  8  1  0
 31 17  1  0
 29 21  1  0
 28 23  1  0
M  END
>  <zinc_id>  (1) 
ZINC000003938568

>  <smiles>  (1) 
CN(C)CCCNc1ncccc1C(=O)Nc1ccc(-c2cc3ccccc3s2)cc1

$$$$
