
     RDKit          3D

 34 39  0  0  0  0  0  0  0  0999 V2000
   -6.1841   -2.5690    0.0007 N   0  0  0  0  0  0  0  0  0  0  0  0
   -5.1185   -2.1015   -0.0652 C   0  0  0  0  0  0  0  0  0  0  0  0
   -3.8054   -1.4971   -0.1440 C   0  0  0  0  0  0  0  0  0  0  0  0
   -2.7880   -2.2783   -0.6268 C   0  0  0  0  0  0  0  0  0  0  0  0
   -1.5423   -1.6950   -0.6960 C   0  0  0  0  0  0  0  0  0  0  0  0
   -1.3478   -0.3883   -0.2938 C   0  0  0  0  0  0  0  0  0  0  0  0
   -0.0359    0.1872   -0.3709 N   0  0  0  0  0  0  0  0  0  0  0  0
    0.3166    0.9270   -1.5439 C   0  0  0  0  0  0  0  0  0  0  0  0
    1.1698    2.1084   -1.1750 C   0  0  0  0  0  0  0  0  0  0  0  0
    2.1826    1.8174   -0.2251 N   0  0  0  0  0  0  0  0  0  0  0  0
    3.4246    2.3884   -0.5141 C   0  0  0  0  0  0  0  0  0  0  0  0
    4.0742    1.8145   -1.7337 C   0  0  0  0  0  0  0  0  0  0  0  0
    4.2701    0.4353   -1.5688 O   0  0  0  0  0  0  0  0  0  0  0  0
    5.0424   -0.0656   -0.5338 C   0  0  0  0  0  0  0  0  0  0  0  0
    5.2417   -1.4243   -0.3787 C   0  0  0  0  0  0  0  0  0  0  0  0
    6.0136   -1.9052    0.6574 C   0  0  0  0  0  0  0  0  0  0  0  0
    6.6080   -1.0705    1.5657 C   0  0  0  0  0  0  0  0  0  0  0  0
    6.4203    0.2880    1.4251 C   0  0  0  0  0  0  0  0  0  0  0  0
    5.6482    0.7616    0.3876 C   0  0  0  0  0  0  0  0  0  0  0  0
    2.2679    0.4539    0.1706 C   0  0  0  0  0  0  0  0  0  0  0  0
    0.9108   -0.0106    0.7253 C   0  0  0  0  0  0  0  0  0  0  0  0
   -2.3407    0.3791    0.1793 N   0  0  0  0  0  4  0  0  0  0  0  0
   -3.5823   -0.1897    0.2522 C   0  0  0  0  0  0  0  0  0  0  0  0
   -4.3868    0.7595    0.7452 N   0  0  0  0  0  0  0  0  0  0  0  0
   -3.7288    1.8891    0.9865 C   0  0  0  0  0  0  0  0  0  0  0  0
   -4.1011    3.1311    1.4874 C   0  0  0  0  0  0  0  0  0  0  0  0
   -3.1671    4.1542    1.6356 C   0  0  0  0  0  0  0  0  0  0  0  0
   -1.8540    3.9090    1.2734 C   0  0  0  0  0  0  0  0  0  0  0  0
   -1.5065    2.6726    0.7798 C   0  0  0  0  0  0  0  0  0  0  0  0
   -2.4290    1.6570    0.6305 C   0  0  0  0  0  0  0  0  0  0  0  0
   -0.4425   -2.5419   -1.2173 C   0  0  0  0  0  0  0  0  0  0  0  0
   -0.4759   -3.8473   -0.4688 C   0  0  0  0  0  0  0  0  0  0  0  0
   -1.8284   -4.4563   -0.3259 C   0  0  0  0  0  0  0  0  0  0  0  0
   -2.9259   -3.6928   -1.0682 C   0  0  0  0  0  0  0  0  0  0  0  0
  1  2  3  0
  2  3  1  0
  3  4  2  0
  4  5  1  0
  5  6  2  0
  6  7  1  0
  7  8  1  0
  8  9  1  0
  9 10  1  0
 10 11  1  0
 11 12  1  0
 12 13  1  0
 13 14  1  0
 14 15  2  0
 15 16  1  0
 16 17  2  0
 17 18  1  0
 18 19  2  0
 10 20  1  0
 20 21  1  0
  6 22  1  0
 22 23  2  0
 23 24  1  0
 24 25  1  0
 25 26  2  0
 26 27  1  0
 27 28  2  0
 28 29  1  0
 29 30  2  0
  5 31  1  0
 31 32  1  0
 32 33  1  0
 33 34  1  0
 23  3  1  0
 30 25  1  0
 34  4  1  0
 21  7  1  0
 30 22  1  0
 19 14  1  0
M  CHG  1  22   1
M  END
>  <zinc_id>  (1) 
ZINC000002520447

>  <smiles>  (1) 
N#Cc1c2c(c(N3CCN(CCOc4ccccc4)CC3)[n+]3c1[nH]c1ccccc13)CCCC2

$$$$
