
     RDKit          3D

 21 22  0  0  0  0  0  0  0  0999 V2000
   -3.7625    2.3386   -2.0224 C   0  0  0  0  0  0  0  0  0  0  0  0
   -3.0132    1.2219   -2.7469 C   0  0  0  0  0  0  0  0  0  0  0  0
   -2.3858    0.3921   -1.7668 O   0  0  0  0  0  0  0  0  0  0  0  0
   -1.4675    0.9256   -0.9078 C   0  0  0  0  0  0  0  0  0  0  0  0
   -1.1762    2.1187   -0.9726 O   0  0  0  0  0  0  0  0  0  0  0  0
   -0.8455    0.0100    0.0945 C   0  0  0  0  0  0  0  0  0  0  0  0
   -1.1390   -1.2141    0.1710 C   0  0  0  0  0  0  0  0  0  0  0  0
   -2.1713   -1.7011   -0.8332 C   0  0  0  0  0  0  0  0  0  0  0  0
   -3.5905   -2.3555    0.0010 Cl  0  0  0  0  0  0  0  0  0  0  0  0
   -0.6328   -2.1343    1.1002 N   0  0  0  0  0  0  0  0  0  0  0  0
    0.3014   -1.6103    2.0444 C   0  0  0  0  0  0  0  0  0  0  0  0
    0.8288   -2.3534    2.9342 O   0  0  0  0  0  0  0  0  0  0  0  0
    0.6293   -0.3115    1.9928 N   0  0  0  0  0  0  0  0  0  0  0  0
    0.2321    0.7687    0.9984 C   0  0  1  0  0  0  0  0  0  0  0  0
    1.4989    0.7005   -0.0035 C   0  0  0  0  0  0  0  0  0  0  0  0
    1.3019    0.9831   -1.3043 C   0  0  0  0  0  0  0  0  0  0  0  0
    2.3937    0.9199   -2.1499 C   0  0  0  0  0  0  0  0  0  0  0  0
    3.6356    0.5764   -1.6564 C   0  0  0  0  0  0  0  0  0  0  0  0
    3.7860    0.2965   -0.3194 C   0  0  0  0  0  0  0  0  0  0  0  0
    2.6861    0.3612    0.5269 C   0  0  0  0  0  0  0  0  0  0  0  0
    2.8906    0.0670    1.8819 O   0  0  0  0  0  0  0  0  0  0  0  0
  1  2  1  0
  2  3  1  0
  3  4  1  0
  4  5  2  0
  4  6  1  0
  6  7  2  0
  7  8  1  0
  8  9  1  0
  7 10  1  0
 10 11  1  0
 11 12  2  0
 11 13  1  0
 13 14  1  0
 14 15  1  6
 15 16  2  0
 16 17  1  0
 17 18  2  0
 18 19  1  0
 19 20  2  0
 20 21  1  0
 14  6  1  0
 20 15  1  0
M  END
>  <zinc_id>  (1) 
ZINC000000194010

>  <smiles>  (1) 
CCOC(=O)C1=C(CCl)NC(=O)N[C@H]1c1ccccc1O

$$$$
