
     RDKit          3D

 16 17  0  0  0  0  0  0  0  0999 V2000
   -0.9814   -0.2410   -2.0723 O   0  0  0  0  0  0  0  0  0  0  0  0
   -0.7825   -0.5798   -0.8787 C   0  0  0  0  0  0  0  0  0  0  0  0
   -1.9766   -0.8566   -0.0617 C   0  0  0  0  0  0  0  0  0  0  0  0
   -3.2841   -0.7044   -0.7410 C   0  0  0  0  0  0  0  0  0  0  0  0
   -3.6149    0.7142    0.2791 S   0  0  0  0  0  0  0  0  0  0  0  0
   -4.9036    0.6063    1.0098 O   0  0  0  0  0  0  0  0  0  0  0  0
   -3.3413    2.0077   -0.4040 O   0  0  0  0  0  0  0  0  0  0  0  0
   -2.2075    0.0283    1.1242 C   0  0  0  0  0  0  0  0  0  0  0  0
    0.5212   -0.6733   -0.4033 N   0  0  0  0  0  0  0  0  0  0  0  0
    0.9999   -1.0410    0.9225 C   0  0  0  0  0  0  0  0  0  0  0  0
    2.3789   -0.4383    1.0600 C   0  0  0  0  0  0  0  0  0  0  0  0
    2.3646    0.6662   -0.1217 C   0  0  1  0  0  0  0  0  0  0  0  0
    3.8834    0.3713   -0.5961 C   0  0  0  0  0  0  0  0  0  0  0  0
    4.7482    0.6565    0.5874 C   0  0  0  0  0  0  0  0  0  0  0  0
    4.4803   -0.1066    1.6876 F   0  0  0  0  0  0  0  0  0  0  0  0
    1.7154   -0.4097   -1.1746 C   0  0  0  0  0  0  0  0  0  0  0  0
  1  2  2  0
  2  3  1  0
  3  4  1  0
  4  5  1  0
  5  6  2  0
  5  7  2  0
  5  8  1  0
  2  9  1  0
  9 10  1  0
 10 11  1  0
 11 12  1  0
 12 13  1  6
 13 14  1  0
 14 15  1  0
 12 16  1  0
  8  3  1  0
 16  9  1  0
M  END
>  <zinc_id>  (1) 
ZINC000000024177

>  <smiles>  (1) 
O=C(C1CS(=O)(=O)C1)N1CC[C@@H](CCF)C1

$$$$
