
     RDKit          3D

 22 24  0  0  0  0  0  0  0  0999 V2000
   -3.1603    1.6603   -2.1294 C   0  0  0  0  0  0  0  0  0  0  0  0
   -3.0562    0.4576   -1.2746 C   0  0  0  0  0  0  0  0  0  0  0  0
   -2.6736   -0.7986   -1.8456 C   0  0  0  0  0  0  0  0  0  0  0  0
   -4.5151    0.2666   -0.5529 C   0  0  2  0  0  0  0  0  0  0  0  0
   -4.3724    1.4819    0.5440 C   0  0  0  0  0  0  0  0  0  0  0  0
   -3.9113    0.8192    1.7576 C   0  0  0  0  0  0  0  0  0  0  0  0
   -2.9318   -0.1542    1.0991 C   0  0  1  0  0  0  0  0  0  0  0  0
   -1.9431   -0.6755    2.0158 C   0  0  0  0  0  0  0  0  0  0  0  0
   -3.8632   -0.9109    0.3848 C   0  0  0  0  0  0  0  0  0  0  0  0
   -2.1763    0.8665    0.0437 C   0  0  1  0  0  0  0  0  0  0  0  0
   -0.9715   -0.1328   -0.2253 N   0  0  0  0  0  0  0  0  0  0  0  0
    0.3009    0.4581   -0.0197 C   0  0  0  0  0  0  0  0  0  0  0  0
    0.3957    1.6510    0.3375 O   0  0  0  0  0  0  0  0  0  0  0  0
    1.5320   -0.2964   -0.2155 C   0  0  0  0  0  0  0  0  0  0  0  0
    1.4240   -1.6134   -0.6079 C   0  0  0  0  0  0  0  0  0  0  0  0
    2.5823   -2.3300   -0.7941 C   0  0  0  0  0  0  0  0  0  0  0  0
    3.8120   -1.7370   -0.5910 C   0  0  0  0  0  0  0  0  0  0  0  0
    3.9437   -0.4192   -0.1979 C   0  0  0  0  0  0  0  0  0  0  0  0
    5.2190    0.1765    0.0067 N   0  0  0  0  0  4  0  0  0  0  0  0
    6.2366   -0.5157   -0.1750 O   0  0  0  0  0  0  0  0  0  0  0  0
    5.3636    1.4705    0.3923 O   0  0  0  0  0  1  0  0  0  0  0  0
    2.7649    0.2752   -0.0187 C   0  0  0  0  0  0  0  0  0  0  0  0
  1  2  1  0
  2  3  1  0
  2  4  1  0
  4  5  1  1
  5  6  1  0
  6  7  1  0
  7  8  1  1
  7  9  1  0
  7 10  1  0
 10 11  1  6
 11 12  1  0
 12 13  2  0
 12 14  1  0
 14 15  2  0
 15 16  1  0
 16 17  2  0
 17 18  1  0
 18 19  1  0
 19 20  2  0
 19 21  1  0
 18 22  2  0
 10  2  1  0
 22 14  1  0
  9  4  1  0
M  CHG  2  19   1  21  -1
M  END
>  <zinc_id>  (1) 
ZINC000000135894

>  <smiles>  (1) 
CC1(C)[C@@H]2CC[C@@](C)(C2)[C@H]1NC(=O)c1cccc([N+](=O)[O-])c1

$$$$
