
     RDKit          3D

 29 31  0  0  0  0  0  0  0  0999 V2000
    7.4537   -2.1590   -0.2096 C   0  0  0  0  0  0  0  0  0  0  0  0
    6.0590   -1.8304   -0.6869 C   0  0  0  0  0  0  0  0  0  0  0  0
    6.1859   -1.2906   -2.1049 C   0  0  0  0  0  0  0  0  0  0  0  0
    5.4420   -0.7554    0.1396 C   0  0  0  0  0  0  0  0  0  0  0  0
    6.1917   -0.2364    1.1742 C   0  0  0  0  0  0  0  0  0  0  0  0
    5.6433    0.7588    1.9531 C   0  0  0  0  0  0  0  0  0  0  0  0
    4.3741    1.2526    1.7349 C   0  0  0  0  0  0  0  0  0  0  0  0
    3.6638    0.7046    0.6918 C   0  0  0  0  0  0  0  0  0  0  0  0
    4.1700   -0.2908   -0.1130 C   0  0  0  0  0  0  0  0  0  0  0  0
    3.4815   -0.8576   -1.1640 O   0  0  0  0  0  0  0  0  0  0  0  0
    2.1903   -0.4433   -1.4843 C   0  0  0  0  0  0  0  0  0  0  0  0
    1.2535   -0.6692   -0.3095 C   0  0  0  0  0  0  0  0  0  0  0  0
   -0.0881   -0.2534   -0.6026 N   0  0  0  0  0  0  0  0  0  0  0  0
   -0.4893    1.0445   -0.9538 C   0  0  0  0  0  0  0  0  0  0  0  0
    0.3900    1.9388   -1.0234 O   0  0  0  0  0  0  0  0  0  0  0  0
   -1.8631    1.4184   -1.2426 C   0  0  0  0  0  0  0  0  0  0  0  0
   -2.1830    2.7054   -1.5725 C   0  0  0  0  0  0  0  0  0  0  0  0
   -3.4755    3.1061   -1.8543 C   0  0  0  0  0  0  0  0  0  0  0  0
   -4.5100    2.1985   -1.8109 C   0  0  0  0  0  0  0  0  0  0  0  0
   -4.1895    0.8844   -1.4750 C   0  0  0  0  0  0  0  0  0  0  0  0
   -2.8980    0.4965   -1.1961 C   0  0  0  0  0  0  0  0  0  0  0  0
   -2.4688   -1.1810   -0.7640 S   0  0  0  0  0  0  0  0  0  0  0  0
   -2.5868   -1.3283    1.0474 C   0  0  0  0  0  0  0  0  0  0  0  0
   -3.9857   -1.1737    1.5189 C   0  0  0  0  0  0  0  0  0  0  0  0
   -4.8710   -2.2187    1.6613 C   0  0  0  0  0  0  0  0  0  0  0  0
   -6.1574   -1.9706    2.1092 C   0  0  0  0  0  0  0  0  0  0  0  0
   -6.5909   -0.7078    2.4211 C   0  0  0  0  0  0  0  0  0  0  0  0
   -5.7164    0.3416    2.2827 C   0  0  0  0  0  0  0  0  0  0  0  0
   -4.4253    0.0945    1.8334 C   0  0  0  0  0  0  0  0  0  0  0  0
  1  2  1  0
  2  3  1  0
  2  4  1  0
  4  5  2  0
  5  6  1  0
  6  7  2  0
  7  8  1  0
  8  9  2  0
  9 10  1  0
 10 11  1  0
 11 12  1  0
 12 13  1  0
 13 14  1  0
 14 15  2  0
 14 16  1  0
 16 17  2  0
 17 18  1  0
 18 19  2  0
 19 20  1  0
 20 21  2  0
 21 22  1  0
 22 23  1  0
 23 24  1  0
 24 25  2  0
 25 26  1  0
 26 27  2  0
 27 28  1  0
 28 29  2  0
  9  4  1  0
 21 16  1  0
 29 24  1  0
M  END
>  <zinc_id>  (1) 
ZINC000002190536

>  <smiles>  (1) 
CC(C)c1ccccc1OCCNC(=O)c1ccccc1SCc1ccccc1

$$$$
