
     RDKit          3D

 21 24  0  0  0  0  0  0  0  0999 V2000
    2.0613    2.4607    0.4490 C   0  0  0  0  0  0  0  0  0  0  0  0
    2.3361    1.0044    0.3301 C   0  0  0  0  0  0  0  0  0  0  0  0
    3.4569    0.4570    0.9681 C   0  0  0  0  0  0  0  0  0  0  0  0
    3.7432   -0.8865    0.8804 C   0  0  0  0  0  0  0  0  0  0  0  0
    4.8731   -1.4317    1.5250 O   0  0  0  0  0  0  0  0  0  0  0  0
    2.8912   -1.6722    0.1452 C   0  0  0  0  0  0  0  0  0  0  0  0
    1.8014   -1.1227   -0.4716 C   0  0  0  0  0  0  0  0  0  0  0  0
    1.4818    0.2104   -0.4084 C   0  0  0  0  0  0  0  0  0  0  0  0
    0.3572    0.8028   -1.0395 N   0  0  0  0  0  0  0  0  0  0  0  0
    0.3472    1.8695   -2.0526 C   0  0  0  0  0  0  0  0  0  0  0  0
   -0.9540    1.6865   -2.7948 C   0  0  0  0  0  0  0  0  0  0  0  0
   -1.8124    0.9722   -1.8148 C   0  0  0  0  0  0  0  0  0  0  0  0
   -3.1423    0.7456   -1.7458 N   0  0  0  0  0  0  0  0  0  0  0  0
   -3.6752    0.0663   -0.7480 N   0  0  0  0  0  0  0  0  0  0  0  0
   -2.9210   -0.4446    0.2668 C   0  0  0  0  0  0  0  0  0  0  0  0
   -3.5038   -1.1504    1.2971 C   0  0  0  0  0  0  0  0  0  0  0  0
   -2.7063   -1.6490    2.3019 C   0  0  0  0  0  0  0  0  0  0  0  0
   -1.3462   -1.4306    2.2531 C   0  0  0  0  0  0  0  0  0  0  0  0
   -0.7259   -0.7298    1.2397 C   0  0  0  0  0  0  0  0  0  0  0  0
   -1.5585   -0.2360    0.2348 C   0  0  0  0  0  0  0  0  0  0  0  0
   -1.0038    0.4782   -0.8156 C   0  0  0  0  0  0  0  0  0  0  0  0
  1  2  1  0
  2  3  2  0
  3  4  1  0
  4  5  1  0
  4  6  2  0
  6  7  1  0
  7  8  2  0
  8  9  1  0
  9 10  1  0
 10 11  1  0
 11 12  1  0
 12 13  2  0
 13 14  1  0
 14 15  2  0
 15 16  1  0
 16 17  2  0
 17 18  1  0
 18 19  2  0
 19 20  1  0
 20 21  2  0
  8  2  1  0
 21  9  1  0
 21 12  1  0
 20 15  1  0
M  END
>  <zinc_id>  (1) 
ZINC000000012591

>  <smiles>  (1) 
Cc1cc(O)ccc1N1CCc2nnc3ccccc3c21

$$$$
