
     RDKit          3D

 21 23  0  0  0  0  0  0  0  0999 V2000
    5.3956    0.6345    0.6680 C   0  0  0  0  0  0  0  0  0  0  0  0
    4.6483   -0.4404    0.1283 O   0  0  0  0  0  0  0  0  0  0  0  0
    3.2946   -0.2173   -0.1509 C   0  0  0  0  0  0  0  0  0  0  0  0
    2.6970    1.0040    0.0873 C   0  0  0  0  0  0  0  0  0  0  0  0
    1.3657    1.2296   -0.1853 C   0  0  0  0  0  0  0  0  0  0  0  0
    0.6262    0.2455   -0.6939 C   0  0  0  0  0  0  0  0  0  0  0  0
   -0.9215    0.4707   -1.0346 C   0  0  2  0  0  0  0  0  0  0  0  0
   -1.2316    1.5081    0.0814 C   0  0  0  0  0  0  0  0  0  0  0  0
   -0.8273    2.8425   -0.2453 C   0  0  0  0  0  0  0  0  0  0  0  0
   -0.4811    3.9323   -0.5271 N   0  0  0  0  0  0  0  0  0  0  0  0
   -1.7939    1.2327    1.1993 C   0  0  0  0  0  0  0  0  0  0  0  0
   -2.0053    2.3243    2.1217 N   0  0  0  0  0  0  0  0  0  0  0  0
   -2.2116   -0.0349    1.5835 O   0  0  0  0  0  0  0  0  0  0  0  0
   -1.9869   -1.0344    0.6709 C   0  0  0  0  0  0  0  0  0  0  0  0
   -1.4403   -0.8732   -0.4603 C   0  0  0  0  0  0  0  0  0  0  0  0
   -1.2215   -2.0177   -1.4176 C   0  0  0  0  0  0  0  0  0  0  0  0
   -1.9999   -3.2398   -1.1304 C   0  0  0  0  0  0  0  0  0  0  0  0
   -3.1128   -2.9687   -0.1702 C   0  0  0  0  0  0  0  0  0  0  0  0
   -2.4476   -2.4183    1.0999 C   0  0  0  0  0  0  0  0  0  0  0  0
    1.1635   -0.9760   -0.9477 C   0  0  0  0  0  0  0  0  0  0  0  0
    2.4902   -1.2034   -0.6769 C   0  0  0  0  0  0  0  0  0  0  0  0
  1  2  1  0
  2  3  1  0
  3  4  2  0
  4  5  1  0
  5  6  2  0
  7  6  1  1
  7  8  1  0
  8  9  1  0
  9 10  3  0
  8 11  2  0
 11 12  1  0
 11 13  1  0
 13 14  1  0
 14 15  2  0
 15 16  1  0
 16 17  1  0
 17 18  1  0
 18 19  1  0
  6 20  1  0
 20 21  2  0
 21  3  1  0
 15  7  1  0
 19 14  1  0
M  END
>  <zinc_id>  (1) 
ZINC000000227433

>  <smiles>  (1) 
COc1ccc([C@@H]2C(C#N)=C(N)OC3=C2CCCC3)cc1

$$$$
