
     RDKit          3D

 19 20  0  0  0  0  0  0  0  0999 V2000
   -4.0956   -1.7216    1.4462 C   0  0  0  0  0  0  0  0  0  0  0  0
   -2.6946   -1.3239    1.0878 C   0  0  0  0  0  0  0  0  0  0  0  0
   -1.8832   -2.4709    0.5446 C   0  0  0  0  0  0  0  0  0  0  0  0
   -2.7782   -0.2256    0.0830 C   0  0  0  0  0  0  0  0  0  0  0  0
   -3.9787    0.2666   -0.3723 C   0  0  0  0  0  0  0  0  0  0  0  0
   -4.0409    1.2788   -1.2982 C   0  0  0  0  0  0  0  0  0  0  0  0
   -2.8652    1.8016   -1.7714 C   0  0  0  0  0  0  0  0  0  0  0  0
   -1.6765    1.2955   -1.3035 C   0  0  0  0  0  0  0  0  0  0  0  0
   -1.5657    0.2815   -0.3756 C   0  0  0  0  0  0  0  0  0  0  0  0
   -0.3100   -0.2071    0.0766 N   0  0  0  0  0  0  0  0  0  0  0  0
    0.8601    0.3883   -0.4631 C   0  0  0  0  0  0  0  0  0  0  0  0
    0.7318    1.3219   -1.3175 O   0  0  0  0  0  0  0  0  0  0  0  0
    2.2023   -0.0016   -0.1008 C   0  0  0  0  0  0  0  0  0  0  0  0
    2.4640   -0.9990    0.8124 C   0  0  0  0  0  0  0  0  0  0  0  0
    3.7311   -1.3911    1.1764 C   0  0  0  0  0  0  0  0  0  0  0  0
    4.8214   -0.7746    0.6172 C   0  0  0  0  0  0  0  0  0  0  0  0
    4.6023    0.2247   -0.2977 C   0  0  0  0  0  0  0  0  0  0  0  0
    3.3050    0.6079   -0.6536 C   0  0  0  0  0  0  0  0  0  0  0  0
    3.1708    1.6486   -1.6060 N   0  0  0  0  0  0  0  0  0  0  0  0
  1  2  1  0
  2  3  1  0
  2  4  1  0
  4  5  2  0
  5  6  1  0
  6  7  2  0
  7  8  1  0
  8  9  2  0
  9 10  1  0
 10 11  1  0
 11 12  2  0
 11 13  1  0
 13 14  2  0
 14 15  1  0
 15 16  2  0
 16 17  1  0
 17 18  2  0
 18 19  1  0
  9  4  1  0
 18 13  1  0
M  END
>  <zinc_id>  (1) 
ZINC000000309284

>  <smiles>  (1) 
CC(C)c1ccccc1NC(=O)c1ccccc1N

$$$$
