
     RDKit          3D

 32 36  0  0  0  0  0  0  0  0999 V2000
    6.1992   -2.3927   -1.5332 C   0  0  0  0  0  0  0  0  0  0  0  0
    7.2748   -2.3940   -0.4674 C   0  0  0  0  0  0  0  0  0  0  0  0
    7.5472   -0.9990   -0.0722 C   0  0  0  0  0  0  0  0  0  0  0  0
    6.4556   -0.2133    0.4808 C   0  0  0  0  0  0  0  0  0  0  0  0
    5.8000   -0.6840    1.7178 C   0  0  0  0  0  0  0  0  0  0  0  0
    4.7757    0.2103    2.0859 O   0  0  0  0  0  0  0  0  0  0  0  0
    3.7451    0.4185    1.2047 C   0  0  0  0  0  0  0  0  0  0  0  0
    2.7375    1.2808    1.5355 C   0  0  0  0  0  0  0  0  0  0  0  0
    1.6660    1.5353    0.6881 C   0  0  0  0  0  0  0  0  0  0  0  0
    1.6438    0.8967   -0.4947 C   0  0  0  0  0  0  0  0  0  0  0  0
    0.4390    1.1527   -1.5018 C   0  0  1  0  0  0  0  0  0  0  0  0
    0.1927   -0.2912   -1.9271 O   0  0  0  0  0  0  0  0  0  0  0  0
   -0.3690   -1.2231   -1.2020 C   0  0  0  0  0  0  0  0  0  0  0  0
   -0.6167   -2.4873   -1.7440 C   0  0  0  0  0  0  0  0  0  0  0  0
   -1.2081   -3.4249   -0.9342 C   0  0  0  0  0  0  0  0  0  0  0  0
   -1.5577   -3.1601    0.3723 C   0  0  0  0  0  0  0  0  0  0  0  0
   -1.2990   -1.9022    0.8746 C   0  0  0  0  0  0  0  0  0  0  0  0
   -0.7092   -0.9802    0.0538 C   0  0  0  0  0  0  0  0  0  0  0  0
   -0.4325    0.4581    0.7098 C   0  0  2  0  0  0  0  0  0  0  0  0
   -1.8895    0.6509    1.3015 C   0  0  0  0  0  0  0  0  0  0  0  0
   -2.6885    0.9160    0.2709 C   0  0  0  0  0  0  0  0  0  0  0  0
   -4.1323    1.1707    0.2717 C   0  0  0  0  0  0  0  0  0  0  0  0
   -4.7832    1.4051   -0.9108 C   0  0  0  0  0  0  0  0  0  0  0  0
   -6.1320    1.6551   -1.0295 C   0  0  0  0  0  0  0  0  0  0  0  0
   -6.8735    1.6683    0.1343 C   0  0  0  0  0  0  0  0  0  0  0  0
   -8.3459    1.9337    0.0799 C   0  0  0  0  0  0  0  0  0  0  0  0
   -6.2216    1.4327    1.3273 C   0  0  0  0  0  0  0  0  0  0  0  0
   -4.8718    1.1844    1.4273 C   0  0  0  0  0  0  0  0  0  0  0  0
   -1.9086    0.9600   -0.9161 N   0  0  0  0  0  0  0  0  0  0  0  0
   -0.7137    1.3848   -0.4872 N   0  0  0  0  0  0  0  0  0  0  0  0
    2.6038    0.0427   -0.8685 C   0  0  0  0  0  0  0  0  0  0  0  0
    3.6722   -0.2049   -0.0124 C   0  0  0  0  0  0  0  0  0  0  0  0
  1  2  1  0
  2  3  1  0
  3  4  1  0
  4  5  1  0
  5  6  1  0
  6  7  1  0
  7  8  2  0
  8  9  1  0
  9 10  2  0
 11 10  1  1
 11 12  1  0
 12 13  1  0
 13 14  2  0
 14 15  1  0
 15 16  2  0
 16 17  1  0
 17 18  2  0
 18 19  1  0
 19 20  1  1
 20 21  2  0
 21 22  1  0
 22 23  2  0
 23 24  1  0
 24 25  2  0
 25 26  1  0
 25 27  1  0
 27 28  2  0
 21 29  1  0
 29 30  1  0
 10 31  1  0
 31 32  2  0
 32  7  1  0
 30 11  1  0
 18 13  1  0
 30 19  1  0
 28 22  1  0
M  END
>  <zinc_id>  (1) 
ZINC000001821790

>  <smiles>  (1) 
CCCCCOc1ccc([C@H]2Oc3ccccc3[C@@H]3C=C(c4ccc(C)cc4)NN32)cc1

$$$$
