
     RDKit          3D

 20 21  0  0  0  0  0  0  0  0999 V2000
    4.1282    1.7887    2.0181 C   0  0  0  0  0  0  0  0  0  0  0  0
    4.8628    0.9732    0.9627 C   0  0  0  0  0  0  0  0  0  0  0  0
    4.1617    1.2887   -0.3566 C   0  0  0  0  0  0  0  0  0  0  0  0
    2.7677    0.8980   -0.2472 N   0  0  0  0  0  0  0  0  0  0  0  0
    2.3831   -0.4428    0.0189 C   0  0  0  0  0  0  0  0  0  0  0  0
    3.2583   -1.3036    0.1625 O   0  0  0  0  0  0  0  0  0  0  0  0
    0.9549   -0.8199    0.1256 C   0  0  0  0  0  0  0  0  0  0  0  0
   -0.0186    0.1275   -0.0321 C   0  0  0  0  0  0  0  0  0  0  0  0
   -1.3466   -0.2210    0.0669 C   0  0  0  0  0  0  0  0  0  0  0  0
   -2.3942    0.7954   -0.1025 C   0  0  0  0  0  0  0  0  0  0  0  0
   -2.1262    2.0842    0.2950 C   0  0  0  0  0  0  0  0  0  0  0  0
   -3.0836    3.0612    0.1504 C   0  0  0  0  0  0  0  0  0  0  0  0
   -4.3288    2.8102   -0.3862 C   0  0  0  0  0  0  0  0  0  0  0  0
   -4.5534    1.5006   -0.7720 C   0  0  0  0  0  0  0  0  0  0  0  0
   -3.6196    0.5023   -0.6408 C   0  0  0  0  0  0  0  0  0  0  0  0
   -1.6177   -1.5387    0.3259 C   0  0  0  0  0  0  0  0  0  0  0  0
   -0.6694   -2.4705    0.4815 N   0  0  0  0  0  4  0  0  0  0  0  0
   -1.0176   -3.7955    0.7421 O   0  0  0  0  0  1  0  0  0  0  0  0
    0.6153   -2.1177    0.3826 C   0  0  0  0  0  0  0  0  0  0  0  0
    1.6437   -3.1204    0.5486 N   0  0  0  0  0  0  0  0  0  0  0  0
  1  2  1  0
  2  3  1  0
  3  4  1  0
  4  5  1  0
  5  6  2  0
  5  7  1  0
  7  8  2  0
  8  9  1  0
  9 10  1  0
 10 11  2  0
 11 12  1  0
 12 13  2  0
 13 14  1  0
 14 15  2  0
  9 16  2  0
 16 17  1  0
 17 18  1  0
 17 19  2  0
 19 20  1  0
 19  7  1  0
 15 10  1  0
M  CHG  2  17   1  18  -1
M  END
>  <zinc_id>  (1) 
ZINC000002023791

>  <smiles>  (1) 
CCCNC(=O)c1cc(-c2ccccc2)c[n+]([O-])c1N

$$$$
