
     RDKit          3D

 21 22  0  0  0  0  0  0  0  0999 V2000
   -5.9448   -2.0175    1.4782 C   0  0  0  0  0  0  0  0  0  0  0  0
   -4.8597   -1.2852    0.7751 C   0  0  0  0  0  0  0  0  0  0  0  0
   -3.8560   -0.7542    1.5651 C   0  0  0  0  0  0  0  0  0  0  0  0
   -2.8378   -0.0705    0.9517 C   0  0  0  0  0  0  0  0  0  0  0  0
   -2.8011    0.0955   -0.4402 C   0  0  0  0  0  0  0  0  0  0  0  0
   -1.7003    0.8324   -0.9513 N   0  0  0  0  0  0  0  0  0  0  0  0
   -0.6377    1.2959   -0.1305 C   0  0  0  0  0  0  0  0  0  0  0  0
   -0.7325    1.0056    1.1026 O   0  0  0  0  0  0  0  0  0  0  0  0
    0.5348    2.0571   -0.5635 C   0  0  0  0  0  0  0  0  0  0  0  0
    1.7980    1.3241   -0.4708 C   0  0  0  0  0  0  0  0  0  0  0  0
    2.4490    0.7142   -1.5251 C   0  0  0  0  0  0  0  0  0  0  0  0
    3.6399    0.0110   -1.3038 C   0  0  0  0  0  0  0  0  0  0  0  0
    4.1785   -0.0805   -0.0270 C   0  0  0  0  0  0  0  0  0  0  0  0
    5.3867   -0.8047    0.2128 N   0  0  0  0  0  4  0  0  0  0  0  0
    5.9632   -1.3467   -0.7743 O   0  0  0  0  0  0  0  0  0  0  0  0
    5.8895   -0.8975    1.4719 O   0  0  0  0  0  1  0  0  0  0  0  0
    3.5254    0.5279    1.0117 C   0  0  0  0  0  0  0  0  0  0  0  0
    2.3721    1.2043    0.7743 C   0  0  0  0  0  0  0  0  0  0  0  0
   -3.8029   -0.4380   -1.1967 C   0  0  0  0  0  0  0  0  0  0  0  0
   -3.7220   -0.2416   -2.6779 C   0  0  0  0  0  0  0  0  0  0  0  0
   -4.8424   -1.1318   -0.6157 C   0  0  0  0  0  0  0  0  0  0  0  0
  1  2  1  0
  2  3  2  0
  3  4  1  0
  4  5  2  0
  5  6  1  0
  6  7  1  0
  7  8  2  0
  7  9  1  0
  9 10  1  0
 10 11  2  0
 11 12  1  0
 12 13  2  0
 13 14  1  0
 14 15  2  0
 14 16  1  0
 13 17  1  0
 17 18  2  0
  5 19  1  0
 19 20  1  0
 19 21  2  0
 21  2  1  0
 18 10  1  0
M  CHG  2  14   1  16  -1
M  END
>  <zinc_id>  (1) 
ZINC000002790570

>  <smiles>  (1) 
Cc1ccc(NC(=O)Cc2ccc([N+](=O)[O-])cc2)c(C)c1

$$$$
