
     RDKit          3D

 20 23  0  0  0  0  0  0  0  0999 V2000
   -1.4651    1.2860   -1.9549 O   0  0  0  0  0  0  0  0  0  0  0  0
   -1.4294    1.3534   -0.3988 C   0  0  1  0  0  0  0  0  0  0  0  0
   -2.8057    0.4833   -0.2433 C   0  0  0  0  0  0  0  0  0  0  0  0
   -4.0542    1.0699   -0.2971 C   0  0  0  0  0  0  0  0  0  0  0  0
   -5.1364    0.2272   -0.1523 C   0  0  0  0  0  0  0  0  0  0  0  0
   -4.9222   -1.1341    0.0355 C   0  0  0  0  0  0  0  0  0  0  0  0
   -3.6340   -1.6237    0.0746 C   0  0  0  0  0  0  0  0  0  0  0  0
   -2.5132   -0.7692   -0.0728 C   0  0  0  0  0  0  0  0  0  0  0  0
   -1.1148   -1.0136   -0.0710 C   0  0  0  0  0  0  0  0  0  0  0  0
   -0.3723   -2.2091    0.0809 C   0  0  0  0  0  0  0  0  0  0  0  0
    0.9960   -2.1382    0.0387 C   0  0  0  0  0  0  0  0  0  0  0  0
    1.6635   -0.9653   -0.1430 C   0  0  0  0  0  0  0  0  0  0  0  0
    3.0619   -0.8826   -0.1876 N   0  0  0  0  0  0  0  0  0  0  0  0
    3.7570    0.3738   -0.3820 C   0  0  0  0  0  0  0  0  0  0  0  0
    3.3444    1.2709    0.7874 C   0  0  0  0  0  0  0  0  0  0  0  0
    3.9144    0.5109    1.9879 C   0  0  0  0  0  0  0  0  0  0  0  0
    5.0583   -0.3099    1.4466 C   0  0  0  0  0  0  0  0  0  0  0  0
    5.2213    0.1046   -0.0153 C   0  0  0  0  0  0  0  0  0  0  0  0
    0.8982    0.2058   -0.2909 C   0  0  0  0  0  0  0  0  0  0  0  0
   -0.4679    0.0905   -0.2425 C   0  0  0  0  0  0  0  0  0  0  0  0
  2  1  1  6
  2  3  1  0
  3  4  2  0
  4  5  1  0
  5  6  2  0
  6  7  1  0
  7  8  2  0
  8  9  1  0
  9 10  2  0
 10 11  1  0
 11 12  2  0
 12 13  1  0
 13 14  1  0
 14 15  1  0
 15 16  1  0
 16 17  1  0
 17 18  1  0
 12 19  1  0
 19 20  2  0
 20  2  1  0
  8  3  1  0
 20  9  1  0
 18 14  1  0
M  END
>  <zinc_id>  (1) 
ZINC000001598745

>  <smiles>  (1) 
O[C@H]1c2ccccc2-c2ccc(NC3CCCC3)cc21

$$$$
