
     RDKit          3D

 19 20  0  0  0  0  0  0  0  0999 V2000
   -2.6896   -1.9506    1.0499 C   0  0  0  0  0  0  0  0  0  0  0  0
   -1.6821   -1.1530    0.2924 C   0  0  0  0  0  0  0  0  0  0  0  0
   -1.8569    0.1199   -0.1877 C   0  0  0  0  0  0  0  0  0  0  0  0
   -3.3291    1.0729    0.0010 S   0  0  0  0  0  0  0  0  0  0  0  0
   -3.2281    2.0051    1.4928 C   0  0  0  0  0  0  0  0  0  0  0  0
   -3.4328    1.9427   -1.2167 O   0  0  0  0  0  0  0  0  0  0  0  0
   -4.5093    0.1430    0.0143 O   0  0  0  0  0  0  0  0  0  0  0  0
   -0.6869    0.4572   -0.8120 C   0  0  0  0  0  0  0  0  0  0  0  0
   -0.4510    1.7179   -1.4548 N   0  0  0  0  0  0  0  0  0  0  0  0
    0.1569   -0.5772   -0.7087 N   0  0  0  0  0  0  0  0  0  0  0  0
    1.5163   -0.6577   -1.2295 C   0  0  0  0  0  0  0  0  0  0  0  0
    2.4990   -0.1638   -0.2100 C   0  0  0  0  0  0  0  0  0  0  0  0
    3.0161   -1.0670    0.6595 C   0  0  0  0  0  0  0  0  0  0  0  0
    3.9225   -0.6747    1.6180 C   0  0  0  0  0  0  0  0  0  0  0  0
    4.3158    0.6290    1.7093 C   0  0  0  0  0  0  0  0  0  0  0  0
    3.7832    1.5314    0.8218 C   0  0  0  0  0  0  0  0  0  0  0  0
    2.8780    1.1569   -0.1404 C   0  0  0  0  0  0  0  0  0  0  0  0
   -0.4182   -1.5998   -0.0305 C   0  0  0  0  0  0  0  0  0  0  0  0
    0.1963   -2.9321    0.2956 C   0  0  0  0  0  0  0  0  0  0  0  0
  1  2  1  0
  2  3  1  0
  3  4  1  0
  4  5  1  0
  4  6  2  0
  4  7  2  0
  3  8  2  0
  8  9  1  0
  8 10  1  0
 10 11  1  0
 11 12  1  0
 12 13  2  0
 13 14  1  0
 14 15  2  0
 15 16  1  0
 16 17  2  0
 10 18  1  0
 18 19  1  0
 18  2  2  0
 17 12  1  0
M  END
>  <zinc_id>  (1) 
ZINC000001399719

>  <smiles>  (1) 
Cc1c(S(C)(=O)=O)c(N)n(Cc2ccccc2)c1C

$$$$
