
     RDKit          3D

 23 25  0  0  0  0  0  0  0  0999 V2000
    1.2045   -3.9957   -0.4252 C   0  0  0  0  0  0  0  0  0  0  0  0
    0.5297   -2.6759   -0.1594 C   0  0  0  0  0  0  0  0  0  0  0  0
   -0.7444   -2.5758   -0.0597 N   0  0  0  0  0  0  0  0  0  0  0  0
   -1.2862   -1.3142    0.1877 N   0  0  0  0  0  0  0  0  0  0  0  0
   -2.4379   -0.8162   -0.4693 C   0  0  0  0  0  0  0  0  0  0  0  0
   -2.9931   -1.5541   -1.3158 O   0  0  0  0  0  0  0  0  0  0  0  0
   -3.0171    0.4954   -0.2250 C   0  0  0  0  0  0  0  0  0  0  0  0
   -2.4763    1.3838    0.6914 C   0  0  0  0  0  0  0  0  0  0  0  0
   -3.0332    2.6207    0.9133 C   0  0  0  0  0  0  0  0  0  0  0  0
   -4.1625    2.9981    0.2090 C   0  0  0  0  0  0  0  0  0  0  0  0
   -4.7297    2.1494   -0.7071 C   0  0  0  0  0  0  0  0  0  0  0  0
   -4.1400    0.9175   -0.8998 C   0  0  0  0  0  0  0  0  0  0  0  0
   -4.7224    0.0672   -1.8291 O   0  0  0  0  0  0  0  0  0  0  0  0
    1.3099   -1.4562   -0.0049 C   0  0  0  0  0  0  0  0  0  0  0  0
    0.7426   -0.2307    0.2382 C   0  0  0  0  0  0  0  0  0  0  0  0
    1.5471    0.8996    0.3760 C   0  0  0  0  0  0  0  0  0  0  0  0
    2.9147    0.8434    0.2777 C   0  0  0  0  0  0  0  0  0  0  0  0
    3.4888   -0.3946    0.0321 C   0  0  0  0  0  0  0  0  0  0  0  0
    2.6911   -1.5138   -0.1043 C   0  0  0  0  0  0  0  0  0  0  0  0
    4.8692   -0.4290   -0.0634 O   0  0  0  0  0  0  0  0  0  0  0  0
    5.6458    0.6682   -0.4867 C   0  0  0  0  0  0  0  0  0  0  0  0
    5.0413    1.9947   -0.1740 C   0  0  0  0  0  0  0  0  0  0  0  0
    3.7579    1.9181    0.4037 O   0  0  0  0  0  0  0  0  0  0  0  0
  1  2  1  0
  2  3  2  0
  3  4  1  0
  4  5  1  0
  5  6  2  0
  5  7  1  0
  7  8  2  0
  8  9  1  0
  9 10  2  0
 10 11  1  0
 11 12  2  0
 12 13  1  0
  2 14  1  0
 14 15  2  0
 15 16  1  0
 16 17  2  0
 17 18  1  0
 18 19  2  0
 18 20  1  0
 20 21  1  0
 21 22  1  0
 22 23  1  0
 12  7  1  0
 19 14  1  0
 23 17  1  0
M  END
>  <zinc_id>  (1) 
ZINC000000185696

>  <smiles>  (1) 
C/C(=N/NC(=O)c1ccccc1O)c1ccc2c(c1)OCCO2

$$$$
