
     RDKit          3D

 20 22  0  0  0  0  0  0  0  0999 V2000
   -3.2534   -2.4421   -0.8646 C   0  0  0  0  0  0  0  0  0  0  0  0
   -3.1204   -1.0173   -0.5054 C   0  0  0  0  0  0  0  0  0  0  0  0
   -4.2155   -0.2570   -0.4014 N   0  0  0  0  0  0  0  0  0  0  0  0
   -4.1069    1.0222   -0.0798 N   0  0  0  0  0  0  0  0  0  0  0  0
   -2.8962    1.5942    0.1515 C   0  0  0  0  0  0  0  0  0  0  0  0
   -2.7928    3.0132    0.5070 C   0  0  0  0  0  0  0  0  0  0  0  0
   -1.7357    0.8559    0.0578 C   0  0  0  0  0  0  0  0  0  0  0  0
   -0.3992    1.1012    0.2185 C   0  0  0  0  0  0  0  0  0  0  0  0
    0.2076    2.3945    0.5811 C   0  0  0  0  0  0  0  0  0  0  0  0
    0.3146   -0.0311   -0.0053 N   0  0  0  0  0  0  0  0  0  0  0  0
    1.7306   -0.1650    0.0684 C   0  0  0  0  0  0  0  0  0  0  0  0
    2.3503   -0.2996    1.3110 C   0  0  0  0  0  0  0  0  0  0  0  0
    3.7141   -0.4299    1.4031 C   0  0  0  0  0  0  0  0  0  0  0  0
    4.5250   -0.4339    0.2903 C   0  0  0  0  0  0  0  0  0  0  0  0
    5.9268   -0.5726    0.4604 N   0  0  0  0  0  0  0  0  0  0  0  0
    3.9256   -0.3011   -0.9526 C   0  0  0  0  0  0  0  0  0  0  0  0
    2.5439   -0.1704   -1.0253 C   0  0  0  0  0  0  0  0  0  0  0  0
   -0.5875   -0.9801   -0.3057 C   0  0  0  0  0  0  0  0  0  0  0  0
   -0.2537   -2.3974   -0.6279 C   0  0  0  0  0  0  0  0  0  0  0  0
   -1.8771   -0.4836   -0.2811 C   0  0  0  0  0  0  0  0  0  0  0  0
  1  2  1  0
  2  3  2  0
  3  4  1  0
  4  5  2  0
  5  6  1  0
  5  7  1  0
  7  8  2  0
  8  9  1  0
  8 10  1  0
 10 11  1  0
 11 12  2  0
 12 13  1  0
 13 14  2  0
 14 15  1  0
 14 16  1  0
 16 17  2  0
 10 18  1  0
 18 19  1  0
 18 20  2  0
 20  2  1  0
 20  7  1  0
 17 11  1  0
M  END
>  <zinc_id>  (1) 
ZINC000000036452

>  <smiles>  (1) 
Cc1nnc(C)c2c(C)n(-c3ccc(N)cc3)c(C)c12

$$$$
