
     RDKit          3D

 31 34  0  0  0  0  0  0  0  0999 V2000
    6.7713    3.4046    1.9932 C   0  0  0  0  0  0  0  0  0  0  0  0
    7.5333    3.0526    0.7331 C   0  0  0  0  0  0  0  0  0  0  0  0
    7.4096    1.6941    0.4272 O   0  0  0  0  0  0  0  0  0  0  0  0
    6.1970    1.0560    0.1756 C   0  0  0  0  0  0  0  0  0  0  0  0
    4.9935    1.6972    0.2020 C   0  0  0  0  0  0  0  0  0  0  0  0
    3.8170    0.9886   -0.0615 C   0  0  0  0  0  0  0  0  0  0  0  0
    3.8440   -0.3557   -0.3502 C   0  0  0  0  0  0  0  0  0  0  0  0
    2.6818   -1.1150   -0.6233 N   0  0  0  0  0  0  0  0  0  0  0  0
    1.3739   -0.5671   -0.6270 C   0  0  0  0  0  0  0  0  0  0  0  0
    1.2873    0.6500   -0.3715 O   0  0  0  0  0  0  0  0  0  0  0  0
    0.1644   -1.3998   -0.9205 C   0  0  0  0  0  0  0  0  0  0  0  0
   -1.0668   -0.7960   -0.9049 C   0  0  0  0  0  0  0  0  0  0  0  0
   -1.4097    0.5815   -0.6386 N   0  0  0  0  0  0  0  0  0  0  0  0
   -2.7826    0.9472   -0.6879 C   0  0  0  0  0  0  0  0  0  0  0  0
   -3.6276    0.0757   -0.9556 O   0  0  0  0  0  0  0  0  0  0  0  0
   -3.1324    2.3698   -0.4125 C   0  0  0  0  0  0  0  0  0  0  0  0
   -4.5120    2.5930   -0.4932 O   0  0  0  0  0  0  0  0  0  0  0  0
   -5.4565    1.9671    0.2886 C   0  0  0  0  0  0  0  0  0  0  0  0
   -6.7839    2.2871    0.0978 C   0  0  0  0  0  0  0  0  0  0  0  0
   -7.7906    1.6918    0.8538 C   0  0  0  0  0  0  0  0  0  0  0  0
   -7.4584    0.7696    1.8067 C   0  0  0  0  0  0  0  0  0  0  0  0
   -6.1363    0.4522    1.9952 C   0  0  0  0  0  0  0  0  0  0  0  0
   -5.1281    1.0402    1.2468 C   0  0  0  0  0  0  0  0  0  0  0  0
   -2.1317   -2.0662   -1.2795 S   0  0  0  0  0  0  0  0  0  0  0  0
   -1.0123   -3.3325   -1.4490 C   0  0  0  0  0  0  0  0  0  0  0  0
    0.1788   -2.7270   -1.2065 C   0  0  0  0  0  0  0  0  0  0  0  0
    1.2370   -3.8136   -1.3428 C   0  0  0  0  0  0  0  0  0  0  0  0
    0.4630   -5.0656   -0.9757 C   0  0  0  0  0  0  0  0  0  0  0  0
   -0.8330   -4.8023   -1.7505 C   0  0  0  0  0  0  0  0  0  0  0  0
    5.0650   -0.9889   -0.3732 C   0  0  0  0  0  0  0  0  0  0  0  0
    6.2449   -0.2884   -0.1112 C   0  0  0  0  0  0  0  0  0  0  0  0
  1  2  1  0
  2  3  1  0
  3  4  1  0
  4  5  2  0
  5  6  1  0
  6  7  2  0
  7  8  1  0
  8  9  1  0
  9 10  2  0
  9 11  1  0
 11 12  2  0
 12 13  1  0
 13 14  1  0
 14 15  2  0
 14 16  1  0
 16 17  1  0
 17 18  1  0
 18 19  2  0
 19 20  1  0
 20 21  2  0
 21 22  1  0
 22 23  2  0
 12 24  1  0
 24 25  1  0
 25 26  2  0
 26 27  1  0
 27 28  1  0
 28 29  1  0
  7 30  1  0
 30 31  2  0
 31  4  1  0
 26 11  1  0
 23 18  1  0
 29 25  1  0
M  END
>  <zinc_id>  (1) 
ZINC000000716648

>  <smiles>  (1) 
CCOc1ccc(NC(=O)c2c(NC(=O)COc3ccccc3)sc3c2CCC3)cc1

$$$$
