
     RDKit          3D

 19 19  0  0  0  0  0  0  0  0999 V2000
   -3.0392   -0.0390   -3.5065 C   0  0  0  0  0  0  0  0  0  0  0  0
   -3.9007   -0.6956   -2.7330 C   0  0  0  0  0  0  0  0  0  0  0  0
   -3.6510   -1.0823   -1.3368 C   0  0  0  0  0  0  0  0  0  0  0  0
   -2.3314   -0.6687   -0.8552 N   0  0  0  0  0  0  0  0  0  0  0  0
   -2.1657    0.7686   -0.7184 C   0  0  0  0  0  0  0  0  0  0  0  0
   -3.0464    1.1977    0.4034 C   0  0  0  0  0  0  0  0  0  0  0  0
   -2.6251    1.7871    1.5063 C   0  0  0  0  0  0  0  0  0  0  0  0
   -1.3075   -1.5985   -0.5436 C   0  0  0  0  0  0  0  0  0  0  0  0
   -1.7985   -3.1958   -0.7881 S   0  0  0  0  0  0  0  0  0  0  0  0
   -0.0642   -1.3330   -0.0986 N   0  0  0  0  0  0  0  0  0  0  0  0
    0.7522   -0.2709    0.2348 C   0  0  0  0  0  0  0  0  0  0  0  0
    0.4176    1.0616    0.1523 C   0  0  0  0  0  0  0  0  0  0  0  0
    1.2797    2.0751    0.5014 C   0  0  0  0  0  0  0  0  0  0  0  0
    2.5535    1.8113    0.9628 C   0  0  0  0  0  0  0  0  0  0  0  0
    2.9145    0.4853    1.0552 C   0  0  0  0  0  0  0  0  0  0  0  0
    4.2355    0.1474    1.5335 N   0  0  0  0  0  4  0  0  0  0  0  0
    4.5820   -1.0429    1.6270 O   0  0  0  0  0  0  0  0  0  0  0  0
    5.1328    1.1185    1.8938 O   0  0  0  0  0  1  0  0  0  0  0  0
    2.0619   -0.5260    0.7098 C   0  0  0  0  0  0  0  0  0  0  0  0
  1  2  2  0
  2  3  1  0
  3  4  1  0
  4  5  1  0
  5  6  1  0
  6  7  2  0
  4  8  1  0
  8  9  2  0
  8 10  1  0
 10 11  1  0
 11 12  2  0
 12 13  1  0
 13 14  2  0
 14 15  1  0
 15 16  1  0
 16 17  2  0
 16 18  1  0
 15 19  2  0
 19 11  1  0
M  CHG  2  16   1  18  -1
M  END
>  <zinc_id>  (1) 
ZINC000000611730

>  <smiles>  (1) 
C=CCN(CC=C)C(=S)Nc1cccc([N+](=O)[O-])c1

$$$$
