
     RDKit          3D

 20 20  0  0  0  0  0  0  0  0999 V2000
    4.9173    0.5519    0.0660 C   0  0  0  0  0  0  0  0  0  0  0  0
    4.0713   -0.5889    0.5684 C   0  0  0  0  0  0  0  0  0  0  0  0
    4.3621   -1.8641   -0.1879 C   0  0  0  0  0  0  0  0  0  0  0  0
    2.6211   -0.2674    0.5596 C   0  0  0  0  0  0  0  0  0  0  0  0
    1.7544   -0.9191   -0.1069 N   0  0  0  0  0  0  0  0  0  0  0  0
    0.4128   -0.5442   -0.0543 N   0  0  0  0  0  0  0  0  0  0  0  0
   -0.4881   -0.6753   -1.1042 C   0  0  0  0  0  0  0  0  0  0  0  0
    0.0150   -1.1884   -2.1813 O   0  0  0  0  0  0  0  0  0  0  0  0
   -1.8945   -0.3167   -1.1613 C   0  0  0  0  0  0  0  0  0  0  0  0
   -2.4865   -0.1743   -2.4445 C   0  0  0  0  0  0  0  0  0  0  0  0
   -3.7883    0.2275   -2.5398 C   0  0  0  0  0  0  0  0  0  0  0  0
   -4.5686    0.5065   -1.4364 C   0  0  0  0  0  0  0  0  0  0  0  0
   -4.0089    0.3712   -0.2009 C   0  0  0  0  0  0  0  0  0  0  0  0
   -2.6566   -0.0465   -0.0643 C   0  0  0  0  0  0  0  0  0  0  0  0
   -2.1487   -0.1817    1.2494 N   0  0  0  0  0  4  0  0  0  0  0  0
   -2.6481    0.5983    2.1222 O   0  0  0  0  0  0  0  0  0  0  0  0
   -1.2100   -1.0242    1.6766 O   0  0  0  0  0  1  0  0  0  0  0  0
    2.2033    0.8897    1.3908 C   0  0  0  0  0  0  0  0  0  0  0  0
    2.5993    0.5587    2.8286 C   0  0  0  0  0  0  0  0  0  0  0  0
    2.9417    2.1611    1.0201 C   0  0  0  0  0  0  0  0  0  0  0  0
  1  2  1  0
  2  3  1  0
  2  4  1  0
  4  5  2  3
  5  6  1  0
  6  7  1  0
  7  8  2  0
  7  9  1  0
  9 10  2  0
 10 11  1  0
 11 12  2  0
 12 13  1  0
 13 14  2  0
 14 15  1  0
 15 16  2  0
 15 17  1  0
  4 18  1  0
 18 19  1  0
 18 20  1  0
 14  9  1  0
M  CHG  2  15   1  17  -1
M  END
>  <zinc_id>  (1) 
ZINC000004503707

>  <smiles>  (1) 
CC(C)C(=NNC(=O)c1ccccc1[N+](=O)[O-])C(C)C

$$$$
