
     RDKit          3D

 30 33  0  0  0  0  0  0  0  0999 V2000
    3.2336   -1.1329    2.0038 O   0  0  0  0  0  0  0  0  0  0  0  0
    3.1548   -0.9430    0.7695 C   0  0  0  0  0  0  0  0  0  0  0  0
    4.3420   -0.8189    0.0134 N   0  0  0  0  0  0  0  0  0  0  0  0
    5.6382   -0.8875    0.5452 N   0  0  0  0  0  0  0  0  0  0  0  0
    6.5585    0.1851    0.3053 C   0  0  0  0  0  0  0  0  0  0  0  0
    7.7691    0.1824    0.8141 C   0  0  0  0  0  0  0  0  0  0  0  0
    8.6449    1.3516    0.5035 C   0  0  0  0  0  0  0  0  0  0  0  0
    8.6479    1.6906   -0.9539 C   0  0  0  0  0  0  0  0  0  0  0  0
    7.2794    1.5512   -1.5967 C   0  0  0  0  0  0  0  0  0  0  0  0
    6.1855    1.3654   -0.5433 C   0  0  0  0  0  0  0  0  0  0  0  0
    1.8318   -0.8506    0.1362 C   0  0  0  0  0  0  0  0  0  0  0  0
    0.6663   -1.2494    0.7161 C   0  0  0  0  0  0  0  0  0  0  0  0
   -0.5424   -1.0864    0.0279 C   0  0  0  0  0  0  0  0  0  0  0  0
   -0.6184   -0.5324   -1.2338 C   0  0  0  0  0  0  0  0  0  0  0  0
   -1.8564   -0.3065   -1.9994 C   0  0  0  0  0  0  0  0  0  0  0  0
   -3.0090   -0.0698   -1.3004 O   0  0  0  0  0  0  0  0  0  0  0  0
   -3.6160   -0.9415   -0.4277 C   0  0  0  0  0  0  0  0  0  0  0  0
   -3.1494   -2.1967   -0.1298 C   0  0  0  0  0  0  0  0  0  0  0  0
   -3.7790   -3.0519    0.7442 C   0  0  0  0  0  0  0  0  0  0  0  0
   -4.9514   -2.6134    1.3541 C   0  0  0  0  0  0  0  0  0  0  0  0
   -5.4179   -1.3724    1.0636 C   0  0  0  0  0  0  0  0  0  0  0  0
   -4.8077   -0.5034    0.1976 C   0  0  0  0  0  0  0  0  0  0  0  0
   -5.3090    0.8286   -0.0970 C   0  0  0  0  0  0  0  0  0  0  0  0
   -5.8039    1.6376    0.8915 C   0  0  0  0  0  0  0  0  0  0  0  0
   -6.2449    2.8989    0.5730 C   0  0  0  0  0  0  0  0  0  0  0  0
   -6.2207    3.4137   -0.7103 C   0  0  0  0  0  0  0  0  0  0  0  0
   -5.7140    2.5654   -1.6715 C   0  0  0  0  0  0  0  0  0  0  0  0
   -5.2663    1.3082   -1.3937 C   0  0  0  0  0  0  0  0  0  0  0  0
    0.5979   -0.1301   -1.8130 C   0  0  0  0  0  0  0  0  0  0  0  0
    1.7566   -0.2922   -1.1366 C   0  0  0  0  0  0  0  0  0  0  0  0
  1  2  2  0
  2  3  1  0
  3  4  1  0
  4  5  1  0
  5  6  2  0
  6  7  1  0
  7  8  1  0
  8  9  1  0
  9 10  1  0
  2 11  1  0
 11 12  2  0
 12 13  1  0
 13 14  2  0
 14 15  1  0
 15 16  1  0
 16 17  1  0
 17 18  2  0
 18 19  1  0
 19 20  2  0
 20 21  1  0
 21 22  2  0
 22 23  1  0
 23 24  2  0
 24 25  1  0
 25 26  2  0
 26 27  1  0
 27 28  2  0
 14 29  1  0
 29 30  2  0
 10  5  1  0
 30 11  1  0
 22 17  1  0
 28 23  1  0
M  END
>  <zinc_id>  (1) 
ZINC000003281528

>  <smiles>  (1) 
O=C(NNC1=CCCCC1)c1ccc(COc2ccccc2-c2ccccc2)cc1

$$$$
