
     RDKit          3D

 19 20  0  0  0  0  0  0  0  0999 V2000
    4.1360    0.7754   -1.3711 C   0  0  0  0  0  0  0  0  0  0  0  0
    3.5902    0.6000    0.0197 C   0  0  0  0  0  0  0  0  0  0  0  0
    3.9336    1.8354    0.8128 C   0  0  0  0  0  0  0  0  0  0  0  0
    4.2256   -0.5772    0.7413 C   0  0  0  0  0  0  0  0  0  0  0  0
    2.2186    0.4201    0.0456 O   0  0  0  0  0  0  0  0  0  0  0  0
    1.5756   -0.6534   -0.6082 C   0  0  0  0  0  0  0  0  0  0  0  0
    2.3600   -1.4221   -1.2098 O   0  0  0  0  0  0  0  0  0  0  0  0
    0.1684   -0.7811   -0.5435 N   0  0  0  0  0  0  0  0  0  0  0  0
   -0.4690   -1.8528   -1.1967 C   0  0  0  0  0  0  0  0  0  0  0  0
   -1.8430   -2.0462   -0.3541 C   0  0  2  0  0  0  0  0  0  0  0  0
   -2.8266   -1.7210   -1.6278 C   0  0  0  0  0  0  0  0  0  0  0  0
   -4.4115   -1.9084   -0.7999 Cl  0  0  0  0  0  0  0  0  0  0  0  0
   -1.9351   -0.5842    0.2545 C   0  0  0  0  0  0  0  0  0  0  0  0
   -3.0329   -0.0148    0.8544 C   0  0  0  0  0  0  0  0  0  0  0  0
   -2.9163    1.2918    1.3424 C   0  0  0  0  0  0  0  0  0  0  0  0
   -1.7403    1.9617    1.2164 C   0  0  0  0  0  0  0  0  0  0  0  0
   -1.5997    3.3015    1.7100 N   0  0  0  0  0  0  0  0  0  0  0  0
   -0.6719    1.3295    0.6009 C   0  0  0  0  0  0  0  0  0  0  0  0
   -0.7618    0.0458    0.1130 C   0  0  0  0  0  0  0  0  0  0  0  0
  1  2  1  0
  2  3  1  0
  2  4  1  0
  2  5  1  0
  5  6  1  0
  6  7  2  0
  6  8  1  0
  8  9  1  0
  9 10  1  0
 10 11  1  6
 11 12  1  0
 10 13  1  0
 13 14  2  0
 14 15  1  0
 15 16  2  0
 16 17  1  0
 16 18  1  0
 18 19  2  0
 19  8  1  0
 19 13  1  0
M  END
>  <zinc_id>  (1) 
ZINC000001857883

>  <smiles>  (1) 
CC(C)(C)OC(=O)N1C[C@H](CCl)c2ccc(N)cc21

$$$$
