
     RDKit          3D

 20 22  0  0  0  0  0  0  0  0999 V2000
    0.5834    3.3991    1.9623 N   0  0  0  0  0  0  0  0  0  0  0  0
    0.0331    2.5302    1.4163 C   0  0  0  0  0  0  0  0  0  0  0  0
   -0.6476    1.4501    0.7603 C   0  0  0  0  0  0  0  0  0  0  0  0
   -1.5294    1.7061   -0.1438 C   0  0  0  0  0  0  0  0  0  0  0  0
   -1.7934    3.0907   -0.4575 N   0  0  0  0  0  0  0  0  0  0  0  0
   -2.2471    0.7730   -0.8422 O   0  0  0  0  0  0  0  0  0  0  0  0
   -1.9961   -0.5621   -0.5434 C   0  0  0  0  0  0  0  0  0  0  0  0
   -1.1353   -0.9050    0.3423 C   0  0  0  0  0  0  0  0  0  0  0  0
   -0.9397   -2.3627    0.5890 C   0  0  0  0  0  0  0  0  0  0  0  0
   -2.3253   -2.9386    0.7948 C   0  0  0  0  0  0  0  0  0  0  0  0
   -3.2377   -2.6600   -0.3488 C   0  0  0  0  0  0  0  0  0  0  0  0
   -2.7874   -1.6191   -1.3126 C   0  0  0  0  0  0  0  0  0  0  0  0
   -0.2559    0.0089    1.2055 C   0  0  1  0  0  0  0  0  0  0  0  0
    1.0989   -0.1087    0.4064 C   0  0  0  0  0  0  0  0  0  0  0  0
    1.4326   -1.2937   -0.1367 C   0  0  0  0  0  0  0  0  0  0  0  0
    2.6247   -1.4559   -0.8523 C   0  0  0  0  0  0  0  0  0  0  0  0
    3.4602   -0.3784   -0.9955 C   0  0  0  0  0  0  0  0  0  0  0  0
    4.6470   -0.4781   -1.6893 F   0  0  0  0  0  0  0  0  0  0  0  0
    3.1087    0.8299   -0.4354 C   0  0  0  0  0  0  0  0  0  0  0  0
    1.9059    0.9741    0.2807 C   0  0  0  0  0  0  0  0  0  0  0  0
  1  2  3  0
  2  3  1  0
  3  4  2  0
  4  5  1  0
  4  6  1  0
  6  7  1  0
  7  8  2  0
  8  9  1  0
  9 10  1  0
 10 11  1  0
 11 12  1  0
  8 13  1  0
 13 14  1  6
 14 15  2  0
 15 16  1  0
 16 17  2  0
 17 18  1  0
 17 19  1  0
 19 20  2  0
 13  3  1  0
 20 14  1  0
 12  7  1  0
M  END
>  <zinc_id>  (1) 
ZINC000000236112

>  <smiles>  (1) 
N#CC1=C(N)OC2=C(CCCC2)[C@H]1c1ccc(F)cc1

$$$$
