
     RDKit          3D

 20 22  0  0  0  0  0  0  0  0999 V2000
   -5.0803    2.3717   -0.4162 C   0  0  0  0  0  0  0  0  0  0  0  0
   -4.1129    1.2424   -0.8016 C   0  0  0  0  0  0  0  0  0  0  0  0
   -3.5877    0.6965    0.5062 C   0  0  0  0  0  0  0  0  0  0  0  0
   -2.6357   -0.4072    0.3241 C   0  0  0  0  0  0  0  0  0  0  0  0
   -1.2903   -0.1779    0.4909 C   0  0  0  0  0  0  0  0  0  0  0  0
   -0.3562   -1.1792    0.3350 C   0  0  0  0  0  0  0  0  0  0  0  0
    1.0599   -0.8854    0.5175 C   0  0  0  0  0  0  0  0  0  0  0  0
    1.9811   -1.6019    1.2292 N   0  0  0  0  0  0  0  0  0  0  0  0
    3.1360   -1.0357    1.1510 O   0  0  0  0  0  0  0  0  0  0  0  0
    3.0959    0.0585    0.4157 C   0  0  0  0  0  0  0  0  0  0  0  0
    4.0634    0.9864    0.0493 C   0  0  0  0  0  0  0  0  0  0  0  0
    3.7315    2.0738   -0.7565 C   0  0  0  0  0  0  0  0  0  0  0  0
    4.6975    3.0125   -1.1308 O   0  0  0  0  0  0  0  0  0  0  0  0
    2.4228    2.1850   -1.1665 C   0  0  0  0  0  0  0  0  0  0  0  0
    1.4751    1.2492   -0.7903 C   0  0  0  0  0  0  0  0  0  0  0  0
    1.7848    0.1700    0.0046 C   0  0  0  0  0  0  0  0  0  0  0  0
   -0.7931   -2.4397    0.0033 C   0  0  0  0  0  0  0  0  0  0  0  0
   -2.1405   -2.6743   -0.1651 C   0  0  0  0  0  0  0  0  0  0  0  0
   -3.0503   -1.6621   -0.0048 C   0  0  0  0  0  0  0  0  0  0  0  0
   -4.4012   -1.9824   -0.1937 O   0  0  0  0  0  0  0  0  0  0  0  0
  1  2  1  0
  2  3  1  0
  3  4  1  0
  4  5  2  0
  5  6  1  0
  6  7  1  0
  7  8  2  0
  8  9  1  0
  9 10  1  0
 10 11  2  0
 11 12  1  0
 12 13  1  0
 12 14  2  0
 14 15  1  0
 15 16  2  0
  6 17  2  0
 17 18  1  0
 18 19  2  0
 19 20  1  0
 19  4  1  0
 16  7  1  0
 16 10  1  0
M  END
>  <zinc_id>  (1) 
ZINC000003819167

>  <smiles>  (1) 
CCCc1cc(-c2noc3cc(O)ccc23)ccc1O

$$$$
