
     RDKit          3D

 20 23  0  0  0  0  0  0  0  0999 V2000
    0.7790   -1.1609   -1.1706 C   0  0  0  0  0  0  0  0  0  0  0  0
    0.4823   -0.0971   -0.4082 C   0  0  0  0  0  0  0  0  0  0  0  0
   -0.9378    0.0673   -0.0216 C   0  0  0  0  0  0  0  0  0  0  0  0
   -1.2938    1.1392    0.7577 C   0  0  0  0  0  0  0  0  0  0  0  0
   -2.6041    1.3272    1.1385 C   0  0  0  0  0  0  0  0  0  0  0  0
   -3.5904    0.4416    0.7451 C   0  0  0  0  0  0  0  0  0  0  0  0
   -3.2093   -0.6324   -0.0405 C   0  0  0  0  0  0  0  0  0  0  0  0
   -1.9008   -0.8147   -0.4172 C   0  0  0  0  0  0  0  0  0  0  0  0
   -4.2222   -1.5119   -0.4247 O   0  0  0  0  0  0  0  0  0  0  0  0
   -5.4275   -1.6290    0.3025 C   0  0  0  0  0  0  0  0  0  0  0  0
   -5.9490   -0.2855    0.7550 C   0  0  0  0  0  0  0  0  0  0  0  0
   -4.9134    0.5981    1.1076 O   0  0  0  0  0  0  0  0  0  0  0  0
    1.3980    0.8557    0.0436 N   0  0  0  0  0  0  0  0  0  0  0  0
    2.7529    0.9117   -0.1843 N   0  0  0  0  0  0  0  0  0  0  0  0
    3.3590    0.0172   -0.8952 C   0  0  0  0  0  0  0  0  0  0  0  0
    4.7322    0.1403   -1.0822 N   0  0  0  0  0  0  0  0  0  0  0  0
    5.6029    0.8618   -0.1420 C   0  0  0  0  0  0  0  0  0  0  0  0
    5.6499    0.3638    1.2718 C   0  0  0  0  0  0  0  0  0  0  0  0
    6.8046   -0.0201    0.2981 C   0  0  0  0  0  0  0  0  0  0  0  0
    2.4876   -1.3551   -1.6334 S   0  0  0  0  0  0  0  0  0  0  0  0
  1  2  2  0
  2  3  1  0
  3  4  2  0
  4  5  1  0
  5  6  2  0
  6  7  1  0
  7  8  2  0
  7  9  1  0
  9 10  1  0
 10 11  1  0
 11 12  1  0
  2 13  1  0
 13 14  1  0
 14 15  2  0
 15 16  1  0
 16 17  1  0
 17 18  1  0
 18 19  1  0
 15 20  1  0
 20  1  1  0
  8  3  1  0
 19 17  1  0
 12  6  1  0
M  END
>  <zinc_id>  (1) 
ZINC000002665136

>  <smiles>  (1) 
C1=C(c2ccc3c(c2)OCCO3)NN=C(NC2CC2)S1

$$$$
