
     RDKit          3D

 18 19  0  0  0  0  0  0  0  0999 V2000
    0.8559   -1.6136   -0.4483 O   0  0  0  0  0  0  0  0  0  0  0  0
   -0.0962   -0.9850    0.0339 C   0  0  0  0  0  0  0  0  0  0  0  0
    0.0343   -0.2786    1.2461 N   0  0  0  0  0  0  0  0  0  0  0  0
    1.1894   -0.2187    1.9911 N   0  0  0  0  0  0  0  0  0  0  0  0
    2.4293    0.3541    1.5651 C   0  0  0  0  0  0  0  0  0  0  0  0
    2.9093   -0.0492    0.4183 C   0  0  0  0  0  0  0  0  0  0  0  0
    4.1602    0.4172   -0.1814 C   0  0  0  0  0  0  0  0  0  0  0  0
    5.0037    1.1266    0.8361 C   0  0  0  0  0  0  0  0  0  0  0  0
    4.1473    2.1341    1.6138 C   0  0  0  0  0  0  0  0  0  0  0  0
    3.1098    1.3627    2.4231 C   0  0  0  0  0  0  0  0  0  0  0  0
   -1.4064   -0.9444   -0.6359 C   0  0  0  0  0  0  0  0  0  0  0  0
   -1.5915   -1.6325   -1.8412 C   0  0  0  0  0  0  0  0  0  0  0  0
   -2.8430   -1.5894   -2.4663 C   0  0  0  0  0  0  0  0  0  0  0  0
   -3.9161   -0.8976   -1.9507 C   0  0  0  0  0  0  0  0  0  0  0  0
   -5.4587   -0.8836   -2.7801 Cl  0  0  0  0  0  0  0  0  0  0  0  0
   -3.7095   -0.2251   -0.7589 C   0  0  0  0  0  0  0  0  0  0  0  0
   -2.4746   -0.2624   -0.1346 C   0  0  0  0  0  0  0  0  0  0  0  0
   -2.3431    0.4447    1.0701 O   0  0  0  0  0  0  0  0  0  0  0  0
  1  2  2  0
  2  3  1  0
  3  4  1  0
  4  5  1  0
  5  6  2  0
  6  7  1  0
  7  8  1  0
  8  9  1  0
  9 10  1  0
  2 11  1  0
 11 12  2  0
 12 13  1  0
 13 14  2  0
 14 15  1  0
 14 16  1  0
 16 17  2  0
 17 18  1  0
 10  5  1  0
 17 11  1  0
M  END
>  <zinc_id>  (1) 
ZINC000002891262

>  <smiles>  (1) 
O=C(NNC1=CCCCC1)c1ccc(Cl)cc1O

$$$$
