
     RDKit          3D

 20 23  0  0  0  0  0  0  0  0999 V2000
   -4.9521    2.1388   -0.1765 C   0  0  0  0  0  0  0  0  0  0  0  0
   -4.7772    0.6553    0.0325 C   0  0  0  0  0  0  0  0  0  0  0  0
   -3.3586    0.2704   -0.0325 N   0  0  0  0  0  0  0  0  0  0  0  0
   -2.4864    0.2296    1.0531 C   0  0  0  0  0  0  0  0  0  0  0  0
   -2.6396    0.0126    2.2310 O   0  0  0  0  0  0  0  0  0  0  0  0
   -1.0964    0.5568    0.4027 C   0  0  1  0  0  0  0  0  0  0  0  0
   -0.2066   -0.5107    1.3012 C   0  0  0  0  0  0  0  0  0  0  0  0
    1.1039   -0.4734    0.5961 C   0  0  0  0  0  0  0  0  0  0  0  0
    1.0809   -0.8646   -0.7285 C   0  0  0  0  0  0  0  0  0  0  0  0
    2.3270   -0.7626   -1.1677 N   0  0  0  0  0  0  0  0  0  0  0  0
    3.1441   -0.3250   -0.1872 C   0  0  0  0  0  0  0  0  0  0  0  0
    4.4937   -0.0528   -0.1094 C   0  0  0  0  0  0  0  0  0  0  0  0
    5.0866    0.4006    1.0671 C   0  0  0  0  0  0  0  0  0  0  0  0
    4.3008    0.5828    2.1881 C   0  0  0  0  0  0  0  0  0  0  0  0
    2.9392    0.3192    2.1475 C   0  0  0  0  0  0  0  0  0  0  0  0
    2.3989   -0.1283    0.9580 C   0  0  0  0  0  0  0  0  0  0  0  0
   -0.2570   -1.2611   -1.2418 C   0  0  0  0  0  0  0  0  0  0  0  0
   -1.3006   -0.4133   -0.8152 N   0  0  0  0  0  0  0  0  0  0  0  0
   -2.6169   -0.1275   -1.1815 C   0  0  0  0  0  0  0  0  0  0  0  0
   -3.1837   -0.2469   -2.7180 S   0  0  0  0  0  0  0  0  0  0  0  0
  1  2  1  0
  2  3  1  0
  3  4  1  0
  4  5  2  0
  4  6  1  0
  6  7  1  1
  7  8  1  0
  8  9  2  0
  9 10  1  0
 10 11  1  0
 11 12  2  0
 12 13  1  0
 13 14  2  0
 14 15  1  0
 15 16  2  0
  9 17  1  0
 17 18  1  0
 18 19  1  0
 19 20  2  0
 19  3  1  0
 18  6  1  0
 16  8  1  0
 16 11  1  0
M  END
>  <zinc_id>  (1) 
ZINC000000486185

>  <smiles>  (1) 
CCN1C(=O)[C@H]2Cc3c([nH]c4ccccc34)CN2C1=S

$$$$
