
     RDKit          3D

 33 36  0  0  0  0  0  0  0  0999 V2000
    5.4264    2.7516   -1.8110 C   0  0  0  0  0  0  0  0  0  0  0  0
    6.5108    1.6894   -2.0488 C   0  0  0  0  0  0  0  0  0  0  0  0
    7.4839    2.1511   -3.1081 C   0  0  0  0  0  0  0  0  0  0  0  0
    7.2382    1.5651   -0.7460 C   0  0  0  0  0  0  0  0  0  0  0  0
    5.8535    0.4714   -2.4354 O   0  0  0  0  0  0  0  0  0  0  0  0
    4.9668   -0.0675   -1.5175 C   0  0  0  0  0  0  0  0  0  0  0  0
    5.4159   -0.9902   -0.5877 C   0  0  0  0  0  0  0  0  0  0  0  0
    4.5283   -1.5289    0.3278 C   0  0  0  0  0  0  0  0  0  0  0  0
    3.1987   -1.1670    0.3385 C   0  0  0  0  0  0  0  0  0  0  0  0
    2.2671   -1.7801    1.3608 C   0  0  0  0  0  0  0  0  0  0  0  0
    1.7364   -3.0768    0.4837 C   0  0  1  0  0  0  0  0  0  0  0  0
    0.7487   -3.6255    1.6936 C   0  0  0  0  0  0  0  0  0  0  0  0
    1.6027   -4.3845    2.4895 O   0  0  0  0  0  0  0  0  0  0  0  0
    0.6133   -2.2781   -0.2702 N   0  0  0  0  0  0  0  0  0  0  0  0
   -0.1521   -1.3438    0.4106 C   0  0  0  0  0  0  0  0  0  0  0  0
    0.0754   -1.1499    1.6408 O   0  0  0  0  0  0  0  0  0  0  0  0
   -1.1538   -0.6111   -0.2006 O   0  0  0  0  0  0  0  0  0  0  0  0
   -1.8609    0.3216    0.6037 C   0  0  0  0  0  0  0  0  0  0  0  0
   -2.8865    0.9816   -0.2940 C   0  0  0  0  0  0  0  0  0  0  0  0
   -3.6179    1.9606    0.5374 C   0  0  0  0  0  0  0  0  0  0  0  0
   -3.2774    3.0810    1.2594 C   0  0  0  0  0  0  0  0  0  0  0  0
   -4.1650    3.8583    1.9742 C   0  0  0  0  0  0  0  0  0  0  0  0
   -5.4917    3.4939    1.9707 C   0  0  0  0  0  0  0  0  0  0  0  0
   -5.8713    2.3785    1.2589 C   0  0  0  0  0  0  0  0  0  0  0  0
   -4.9486    1.6022    0.5392 C   0  0  0  0  0  0  0  0  0  0  0  0
   -5.1581    0.3969   -0.2542 C   0  0  0  0  0  0  0  0  0  0  0  0
   -6.3092   -0.3271   -0.5293 C   0  0  0  0  0  0  0  0  0  0  0  0
   -6.2525   -1.4595   -1.3113 C   0  0  0  0  0  0  0  0  0  0  0  0
   -5.0513   -1.8514   -1.8064 C   0  0  0  0  0  0  0  0  0  0  0  0
   -3.9200   -1.1230   -1.5262 C   0  0  0  0  0  0  0  0  0  0  0  0
   -3.9270    0.0209   -0.7461 C   0  0  0  0  0  0  0  0  0  0  0  0
    2.7446   -0.2494   -0.5834 C   0  0  0  0  0  0  0  0  0  0  0  0
    3.6326    0.2898   -1.5001 C   0  0  0  0  0  0  0  0  0  0  0  0
  1  2  1  0
  2  3  1  0
  2  4  1  0
  2  5  1  0
  5  6  1  0
  6  7  2  0
  7  8  1  0
  8  9  2  0
  9 10  1  0
 11 10  1  1
 11 12  1  0
 12 13  1  0
 11 14  1  0
 14 15  1  0
 15 16  2  0
 15 17  1  0
 17 18  1  0
 18 19  1  0
 19 20  1  0
 20 21  2  0
 21 22  1  0
 22 23  2  0
 23 24  1  0
 24 25  2  0
 25 26  1  0
 26 27  2  0
 27 28  1  0
 28 29  2  0
 29 30  1  0
 30 31  2  0
  9 32  1  0
 32 33  2  0
 33  6  1  0
 31 19  1  0
 25 20  1  0
 31 26  1  0
M  END
>  <zinc_id>  (1) 
ZINC000001044433

>  <smiles>  (1) 
CC(C)(C)Oc1ccc(C[C@@H](CO)NC(=O)OCC2c3ccccc3-c3ccccc32)cc1

$$$$
