
     RDKit          3D

 32 35  0  0  0  0  0  0  0  0999 V2000
    3.4548    2.9750   -0.3490 C   0  0  0  0  0  0  0  0  0  0  0  0
    3.8225    2.5003    1.0681 C   0  0  0  0  0  0  0  0  0  0  0  0
    2.7378    2.6210    1.9034 O   0  0  0  0  0  0  0  0  0  0  0  0
    1.5614    1.9474    1.7620 C   0  0  0  0  0  0  0  0  0  0  0  0
    0.5879    2.2818    2.7289 C   0  0  0  0  0  0  0  0  0  0  0  0
   -0.6565    1.7309    2.7782 C   0  0  0  0  0  0  0  0  0  0  0  0
   -0.9851    0.7796    1.8154 C   0  0  0  0  0  0  0  0  0  0  0  0
   -2.1754    0.2341    1.8373 O   0  0  0  0  0  0  0  0  0  0  0  0
   -2.5661   -0.6568    0.9838 C   0  0  0  0  0  0  0  0  0  0  0  0
   -3.8962   -1.2650    1.0075 C   0  0  0  0  0  0  0  0  0  0  0  0
   -4.2842   -2.2001    0.0992 C   0  0  0  0  0  0  0  0  0  0  0  0
   -5.5430   -2.7644    0.1352 C   0  0  0  0  0  0  0  0  0  0  0  0
   -6.4309   -2.3800    1.1058 C   0  0  0  0  0  0  0  0  0  0  0  0
   -7.7201   -2.9035    1.2085 O   0  0  0  0  0  0  0  0  0  0  0  0
   -8.1088   -3.8747    0.2569 C   0  0  0  0  0  0  0  0  0  0  0  0
   -6.0657   -1.4354    2.0386 C   0  0  0  0  0  0  0  0  0  0  0  0
   -4.8016   -0.8836    1.9844 C   0  0  0  0  0  0  0  0  0  0  0  0
   -1.6968   -1.0530    0.0095 C   0  0  0  0  0  0  0  0  0  0  0  0
   -0.4196   -0.4969   -0.0479 C   0  0  0  0  0  0  0  0  0  0  0  0
    0.3582   -0.9031   -0.9289 N   0  0  0  0  0  0  0  0  0  0  0  0
    1.6567   -0.5161   -1.1839 C   0  0  0  0  0  0  0  0  0  0  0  0
    1.9325    0.2796   -2.3033 C   0  0  0  0  0  0  0  0  0  0  0  0
    3.2244    0.6096   -2.6562 C   0  0  0  0  0  0  0  0  0  0  0  0
    4.3024    0.1684   -1.9166 C   0  0  0  0  0  0  0  0  0  0  0  0
    5.6368    0.5248   -2.3053 N   0  0  0  0  0  0  0  0  0  0  0  0
    5.8988    1.3290   -3.4426 C   0  0  0  0  0  0  0  0  0  0  0  0
    7.2732    1.7156   -3.8710 C   0  0  0  0  0  0  0  0  0  0  0  0
    4.9189    1.7392   -4.1279 O   0  0  0  0  0  0  0  0  0  0  0  0
    4.0471   -0.6099   -0.8161 C   0  0  0  0  0  0  0  0  0  0  0  0
    2.7439   -0.9464   -0.4558 C   0  0  0  0  0  0  0  0  0  0  0  0
   -0.0380    0.4475    0.8700 C   0  0  0  0  0  0  0  0  0  0  0  0
    1.2308    1.0050    0.8122 C   0  0  0  0  0  0  0  0  0  0  0  0
  1  2  1  0
  2  3  1  0
  3  4  1  0
  4  5  2  0
  5  6  1  0
  6  7  2  0
  7  8  1  0
  8  9  1  0
  9 10  1  0
 10 11  2  0
 11 12  1  0
 12 13  2  0
 13 14  1  0
 14 15  1  0
 13 16  1  0
 16 17  2  0
  9 18  2  0
 18 19  1  0
 19 20  2  0
 20 21  1  0
 21 22  2  0
 22 23  1  0
 23 24  2  0
 24 25  1  0
 25 26  1  0
 26 27  1  0
 26 28  2  0
 24 29  1  0
 29 30  2  0
 19 31  1  0
 31 32  2  0
 32  4  1  0
 31  7  1  0
 17 10  1  0
 30 21  1  0
M  END
>  <zinc_id>  (1) 
ZINC000001993110

>  <smiles>  (1) 
CCOc1ccc2oc(-c3ccc(OC)cc3)c/c(=N/c3ccc(NC(C)=O)cc3)c2c1

$$$$
