
     RDKit          3D

 21 24  0  0  0  0  0  0  0  0999 V2000
   -2.0694   -2.9370    0.5920 C   0  0  0  0  0  0  0  0  0  0  0  0
   -1.8946   -1.4777    0.2759 C   0  0  0  0  0  0  0  0  0  0  0  0
   -0.7756   -0.8884    0.0098 C   0  0  0  0  0  0  0  0  0  0  0  0
    0.6590   -0.9919   -0.1482 C   0  0  0  0  0  0  0  0  0  0  0  0
    1.5158   -2.0952   -0.1145 C   0  0  0  0  0  0  0  0  0  0  0  0
    1.0130   -3.4631   -0.0816 C   0  0  0  0  0  0  0  0  0  0  0  0
    2.8709   -1.8390   -0.1115 C   0  0  0  0  0  0  0  0  0  0  0  0
    3.3874   -0.5316   -0.1408 C   0  0  0  0  0  0  0  0  0  0  0  0
    2.5017    0.5392   -0.1771 C   0  0  0  0  0  0  0  0  0  0  0  0
    2.9493    1.8644   -0.2001 C   0  0  0  0  0  0  0  0  0  0  0  0
    1.9521    2.8474   -0.2324 C   0  0  0  0  0  0  0  0  0  0  0  0
    0.5867    2.5302   -0.2445 C   0  0  0  0  0  0  0  0  0  0  0  0
   -0.3483    3.6830   -0.2821 C   0  0  0  0  0  0  0  0  0  0  0  0
    0.1503    1.2351   -0.2236 C   0  0  0  0  0  0  0  0  0  0  0  0
    1.1744    0.2834   -0.1832 C   0  0  0  0  0  0  0  0  0  0  0  0
   -1.0741    0.5287   -0.3670 C   0  0  1  0  0  0  0  0  0  0  0  0
   -1.6369    0.5863   -1.6493 O   0  0  0  0  0  0  0  0  0  0  0  0
   -2.2486    0.9015    0.6454 C   0  0  2  0  0  0  0  0  0  0  0  0
   -1.5002    0.3792    1.9989 C   0  0  0  0  0  0  0  0  0  0  0  0
   -2.9939   -0.5411    0.3612 C   0  0  0  0  0  0  0  0  0  0  0  0
   -4.2190   -0.6134    0.2727 O   0  0  0  0  0  0  0  0  0  0  0  0
  1  2  1  0
  2  3  2  0
  3  4  1  0
  4  5  2  0
  5  6  1  0
  5  7  1  0
  7  8  2  0
  8  9  1  0
  9 10  2  0
 10 11  1  0
 11 12  2  0
 12 13  1  0
 12 14  1  0
 14 15  2  0
 14 16  1  0
 16 17  1  6
 16 18  1  0
 18 19  1  1
 18 20  1  0
 20 21  2  0
 20  2  1  0
 16  3  1  0
 15  4  1  0
 15  9  1  0
M  END
>  <zinc_id>  (1) 
ZINC000001654061

>  <smiles>  (1) 
CC1=C2c3c(C)ccc4ccc(C)c(c34)[C@]2(O)[C@H](C)C1=O

$$$$
