
     RDKit          3D

 31 34  0  0  0  0  0  0  0  0999 V2000
   -2.7491   -1.2968    2.4397 C   0  0  0  0  0  0  0  0  0  0  0  0
   -3.5986   -0.7480    1.3498 C   0  0  0  0  0  0  0  0  0  0  0  0
   -3.3042    0.2450    0.4499 C   0  0  0  0  0  0  0  0  0  0  0  0
   -4.3746    0.4466   -0.3945 C   0  0  0  0  0  0  0  0  0  0  0  0
   -4.5526    1.3828   -1.4822 C   0  0  0  0  0  0  0  0  0  0  0  0
   -5.7059    1.4250   -2.0253 O   0  0  0  0  0  0  0  0  0  0  0  0
   -3.5664    2.2992   -2.0422 C   0  0  0  0  0  0  0  0  0  0  0  0
   -2.2638    2.1974   -1.5919 O   0  0  0  0  0  0  0  0  0  0  0  0
   -1.4292    1.1014   -1.7641 C   0  0  0  0  0  0  0  0  0  0  0  0
   -1.9078    0.1188   -2.3957 O   0  0  0  0  0  0  0  0  0  0  0  0
   -0.0322    1.0855   -1.2279 C   0  0  0  0  0  0  0  0  0  0  0  0
    0.5411   -0.1666   -1.5724 O   0  0  0  0  0  0  0  0  0  0  0  0
    1.8517   -0.4421   -1.1874 C   0  0  0  0  0  0  0  0  0  0  0  0
    2.6166    0.4617   -0.4802 C   0  0  0  0  0  0  0  0  0  0  0  0
    3.9106    0.1649   -0.1113 C   0  0  0  0  0  0  0  0  0  0  0  0
    4.4967   -1.0577   -0.4375 C   0  0  0  0  0  0  0  0  0  0  0  0
    5.8174   -1.3675   -0.0642 N   0  0  0  0  0  0  0  0  0  0  0  0
    6.5819   -0.4300    0.6582 C   0  0  0  0  0  0  0  0  0  0  0  0
    7.8688   -0.7348    1.0207 C   0  0  0  0  0  0  0  0  0  0  0  0
    8.5996    0.1954    1.7267 C   0  0  0  0  0  0  0  0  0  0  0  0
    8.0602    1.4019    2.0638 C   0  0  0  0  0  0  0  0  0  0  0  0
    6.7757    1.7002    1.6993 C   0  0  0  0  0  0  0  0  0  0  0  0
    6.0353    0.7806    0.9944 C   0  0  0  0  0  0  0  0  0  0  0  0
    3.7243   -1.9460   -1.1407 C   0  0  0  0  0  0  0  0  0  0  0  0
    2.4326   -1.6456   -1.5070 C   0  0  0  0  0  0  0  0  0  0  0  0
   -5.3248   -0.4645    0.0329 C   0  0  0  0  0  0  0  0  0  0  0  0
   -6.6956   -0.6667   -0.5515 C   0  0  0  0  0  0  0  0  0  0  0  0
   -4.8414   -1.1583    1.0651 N   0  0  0  0  0  0  0  0  0  0  0  0
   -5.5601   -2.2023    1.7715 C   0  0  0  0  0  0  0  0  0  0  0  0
   -7.0389   -2.2419    1.7045 C   0  0  0  0  0  0  0  0  0  0  0  0
   -6.3672   -1.7880    2.9993 C   0  0  0  0  0  0  0  0  0  0  0  0
  1  2  1  0
  2  3  2  0
  3  4  1  0
  4  5  1  0
  5  6  2  0
  5  7  1  0
  7  8  1  0
  8  9  1  0
  9 10  2  0
  9 11  1  0
 11 12  1  0
 12 13  1  0
 13 14  2  0
 14 15  1  0
 15 16  2  0
 16 17  1  0
 17 18  1  0
 18 19  2  0
 19 20  1  0
 20 21  2  0
 21 22  1  0
 22 23  2  0
 16 24  1  0
 24 25  2  0
  4 26  2  0
 26 27  1  0
 26 28  1  0
 28 29  1  0
 29 30  1  0
 30 31  1  0
 28  2  1  0
 31 29  1  0
 25 13  1  0
 23 18  1  0
M  END
>  <zinc_id>  (1) 
ZINC000004399920

>  <smiles>  (1) 
Cc1cc(C(=O)COC(=O)COc2ccc(Nc3ccccc3)cc2)c(C)n1C1CC1

$$$$
