
     RDKit          3D

 21 22  0  0  0  0  0  0  0  0999 V2000
    3.6705    3.7192    0.8878 C   0  0  0  0  0  0  0  0  0  0  0  0
    2.4733    3.1058    1.1658 C   0  0  0  0  0  0  0  0  0  0  0  0
    1.9794    1.9216    0.9212 O   0  0  0  0  0  0  0  0  0  0  0  0
    0.8138    1.2580    1.1658 C   0  0  0  0  0  0  0  0  0  0  0  0
   -0.0417    1.9089    1.7844 O   0  0  0  0  0  0  0  0  0  0  0  0
    0.5343   -0.1104    0.7579 C   0  0  0  0  0  0  0  0  0  0  0  0
    1.4644   -0.7571    0.1115 C   0  0  0  0  0  0  0  0  0  0  0  0
    2.7736   -0.0106   -0.1695 C   0  0  0  0  0  0  0  0  0  0  0  0
    3.0193    0.0661   -1.9045 Cl  0  0  0  0  0  0  0  0  0  0  0  0
    1.3857   -2.1139   -0.2943 N   0  0  0  0  0  0  0  0  0  0  0  0
    0.1593   -2.7572    0.0814 C   0  0  0  0  0  0  0  0  0  0  0  0
   -0.0245   -3.9859   -0.2379 O   0  0  0  0  0  0  0  0  0  0  0  0
   -0.8261   -2.0984    0.7732 N   0  0  0  0  0  0  0  0  0  0  0  0
   -0.8578   -0.6703    1.0589 C   0  0  2  0  0  0  0  0  0  0  0  0
   -1.6396   -0.1204   -0.1611 C   0  0  0  0  0  0  0  0  0  0  0  0
   -1.4253    1.1789   -0.4807 C   0  0  0  0  0  0  0  0  0  0  0  0
   -2.0930    1.7712   -1.5730 C   0  0  0  0  0  0  0  0  0  0  0  0
   -2.9554    1.0089   -2.2967 C   0  0  0  0  0  0  0  0  0  0  0  0
   -3.1823   -0.2944   -1.9910 C   0  0  0  0  0  0  0  0  0  0  0  0
   -2.5108   -0.8481   -0.9112 C   0  0  0  0  0  0  0  0  0  0  0  0
   -2.7171   -2.1718   -0.5709 O   0  0  0  0  0  0  0  0  0  0  0  0
  1  2  1  0
  2  3  1  0
  3  4  1  0
  4  5  2  0
  4  6  1  0
  6  7  2  0
  7  8  1  0
  8  9  1  0
  7 10  1  0
 10 11  1  0
 11 12  2  0
 11 13  1  0
 13 14  1  0
 14 15  1  6
 15 16  2  0
 16 17  1  0
 17 18  2  0
 18 19  1  0
 19 20  2  0
 20 21  1  0
 14  6  1  0
 20 15  1  0
M  END
>  <zinc_id>  (1) 
ZINC000000194013

>  <smiles>  (1) 
CCOC(=O)C1=C(CCl)NC(=O)N[C@@H]1c1ccccc1O

$$$$
