
     RDKit          3D

 20 22  0  0  0  0  0  0  0  0999 V2000
   -4.8920    1.5312    0.5977 C   0  0  0  0  0  0  0  0  0  0  0  0
   -4.3938    0.3216    0.2739 C   0  0  0  0  0  0  0  0  0  0  0  0
   -3.5206    0.2298   -0.9439 C   0  0  0  0  0  0  0  0  0  0  0  0
   -2.1667   -0.2501   -0.5998 C   0  0  0  0  0  0  0  0  0  0  0  0
   -1.0946    0.6163   -0.5236 C   0  0  0  0  0  0  0  0  0  0  0  0
    0.1745    0.1761   -0.1978 C   0  0  0  0  0  0  0  0  0  0  0  0
    0.3667   -1.1664    0.0572 C   0  0  0  0  0  0  0  0  0  0  0  0
    1.5751   -1.5475    0.3610 O   0  0  0  0  0  0  0  0  0  0  0  0
    2.6058   -0.7432    0.4377 C   0  0  0  0  0  0  0  0  0  0  0  0
    3.7294   -1.2006    0.7368 O   0  0  0  0  0  0  0  0  0  0  0  0
    2.4872    0.6052    0.1970 C   0  0  0  0  0  0  0  0  0  0  0  0
    3.5377    1.4918    0.2642 C   0  0  0  0  0  0  0  0  0  0  0  0
    3.3411    2.8220    0.0095 C   0  0  0  0  0  0  0  0  0  0  0  0
    2.0864    3.2861   -0.3168 C   0  0  0  0  0  0  0  0  0  0  0  0
    1.0368    2.4081   -0.3851 C   0  0  0  0  0  0  0  0  0  0  0  0
    1.2345    1.0787   -0.1305 C   0  0  0  0  0  0  0  0  0  0  0  0
   -0.6943   -2.0441   -0.0143 C   0  0  0  0  0  0  0  0  0  0  0  0
   -0.4455   -3.4846    0.2675 C   0  0  0  0  0  0  0  0  0  0  0  0
   -1.9779   -1.5893   -0.3458 C   0  0  0  0  0  0  0  0  0  0  0  0
   -2.9898   -2.5412   -0.3958 O   0  0  0  0  0  0  0  0  0  0  0  0
  1  2  2  0
  2  3  1  0
  3  4  1  0
  4  5  2  0
  5  6  1  0
  6  7  2  0
  7  8  1  0
  8  9  1  0
  9 10  2  0
  9 11  1  0
 11 12  2  0
 12 13  1  0
 13 14  2  0
 14 15  1  0
 15 16  2  0
  7 17  1  0
 17 18  1  0
 17 19  2  0
 19 20  1  0
 19  4  1  0
 16  6  1  0
 16 11  1  0
M  END
>  <zinc_id>  (1) 
ZINC000000307652

>  <smiles>  (1) 
C=CCc1cc2c(oc(=O)c3ccccc32)c(C)c1O

$$$$
