
     RDKit          3D

 19 19  0  0  0  0  0  0  0  0999 V2000
    2.3863    2.3594    1.0641 C   0  0  0  0  0  0  0  0  0  0  0  0
    3.0388    2.0110   -0.2519 C   0  0  0  0  0  0  0  0  0  0  0  0
    4.3604    2.7669   -0.2958 C   0  0  0  0  0  0  0  0  0  0  0  0
    2.1462    2.4336   -1.4260 C   0  0  0  0  0  0  0  0  0  0  0  0
    3.2372    0.5937   -0.2968 N   0  0  0  0  0  0  0  0  0  0  0  0
    2.2762   -0.4202   -0.2869 C   0  0  0  0  0  0  0  0  0  0  0  0
    2.8630   -1.9639   -0.3598 S   0  0  0  0  0  0  0  0  0  0  0  0
    0.8729   -0.2371   -0.2317 N   0  0  0  0  0  0  0  0  0  0  0  0
   -0.0499   -1.3116   -0.2390 C   0  0  0  0  0  0  0  0  0  0  0  0
    0.5337   -2.4669   -0.2990 O   0  0  0  0  0  0  0  0  0  0  0  0
   -1.4869   -1.2426   -0.1956 C   0  0  0  0  0  0  0  0  0  0  0  0
   -2.1626   -2.3713   -0.6835 C   0  0  0  0  0  0  0  0  0  0  0  0
   -3.5227   -2.4566   -0.7837 C   0  0  0  0  0  0  0  0  0  0  0  0
   -4.2382   -1.3463   -0.3704 C   0  0  0  0  0  0  0  0  0  0  0  0
   -3.6124   -0.2212    0.1150 C   0  0  0  0  0  0  0  0  0  0  0  0
   -2.2052   -0.1870    0.1984 C   0  0  0  0  0  0  0  0  0  0  0  0
   -1.6680    0.9838    0.7209 N   0  0  0  0  0  4  0  0  0  0  0  0
   -2.2632    2.0662    0.5565 O   0  0  0  0  0  0  0  0  0  0  0  0
   -0.5056    1.0101    1.4114 O   0  0  0  0  0  1  0  0  0  0  0  0
  1  2  1  0
  2  3  1  0
  2  4  1  0
  2  5  1  0
  5  6  1  0
  6  7  2  0
  6  8  1  0
  8  9  1  0
  9 10  2  0
  9 11  1  0
 11 12  2  0
 12 13  1  0
 13 14  2  0
 14 15  1  0
 15 16  2  0
 16 17  1  0
 17 18  2  0
 17 19  1  0
 16 11  1  0
M  CHG  2  17   1  19  -1
M  END
>  <zinc_id>  (1) 
ZINC000000513297

>  <smiles>  (1) 
CC(C)(C)NC(=S)NC(=O)c1ccccc1[N+](=O)[O-]

$$$$
