
     RDKit          3D

 32 36  0  0  0  0  0  0  0  0999 V2000
    7.8719   -2.8733    0.9498 C   0  0  0  0  0  0  0  0  0  0  0  0
    6.5531   -2.4617    1.2162 O   0  0  0  0  0  0  0  0  0  0  0  0
    6.1826   -1.1375    1.0368 C   0  0  0  0  0  0  0  0  0  0  0  0
    7.0736   -0.1848    0.5978 C   0  0  0  0  0  0  0  0  0  0  0  0
    6.6852    1.1231    0.4266 C   0  0  0  0  0  0  0  0  0  0  0  0
    5.3764    1.5261    0.6922 C   0  0  0  0  0  0  0  0  0  0  0  0
    4.4994    0.5499    1.1324 C   0  0  0  0  0  0  0  0  0  0  0  0
    4.8780   -0.7453    1.3035 C   0  0  0  0  0  0  0  0  0  0  0  0
    3.9737   -1.6892    1.7442 O   0  0  0  0  0  0  0  0  0  0  0  0
    2.6530   -1.3304    2.0222 C   0  0  0  0  0  0  0  0  0  0  0  0
    1.9482   -0.7599    0.7986 C   0  0  0  0  0  0  0  0  0  0  0  0
    0.5908   -0.4148    1.1700 N   0  0  0  0  0  0  0  0  0  0  0  0
   -0.5702   -1.2829    1.0943 C   0  0  0  0  0  0  0  0  0  0  0  0
   -1.3064   -0.8191    2.4907 C   0  0  2  0  0  0  0  0  0  0  0  0
   -2.8347   -0.9427    1.9305 C   0  0  0  0  0  0  0  0  0  0  0  0
   -3.0057   -0.6366    0.6849 O   0  0  0  0  0  0  0  0  0  0  0  0
   -2.7981   -0.8073   -0.6087 C   0  0  0  0  0  0  0  0  0  0  0  0
   -2.0168   -1.7749   -1.2032 C   0  0  0  0  0  0  0  0  0  0  0  0
   -1.8108   -1.9448   -2.5350 C   0  0  0  0  0  0  0  0  0  0  0  0
   -2.4364   -1.0733   -3.3956 C   0  0  0  0  0  0  0  0  0  0  0  0
   -3.2339   -0.0797   -2.8710 C   0  0  0  0  0  0  0  0  0  0  0  0
   -3.9452    0.8851   -3.4887 N   0  0  0  0  0  0  0  0  0  0  0  0
   -4.5852    1.6478   -2.5871 C   0  0  0  0  0  0  0  0  0  0  0  0
   -5.4244    2.7435   -2.7282 C   0  0  0  0  0  0  0  0  0  0  0  0
   -5.9316    3.3168   -1.5861 C   0  0  0  0  0  0  0  0  0  0  0  0
   -5.6177    2.8203   -0.3379 C   0  0  0  0  0  0  0  0  0  0  0  0
   -4.7734    1.7172   -0.1853 C   0  0  0  0  0  0  0  0  0  0  0  0
   -4.2695    1.1483   -1.3300 C   0  0  0  0  0  0  0  0  0  0  0  0
   -3.4263    0.0713   -1.5199 C   0  0  0  0  0  0  0  0  0  0  0  0
   -1.1696    0.6981    2.1751 O   0  0  0  0  0  0  0  0  0  0  0  0
    0.1019    0.8198    1.6792 C   0  0  0  0  0  0  0  0  0  0  0  0
    0.7683    1.8907    1.6698 O   0  0  0  0  0  0  0  0  0  0  0  0
  1  2  1  0
  2  3  1  0
  3  4  2  0
  4  5  1  0
  5  6  2  0
  6  7  1  0
  7  8  2  0
  8  9  1  0
  9 10  1  0
 10 11  1  0
 11 12  1  0
 12 13  1  0
 13 14  1  0
 14 15  1  6
 15 16  1  0
 16 17  1  0
 17 18  2  0
 18 19  1  0
 19 20  2  0
 20 21  1  0
 21 22  1  0
 22 23  1  0
 23 24  2  0
 24 25  1  0
 25 26  2  0
 26 27  1  0
 27 28  2  0
 28 29  1  0
 14 30  1  0
 30 31  1  0
 31 32  2  0
  8  3  1  0
 31 12  1  0
 29 17  1  0
 29 21  2  0
 28 23  1  0
M  END
>  <zinc_id>  (1) 
ZINC000004352901

>  <smiles>  (1) 
COc1ccccc1OCCN1C[C@H](COc2cccc3[nH]c4ccccc4c23)OC1=O

$$$$
