
     RDKit          3D

 19 20  0  0  0  0  0  0  0  0999 V2000
    3.5718    1.7010    0.1279 C   0  0  0  0  0  0  0  0  0  0  0  0
    4.0187    0.3665    0.4375 C   0  0  0  0  0  0  0  0  0  0  0  0
    5.4012    0.0860    0.7663 C   0  0  0  0  0  0  0  0  0  0  0  0
    3.1152   -0.7627    0.4521 C   0  0  0  0  0  0  0  0  0  0  0  0
    2.4699   -0.8928   -1.0485 C   0  0  1  0  0  0  0  0  0  0  0  0
    1.6049   -2.1377   -0.6687 N   0  0  0  0  0  0  0  0  0  0  0  0
    0.7153   -1.7950    0.3098 C   0  0  0  0  0  0  0  0  0  0  0  0
    0.1299   -2.5759    1.1405 O   0  0  0  0  0  0  0  0  0  0  0  0
    0.5234   -0.4179    0.2793 N   0  0  0  0  0  0  0  0  0  0  0  0
   -0.3630    0.3915    1.1621 C   0  0  0  0  0  0  0  0  0  0  0  0
   -1.7070    0.4903    0.5469 C   0  0  0  0  0  0  0  0  0  0  0  0
   -2.6565    1.2033    1.2263 C   0  0  0  0  0  0  0  0  0  0  0  0
   -3.9325    1.3484    0.7312 C   0  0  0  0  0  0  0  0  0  0  0  0
   -4.2285    0.7543   -0.4706 C   0  0  0  0  0  0  0  0  0  0  0  0
   -5.8511    0.9192   -1.1342 Cl  0  0  0  0  0  0  0  0  0  0  0  0
   -3.2936    0.0324   -1.1740 C   0  0  0  0  0  0  0  0  0  0  0  0
   -2.0155   -0.0981   -0.6524 C   0  0  0  0  0  0  0  0  0  0  0  0
    1.2741    0.1598   -0.7054 C   0  0  0  0  0  0  0  0  0  0  0  0
    1.2232    1.2275   -1.3263 O   0  0  0  0  0  0  0  0  0  0  0  0
  1  2  1  0
  2  3  1  0
  2  4  1  0
  5  4  1  1
  5  6  1  0
  6  7  1  0
  7  8  2  0
  7  9  1  0
  9 10  1  0
 10 11  1  0
 11 12  2  0
 12 13  1  0
 13 14  2  0
 14 15  1  0
 14 16  1  0
 16 17  2  0
  9 18  1  0
 18 19  2  0
 18  5  1  0
 17 11  1  0
M  END
>  <zinc_id>  (1) 
ZINC000003487542

>  <smiles>  (1) 
CC(C)C[C@H]1NC(=O)N(Cc2ccc(Cl)cc2)C1=O

$$$$
