
     RDKit          3D

 19 20  0  0  0  0  0  0  0  0999 V2000
   -3.3380   -1.8968    1.0340 C   0  0  0  0  0  0  0  0  0  0  0  0
   -3.4482   -0.4497    1.7681 C   0  0  1  0  0  0  0  0  0  0  0  0
   -2.4374    0.3284    0.8255 C   0  0  0  0  0  0  0  0  0  0  0  0
   -2.5237    0.2902   -0.4395 C   0  0  0  0  0  0  0  0  0  0  0  0
   -1.5958    1.0038   -1.2704 N   0  0  0  0  0  0  0  0  0  0  0  0
   -0.2884    0.4836   -1.2454 N   0  0  0  0  0  0  0  0  0  0  0  0
    0.5938    0.8619   -0.1959 C   0  0  0  0  0  0  0  0  0  0  0  0
    0.1536    1.6486    0.6616 O   0  0  0  0  0  0  0  0  0  0  0  0
    1.9597    0.3463   -0.1298 C   0  0  0  0  0  0  0  0  0  0  0  0
    2.4363   -0.5258   -1.0832 C   0  0  0  0  0  0  0  0  0  0  0  0
    3.7266   -1.0258   -1.0344 C   0  0  0  0  0  0  0  0  0  0  0  0
    4.3680   -2.1310   -2.2221 Cl  0  0  0  0  0  0  0  0  0  0  0  0
    4.5273   -0.6237    0.0022 C   0  0  0  0  0  0  0  0  0  0  0  0
    4.0624    0.2495    0.9638 C   0  0  0  0  0  0  0  0  0  0  0  0
    2.7673    0.7365    0.8944 C   0  0  0  0  0  0  0  0  0  0  0  0
    2.2587    1.6212    1.8487 O   0  0  0  0  0  0  0  0  0  0  0  0
   -3.5791   -0.4836   -1.1434 C   0  0  0  0  0  0  0  0  0  0  0  0
   -4.8614   -0.4768   -0.3552 C   0  0  0  0  0  0  0  0  0  0  0  0
   -4.7816    0.0434    0.9972 C   0  0  0  0  0  0  0  0  0  0  0  0
  2  1  1  6
  2  3  1  0
  3  4  2  0
  4  5  1  0
  5  6  1  0
  6  7  1  0
  7  8  2  0
  7  9  1  0
  9 10  2  0
 10 11  1  0
 11 12  1  0
 11 13  2  0
 13 14  1  0
 14 15  2  0
 15 16  1  0
  4 17  1  0
 17 18  1  0
 18 19  1  0
 19  2  1  0
 15  9  1  0
M  END
>  <zinc_id>  (1) 
ZINC000002750523

>  <smiles>  (1) 
C[C@H]1C=C(NNC(=O)c2cc(Cl)ccc2O)CCC1

$$$$
