
     RDKit          3D

 19 22  0  0  0  0  0  0  0  0999 V2000
    0.0867    0.7092   -1.0010 C   0  0  0  0  0  0  0  0  0  0  0  0
   -0.0155   -0.2194   -0.0756 C   0  0  0  0  0  0  0  0  0  0  0  0
   -1.3353   -0.4620    0.4959 C   0  0  0  0  0  0  0  0  0  0  0  0
   -1.7046   -1.3807    1.4799 C   0  0  0  0  0  0  0  0  0  0  0  0
   -3.0259   -1.2521    1.6923 N   0  0  0  0  0  0  0  0  0  0  0  0
   -3.5364   -0.2959    0.8963 C   0  0  0  0  0  0  0  0  0  0  0  0
   -4.7962    0.2389    0.6995 C   0  0  0  0  0  0  0  0  0  0  0  0
   -5.0056    1.2393   -0.2160 C   0  0  0  0  0  0  0  0  0  0  0  0
   -3.9615    1.7472   -0.9742 C   0  0  0  0  0  0  0  0  0  0  0  0
   -2.7228    1.2132   -0.7729 C   0  0  0  0  0  0  0  0  0  0  0  0
   -2.4983    0.1931    0.1580 C   0  0  0  0  0  0  0  0  0  0  0  0
    1.0342   -1.0182    0.4304 N   0  0  0  0  0  0  0  0  0  0  0  0
    2.3611   -0.9559    0.0317 N   0  0  0  0  0  0  0  0  0  0  0  0
    2.7900   -0.1394   -0.8684 C   0  0  0  0  0  0  0  0  0  0  0  0
    4.1426   -0.1508   -1.2023 N   0  0  0  0  0  0  0  0  0  0  0  0
    5.0953   -0.7129   -0.2340 C   0  0  0  0  0  0  0  0  0  0  0  0
    5.1649   -0.0768    1.0922 C   0  0  0  0  0  0  0  0  0  0  0  0
    6.2194    0.3138    0.0731 C   0  0  0  0  0  0  0  0  0  0  0  0
    1.7080    1.0091   -1.7049 S   0  0  0  0  0  0  0  0  0  0  0  0
  1  2  2  0
  2  3  1  0
  3  4  2  0
  4  5  1  0
  5  6  1  0
  6  7  2  0
  7  8  1  0
  8  9  2  0
  9 10  1  0
 10 11  2  0
  2 12  1  0
 12 13  1  0
 13 14  2  0
 14 15  1  0
 15 16  1  0
 16 17  1  0
 17 18  1  0
 14 19  1  0
 19  1  1  0
 11  3  1  0
 18 16  1  0
 11  6  1  0
M  END
>  <zinc_id>  (1) 
ZINC000003349880

>  <smiles>  (1) 
C1=C(c2c[nH]c3ccccc23)NN=C(NC2CC2)S1

$$$$
