
     RDKit          3D

 19 20  0  0  0  0  0  0  0  0999 V2000
    0.5947   -2.1917   -0.3242 O   0  0  0  0  0  0  0  0  0  0  0  0
    0.2835   -0.9970   -0.2506 C   0  0  0  0  0  0  0  0  0  0  0  0
    1.3022   -0.0293   -0.2829 N   0  0  0  0  0  0  0  0  0  0  0  0
    2.6813   -0.1451   -0.4011 C   0  0  0  0  0  0  0  0  0  0  0  0
    3.3029    1.2008   -0.0126 C   0  0  0  0  0  0  0  0  0  0  0  0
    4.3641    1.5682   -1.0475 C   0  0  0  0  0  0  0  0  0  0  0  0
    4.9916    0.1925   -1.4201 C   0  0  0  0  0  0  0  0  0  0  0  0
    5.5924   -0.3456   -0.1593 C   0  0  0  0  0  0  0  0  0  0  0  0
    4.7213   -1.1857    0.6818 C   0  0  0  0  0  0  0  0  0  0  0  0
    3.3233   -1.2987    0.2189 C   0  0  0  0  0  0  0  0  0  0  0  0
   -1.1166   -0.5177   -0.1299 C   0  0  0  0  0  0  0  0  0  0  0  0
   -1.7945   -0.1953   -1.2893 C   0  0  0  0  0  0  0  0  0  0  0  0
   -3.0785    0.2869   -1.2486 C   0  0  0  0  0  0  0  0  0  0  0  0
   -3.7587    0.4737   -0.0476 C   0  0  0  0  0  0  0  0  0  0  0  0
   -5.1042    0.9700   -0.0658 N   0  0  0  0  0  4  0  0  0  0  0  0
   -5.6287    1.2526   -1.1588 O   0  0  0  0  0  0  0  0  0  0  0  0
   -5.8402    1.1555    1.0643 O   0  0  0  0  0  1  0  0  0  0  0  0
   -3.0769    0.1504    1.1025 C   0  0  0  0  0  0  0  0  0  0  0  0
   -1.7591   -0.3445    1.0671 C   0  0  0  0  0  0  0  0  0  0  0  0
  1  2  2  0
  2  3  1  0
  3  4  1  0
  4  5  1  0
  5  6  1  0
  6  7  1  0
  7  8  1  0
  8  9  1  0
  9 10  1  0
  2 11  1  0
 11 12  2  0
 12 13  1  0
 13 14  2  0
 14 15  1  0
 15 16  2  0
 15 17  1  0
 14 18  1  0
 18 19  2  0
 10  4  1  0
 19 11  1  0
M  CHG  2  15   1  17  -1
M  END
>  <zinc_id>  (1) 
ZINC000000067890

>  <smiles>  (1) 
O=C(NC1CCCCCC1)c1ccc([N+](=O)[O-])cc1

$$$$
