
     RDKit          3D

 19 20  0  0  0  0  0  0  0  0999 V2000
   -4.8504   -0.2036   -1.5460 C   0  0  0  0  0  0  0  0  0  0  0  0
   -4.1737    0.6034   -0.4429 C   0  0  0  0  0  0  0  0  0  0  0  0
   -3.9214    1.9848   -1.0316 C   0  0  0  0  0  0  0  0  0  0  0  0
   -5.1102    0.7171    0.7268 C   0  0  0  0  0  0  0  0  0  0  0  0
   -2.8585    0.0278   -0.1133 C   0  0  0  0  0  0  0  0  0  0  0  0
   -2.0622    0.5484    0.9139 C   0  0  0  0  0  0  0  0  0  0  0  0
   -0.8371    0.0066    1.2041 C   0  0  0  0  0  0  0  0  0  0  0  0
   -0.3581   -1.0769    0.4799 C   0  0  0  0  0  0  0  0  0  0  0  0
    0.9908   -1.6542    0.8341 C   0  0  0  0  0  0  0  0  0  0  0  0
    2.0317   -0.6748    0.4825 C   0  0  0  0  0  0  0  0  0  0  0  0
    1.6783    0.5696    0.1478 N   0  0  0  0  0  0  0  0  0  0  0  0
    2.5898    1.4821   -0.1268 N   0  0  0  0  0  0  0  0  0  0  0  0
    3.9175    1.2254   -0.0905 C   0  0  0  0  0  0  0  0  0  0  0  0
    5.0532    2.3700   -0.4258 S   0  0  0  0  0  0  0  0  0  0  0  0
    4.2624   -0.0261    0.2456 N   0  0  0  0  0  0  0  0  0  0  0  0
    3.3723   -0.9974    0.5360 C   0  0  0  0  0  0  0  0  0  0  0  0
    3.7707   -2.2660    0.8710 O   0  0  0  0  0  0  0  0  0  0  0  0
   -1.1389   -1.5918   -0.5280 C   0  0  0  0  0  0  0  0  0  0  0  0
   -2.3561   -1.0446   -0.8070 C   0  0  0  0  0  0  0  0  0  0  0  0
  1  2  1  0
  2  3  1  0
  2  4  1  0
  2  5  1  0
  5  6  2  0
  6  7  1  0
  7  8  2  0
  8  9  1  0
  9 10  1  0
 10 11  1  0
 11 12  2  0
 12 13  1  0
 13 14  2  0
 13 15  1  0
 15 16  1  0
 16 17  1  0
  8 18  1  0
 18 19  2  0
 19  5  1  0
 16 10  2  0
M  END
>  <zinc_id>  (1) 
ZINC000003249699

>  <smiles>  (1) 
CC(C)(C)c1ccc(Cc2nnc(=S)[nH]c2O)cc1

$$$$
