
     RDKit          3D

 33 36  0  0  0  0  0  0  0  0999 V2000
   10.1457    1.9014    0.3478 C   0  0  0  0  0  0  0  0  0  0  0  0
    8.9468    2.5588    0.0289 O   0  0  0  0  0  0  0  0  0  0  0  0
    7.6946    1.9873    0.1766 C   0  0  0  0  0  0  0  0  0  0  0  0
    6.5945    2.7295   -0.1691 C   0  0  0  0  0  0  0  0  0  0  0  0
    5.3495    2.2084   -0.0403 C   0  0  0  0  0  0  0  0  0  0  0  0
    5.1224    0.9185    0.4398 C   0  0  0  0  0  0  0  0  0  0  0  0
    3.7474    0.3723    0.5708 C   0  0  0  0  0  0  0  0  0  0  0  0
    3.3972   -0.3107   -0.7328 C   0  0  0  0  0  0  0  0  0  0  0  0
    2.0454   -0.8708   -0.6610 N   0  0  0  0  0  0  0  0  0  0  0  0
    0.9136   -0.0411   -0.4237 C   0  0  0  0  0  0  0  0  0  0  0  0
    1.1065    1.1911   -0.2769 O   0  0  0  0  0  0  0  0  0  0  0  0
   -0.4176   -0.6354   -0.3588 C   0  0  0  0  0  0  0  0  0  0  0  0
   -1.5318    0.1446   -0.1307 C   0  0  0  0  0  0  0  0  0  0  0  0
   -2.7791   -0.4789   -0.0789 C   0  0  0  0  0  0  0  0  0  0  0  0
   -3.9603    0.3337    0.1609 C   0  0  0  0  0  0  0  0  0  0  0  0
   -3.8629    1.6945    0.3353 C   0  0  0  0  0  0  0  0  0  0  0  0
   -4.9782    2.4900    0.5656 C   0  0  0  0  0  0  0  0  0  0  0  0
   -6.2174    1.8739    0.6175 C   0  0  0  0  0  0  0  0  0  0  0  0
   -7.3856    2.5915    0.8430 O   0  0  0  0  0  0  0  0  0  0  0  0
   -7.2805    3.9911    1.0219 C   0  0  0  0  0  0  0  0  0  0  0  0
   -6.3265    0.5081    0.4437 C   0  0  0  0  0  0  0  0  0  0  0  0
   -5.2061   -0.2547    0.2173 C   0  0  0  0  0  0  0  0  0  0  0  0
   -5.3441   -1.6275    0.0457 O   0  0  0  0  0  0  0  0  0  0  0  0
   -6.6009   -2.2430    0.0996 C   0  0  0  0  0  0  0  0  0  0  0  0
   -2.8989   -1.8077   -0.2466 N   0  0  0  0  0  0  0  0  0  0  0  0
   -1.8066   -2.5835   -0.4717 C   0  0  0  0  0  0  0  0  0  0  0  0
   -1.8991   -3.9468   -0.6470 C   0  0  0  0  0  0  0  0  0  0  0  0
   -0.7765   -4.7148   -0.8744 C   0  0  0  0  0  0  0  0  0  0  0  0
    0.4670   -4.1364   -0.9319 C   0  0  0  0  0  0  0  0  0  0  0  0
    0.5415   -2.7693   -0.7541 C   0  0  0  0  0  0  0  0  0  0  0  0
   -0.5761   -1.9939   -0.5262 C   0  0  0  0  0  0  0  0  0  0  0  0
    6.2534    0.2057    0.7760 C   0  0  0  0  0  0  0  0  0  0  0  0
    7.5228    0.7140    0.6534 C   0  0  0  0  0  0  0  0  0  0  0  0
  1  2  1  0
  2  3  1  0
  3  4  2  0
  4  5  1  0
  5  6  2  0
  6  7  1  0
  7  8  1  0
  8  9  1  0
  9 10  1  0
 10 11  2  0
 10 12  1  0
 12 13  2  0
 13 14  1  0
 14 15  1  0
 15 16  2  0
 16 17  1  0
 17 18  2  0
 18 19  1  0
 19 20  1  0
 18 21  1  0
 21 22  2  0
 22 23  1  0
 23 24  1  0
 14 25  2  0
 25 26  1  0
 26 27  2  0
 27 28  1  0
 28 29  2  0
 29 30  1  0
 30 31  2  0
  6 32  1  0
 32 33  2  0
 33  3  1  0
 31 12  1  0
 22 15  1  0
 31 26  1  0
M  END
>  <zinc_id>  (1) 
ZINC000002748459

>  <smiles>  (1) 
COc1ccc(CCNC(=O)c2cc(-c3ccc(OC)cc3OC)nc3ccccc23)cc1

$$$$
