
     RDKit          3D

 21 24  0  0  0  0  0  0  0  0999 V2000
   -4.8336    1.2406   -2.3004 C   0  0  0  0  0  0  0  0  0  0  0  0
   -5.1694    0.1724   -1.4074 O   0  0  0  0  0  0  0  0  0  0  0  0
   -4.1371   -0.3718   -0.6473 C   0  0  0  0  0  0  0  0  0  0  0  0
   -4.3948   -1.3997    0.2285 C   0  0  0  0  0  0  0  0  0  0  0  0
   -3.4122   -1.9765    1.0059 C   0  0  0  0  0  0  0  0  0  0  0  0
   -2.1006   -1.5304    0.9300 C   0  0  0  0  0  0  0  0  0  0  0  0
   -0.9556   -1.8763    1.5371 N   0  0  0  0  0  0  0  0  0  0  0  0
    0.0775   -1.1031    1.0910 C   0  0  0  0  0  0  0  0  0  0  0  0
    1.3883   -1.0704    1.3936 N   0  0  0  0  0  0  0  0  0  0  0  0
    2.1994   -0.1901    0.7933 C   0  0  0  0  0  0  0  0  0  0  0  0
    3.5662   -0.1414    1.0954 C   0  0  0  0  0  0  0  0  0  0  0  0
    4.3274    0.7933    0.4325 C   0  0  0  0  0  0  0  0  0  0  0  0
    5.7991    0.8971    0.7107 C   0  0  0  0  0  0  0  0  0  0  0  0
    3.7942    1.6597   -0.4960 C   0  0  0  0  0  0  0  0  0  0  0  0
    4.6166    2.6647   -1.2076 C   0  0  0  0  0  0  0  0  0  0  0  0
    2.4440    1.5904   -0.7750 C   0  0  0  0  0  0  0  0  0  0  0  0
    1.6364    0.6634   -0.1310 C   0  0  0  0  0  0  0  0  0  0  0  0
    0.3201    0.6463   -0.4492 N   0  0  0  0  0  0  0  0  0  0  0  0
   -0.4875   -0.2504    0.1671 C   0  0  0  0  0  0  0  0  0  0  0  0
   -1.8393   -0.5002    0.0530 C   0  0  0  0  0  0  0  0  0  0  0  0
   -2.8392    0.0823   -0.7340 C   0  0  0  0  0  0  0  0  0  0  0  0
  1  2  1  0
  2  3  1  0
  3  4  2  0
  4  5  1  0
  5  6  2  0
  6  7  1  0
  7  8  1  0
  8  9  2  0
  9 10  1  0
 10 11  2  0
 11 12  1  0
 12 13  1  0
 12 14  2  0
 14 15  1  0
 14 16  1  0
 16 17  2  0
 17 18  1  0
 18 19  2  0
 19 20  1  0
 20 21  2  0
 21  3  1  0
 20  6  1  0
 19  8  1  0
 17 10  1  0
M  END
>  <zinc_id>  (1) 
ZINC000002950611

>  <smiles>  (1) 
COc1ccc2[nH]c3nc4cc(C)c(C)cc4nc3c2c1

$$$$
