
     RDKit          3D

 19 20  0  0  0  0  0  0  0  0999 V2000
    5.8835    0.3564    1.0160 C   0  0  0  0  0  0  0  0  0  0  0  0
    4.9433    0.4237   -0.1803 C   0  0  0  0  0  0  0  0  0  0  0  0
    4.6607   -0.9862   -0.6687 C   0  0  0  0  0  0  0  0  0  0  0  0
    4.0118   -1.8242    0.4164 C   0  0  0  0  0  0  0  0  0  0  0  0
    2.7479   -1.2373    0.8400 N   0  0  0  0  0  0  0  0  0  0  0  0
    1.6797   -1.0521   -0.0993 C   0  0  0  0  0  0  0  0  0  0  0  0
    1.8914   -1.4161   -1.2798 O   0  0  0  0  0  0  0  0  0  0  0  0
    0.4052   -0.4653    0.3073 C   0  0  0  0  0  0  0  0  0  0  0  0
    0.0245   -0.0186    1.5534 C   0  0  0  0  0  0  0  0  0  0  0  0
   -1.2764    0.4645    1.4886 C   0  0  0  0  0  0  0  0  0  0  0  0
   -2.1485    1.0190    2.4017 C   0  0  0  0  0  0  0  0  0  0  0  0
   -3.4255    1.4230    2.0477 C   0  0  0  0  0  0  0  0  0  0  0  0
   -3.7949    1.2471    0.7312 C   0  0  0  0  0  0  0  0  0  0  0  0
   -2.9506    0.6991   -0.1994 C   0  0  0  0  0  0  0  0  0  0  0  0
   -3.3437    0.5241   -1.5482 N   0  0  0  0  0  4  0  0  0  0  0  0
   -4.1991    1.2671   -2.0600 O   0  0  0  0  0  0  0  0  0  0  0  0
   -2.7951   -0.4654   -2.3267 O   0  0  0  0  0  1  0  0  0  0  0  0
   -1.6692    0.2993    0.1794 C   0  0  0  0  0  0  0  0  0  0  0  0
   -0.6452   -0.2578   -0.5022 N   0  0  0  0  0  0  0  0  0  0  0  0
  1  2  1  0
  2  3  1  0
  3  4  1  0
  4  5  1  0
  5  6  1  0
  6  7  2  0
  6  8  1  0
  8  9  2  0
  9 10  1  0
 10 11  2  0
 11 12  1  0
 12 13  2  0
 13 14  1  0
 14 15  1  0
 15 16  2  0
 15 17  1  0
 14 18  2  0
 18 19  1  0
 19  8  1  0
 18 10  1  0
M  CHG  2  15   1  17  -1
M  END
>  <zinc_id>  (1) 
ZINC000004365089

>  <smiles>  (1) 
CCCCNC(=O)c1cc2cccc([N+](=O)[O-])c2[nH]1

$$$$
