
     RDKit          3D

 22 24  0  0  0  0  0  0  0  0999 V2000
    4.4419    2.3600   -0.0710 C   0  0  0  0  0  0  0  0  0  0  0  0
    3.5391    3.5360    0.1103 C   0  0  0  0  0  0  0  0  0  0  0  0
    2.2335    3.3766   -0.5695 C   0  0  0  0  0  0  0  0  0  0  0  0
    1.4448    2.3477   -0.1908 O   0  0  0  0  0  0  0  0  0  0  0  0
    1.5626    0.9953   -0.2002 C   0  0  0  0  0  0  0  0  0  0  0  0
    2.6476    0.3028   -0.6635 C   0  0  0  0  0  0  0  0  0  0  0  0
    2.7747   -1.0417   -0.6788 C   0  0  0  0  0  0  0  0  0  0  0  0
    1.7059   -1.7847   -0.1775 C   0  0  0  0  0  0  0  0  0  0  0  0
    1.7980   -3.1705   -0.1522 C   0  0  0  0  0  0  0  0  0  0  0  0
    0.7399   -3.8685    0.3669 C   0  0  0  0  0  0  0  0  0  0  0  0
   -0.3736   -3.2418    0.8467 C   0  0  0  0  0  0  0  0  0  0  0  0
   -0.4602   -1.8832    0.8194 C   0  0  0  0  0  0  0  0  0  0  0  0
    0.5885   -1.1476    0.3019 C   0  0  0  0  0  0  0  0  0  0  0  0
    0.5147    0.2305    0.2910 C   0  0  0  0  0  0  0  0  0  0  0  0
   -0.6293    0.9508    0.8256 C   0  0  0  0  0  0  0  0  0  0  0  0
   -1.8173    0.7777    0.2941 C   0  0  0  0  0  0  0  0  0  0  0  0
   -3.3702    1.5810    0.8298 S   0  0  0  0  0  0  0  0  0  0  0  0
   -4.4210    0.3200    0.1103 C   0  0  0  0  0  0  0  0  0  0  0  0
   -5.5575    0.0277    0.4617 O   0  0  0  0  0  0  0  0  0  0  0  0
   -3.6426   -0.2257   -0.9169 N   0  0  0  0  0  0  0  0  0  0  0  0
   -2.2727   -0.0012   -0.8493 C   0  0  0  0  0  0  0  0  0  0  0  0
   -1.4470   -0.4412   -1.7314 O   0  0  0  0  0  0  0  0  0  0  0  0
  1  2  1  0
  2  3  1  0
  3  4  1  0
  4  5  1  0
  5  6  2  0
  6  7  1  0
  7  8  2  0
  8  9  1  0
  9 10  2  0
 10 11  1  0
 11 12  2  0
 12 13  1  0
 13 14  2  0
 14 15  1  0
 15 16  2  0
 16 17  1  0
 17 18  1  0
 18 19  2  0
 18 20  1  0
 20 21  1  0
 21 22  2  0
 14  5  1  0
 21 16  1  0
 13  8  1  0
M  END
>  <zinc_id>  (1) 
ZINC000002169638

>  <smiles>  (1) 
CCCOc1ccc2ccccc2c1/C=C1/SC(=O)NC1=O

$$$$
