
     RDKit          3D

 21 24  0  0  0  0  0  0  0  0999 V2000
   -3.1890    1.7395    0.7055 C   0  0  0  0  0  0  0  0  0  0  0  0
   -3.8362    0.5037    0.2319 C   0  0  0  0  0  0  0  0  0  0  0  0
   -5.1284    0.5147   -0.1881 N   0  0  0  0  0  0  0  0  0  0  0  0
   -5.4546   -0.7222   -0.5300 C   0  0  0  0  0  0  0  0  0  0  0  0
   -4.3907   -1.5069   -0.3320 N   0  0  0  0  0  0  0  0  0  0  0  0
   -3.3455   -0.7766    0.1476 C   0  0  0  0  0  0  0  0  0  0  0  0
   -2.0056   -1.3171    0.4559 C   0  0  0  0  0  0  0  0  0  0  0  0
   -1.0361   -1.0467   -0.8264 C   0  0  1  0  0  0  0  0  0  0  0  0
   -1.1780    0.5783   -0.7802 C   0  0  0  0  0  0  0  0  0  0  0  0
   -0.2159    1.0882   -1.8122 C   0  0  0  0  0  0  0  0  0  0  0  0
    1.1491    0.9337   -1.2021 C   0  0  0  0  0  0  0  0  0  0  0  0
    2.2931    1.5926   -1.2657 N   0  0  0  0  0  0  0  0  0  0  0  0
    3.2576    1.0325   -0.5073 C   0  0  0  0  0  0  0  0  0  0  0  0
    4.5898    1.3668   -0.2667 C   0  0  0  0  0  0  0  0  0  0  0  0
    5.3735    0.6090    0.5695 C   0  0  0  0  0  0  0  0  0  0  0  0
    4.7975   -0.4920    1.1617 C   0  0  0  0  0  0  0  0  0  0  0  0
    3.4626   -0.8436    0.9328 C   0  0  0  0  0  0  0  0  0  0  0  0
    2.6941   -0.0692    0.0901 C   0  0  0  0  0  0  0  0  0  0  0  0
    1.3600   -0.1321   -0.3492 C   0  0  0  0  0  0  0  0  0  0  0  0
    0.3317   -1.1016   -0.0187 C   0  0  0  0  0  0  0  0  0  0  0  0
    0.4711   -1.9511    0.8460 O   0  0  0  0  0  0  0  0  0  0  0  0
  1  2  1  0
  2  3  1  0
  3  4  1  0
  4  5  2  0
  5  6  1  0
  6  7  1  0
  8  7  1  1
  8  9  1  0
  9 10  1  0
 10 11  1  0
 11 12  1  0
 12 13  1  0
 13 14  2  0
 14 15  1  0
 15 16  2  0
 16 17  1  0
 17 18  2  0
 18 19  1  0
 19 20  1  0
 20 21  2  0
  6  2  2  0
 20  8  1  0
 19 11  2  0
 18 13  1  0
M  END
>  <zinc_id>  (1) 
ZINC000000002614

>  <smiles>  (1) 
Cc1[nH]cnc1C[C@H]1CCc2[nH]c3ccccc3c2C1=O

$$$$
