
     RDKit          3D

 20 21  0  0  0  0  0  0  0  0999 V2000
    5.7339   -0.8529    0.4439 C   0  0  0  0  0  0  0  0  0  0  0  0
    4.8626   -0.0654   -0.3400 O   0  0  0  0  0  0  0  0  0  0  0  0
    3.5238    0.1258    0.0448 C   0  0  0  0  0  0  0  0  0  0  0  0
    3.0858   -0.4706    1.1987 C   0  0  0  0  0  0  0  0  0  0  0  0
    1.7847   -0.2962    1.5905 C   0  0  0  0  0  0  0  0  0  0  0  0
    0.9028    0.4767    0.8346 C   0  0  0  0  0  0  0  0  0  0  0  0
   -0.7907    0.6709    1.4053 S   0  0  0  0  0  0  0  0  0  0  0  0
   -1.8486   -0.6324    0.7773 C   0  0  0  0  0  0  0  0  0  0  0  0
   -1.7788   -1.8844    1.3744 C   0  0  0  0  0  0  0  0  0  0  0  0
   -2.5704   -2.9006    0.9201 C   0  0  0  0  0  0  0  0  0  0  0  0
   -3.4242   -2.6572   -0.1259 C   0  0  0  0  0  0  0  0  0  0  0  0
   -3.4812   -1.4129   -0.7036 C   0  0  0  0  0  0  0  0  0  0  0  0
   -2.6870   -0.3476   -0.2647 C   0  0  0  0  0  0  0  0  0  0  0  0
   -2.8662    0.9550   -0.8861 C   0  0  0  0  0  0  0  0  0  0  0  0
   -3.6536    1.0469   -2.0751 N   0  0  0  0  0  0  0  0  0  0  0  0
   -2.3675    2.0140   -0.4392 O   0  0  0  0  0  0  0  0  0  0  0  0
    1.3397    1.0674   -0.3097 C   0  0  0  0  0  0  0  0  0  0  0  0
    0.5248    1.8474   -1.1096 O   0  0  0  0  0  0  0  0  0  0  0  0
    1.0370    2.4288   -2.2777 C   0  0  0  0  0  0  0  0  0  0  0  0
    2.6728    0.8872   -0.7087 C   0  0  0  0  0  0  0  0  0  0  0  0
  1  2  1  0
  2  3  1  0
  3  4  2  0
  4  5  1  0
  5  6  2  0
  6  7  1  0
  7  8  1  0
  8  9  2  0
  9 10  1  0
 10 11  2  0
 11 12  1  0
 12 13  2  0
 13 14  1  0
 14 15  1  0
 14 16  2  0
  6 17  1  0
 17 18  1  0
 18 19  1  0
 17 20  2  0
 20  3  1  0
 13  8  1  0
M  END
>  <zinc_id>  (1) 
ZINC000000346288

>  <smiles>  (1) 
COc1ccc(Sc2ccccc2C(N)=O)c(OC)c1

$$$$
