
     RDKit          3D

 19 20  0  0  0  0  0  0  0  0999 V2000
    5.2987   -0.4334   -1.4483 C   0  0  0  0  0  0  0  0  0  0  0  0
    4.7513    0.5491   -0.4253 C   0  0  0  0  0  0  0  0  0  0  0  0
    5.6466    0.5824    0.7919 C   0  0  0  0  0  0  0  0  0  0  0  0
    4.7894    1.9000   -1.0877 C   0  0  0  0  0  0  0  0  0  0  0  0
    3.3492    0.1825   -0.0444 C   0  0  0  0  0  0  0  0  0  0  0  0
    3.0895   -0.3044    1.2248 C   0  0  0  0  0  0  0  0  0  0  0  0
    1.8485   -0.6545    1.6660 C   0  0  0  0  0  0  0  0  0  0  0  0
    0.7171   -0.5184    0.8056 C   0  0  0  0  0  0  0  0  0  0  0  0
   -0.5352   -0.8803    1.3240 N   0  0  0  0  0  0  0  0  0  0  0  0
   -1.7923   -0.7618    0.9420 N   0  0  0  0  0  0  0  0  0  0  0  0
   -2.4577    0.1155    0.0650 C   0  0  0  0  0  0  0  0  0  0  0  0
   -1.7645    0.9907   -0.5266 O   0  0  0  0  0  0  0  0  0  0  0  0
   -3.9106   -0.0328   -0.0939 C   0  0  0  0  0  0  0  0  0  0  0  0
   -4.7125   -0.9891    0.4607 C   0  0  0  0  0  0  0  0  0  0  0  0
   -6.0220   -0.9492    0.2029 C   0  0  0  0  0  0  0  0  0  0  0  0
   -6.4896    0.0499   -0.6093 C   0  0  0  0  0  0  0  0  0  0  0  0
   -5.0372    0.8824   -0.9550 S   0  0  0  0  0  0  0  0  0  0  0  0
    0.9831   -0.0340   -0.4496 C   0  0  0  0  0  0  0  0  0  0  0  0
    2.2483    0.3053   -0.8601 C   0  0  0  0  0  0  0  0  0  0  0  0
  1  2  1  0
  2  3  1  0
  2  4  1  0
  2  5  1  0
  5  6  2  0
  6  7  1  0
  7  8  2  0
  8  9  1  0
  9 10  1  0
 10 11  1  0
 11 12  2  0
 11 13  1  0
 13 14  2  0
 14 15  1  0
 15 16  2  0
 16 17  1  0
  8 18  1  0
 18 19  2  0
 19  5  1  0
 17 13  1  0
M  END
>  <zinc_id>  (1) 
ZINC000000153269

>  <smiles>  (1) 
CC(C)(C)c1ccc(NNC(=O)c2cccs2)cc1

$$$$
