
     RDKit          3D

 19 20  0  0  0  0  0  0  0  0999 V2000
   -3.4621    2.0701   -0.7770 C   0  0  0  0  0  0  0  0  0  0  0  0
   -2.7358    0.7444   -0.6335 C   0  0  0  0  0  0  0  0  0  0  0  0
   -1.4714    0.6707   -0.3684 N   0  0  0  0  0  0  0  0  0  0  0  0
   -0.8874   -0.5110   -0.2537 C   0  0  0  0  0  0  0  0  0  0  0  0
    0.4900   -0.7483    0.0340 N   0  0  0  0  0  0  0  0  0  0  0  0
    1.3679    0.3524    0.2261 C   0  0  0  0  0  0  0  0  0  0  0  0
    0.8518    1.5195    0.1258 O   0  0  0  0  0  0  0  0  0  0  0  0
    2.7748    0.2079    0.5206 C   0  0  0  0  0  0  0  0  0  0  0  0
    3.5628    1.3078    0.6937 C   0  0  0  0  0  0  0  0  0  0  0  0
    4.9271    1.1781    0.9793 C   0  0  0  0  0  0  0  0  0  0  0  0
    5.4573   -0.0925    1.0818 C   0  0  0  0  0  0  0  0  0  0  0  0
    4.6533   -1.1852    0.9054 C   0  0  0  0  0  0  0  0  0  0  0  0
    3.3134   -1.0415    0.6250 C   0  0  0  0  0  0  0  0  0  0  0  0
    2.5752   -2.2113    0.4619 O   0  0  0  0  0  0  0  0  0  0  0  0
   -2.1820   -1.5842   -0.5330 S   0  0  0  0  0  0  0  0  0  0  0  0
   -3.4259   -0.4273   -0.7864 C   0  0  0  0  0  0  0  0  0  0  0  0
   -4.8834   -0.6214   -1.0940 C   0  0  0  0  0  0  0  0  0  0  0  0
   -5.2148   -2.0939   -1.1706 C   0  0  0  0  0  0  0  0  0  0  0  0
   -5.7109    0.0633   -0.0370 C   0  0  0  0  0  0  0  0  0  0  0  0
  1  2  1  0
  2  3  1  0
  3  4  2  0
  4  5  1  0
  5  6  1  0
  6  7  2  0
  6  8  1  0
  8  9  2  0
  9 10  1  0
 10 11  2  0
 11 12  1  0
 12 13  2  0
 13 14  1  0
  4 15  1  0
 15 16  1  0
 16 17  1  0
 17 18  1  0
 17 19  1  0
 16  2  2  0
 13  8  1  0
M  END
>  <zinc_id>  (1) 
ZINC000002903255

>  <smiles>  (1) 
Cc1nc(NC(=O)c2ccccc2O)sc1C(C)C

$$$$
