
     RDKit          3D

 21 23  0  0  0  0  0  0  0  0999 V2000
    4.0743    1.2716    1.1959 C   0  0  0  0  0  0  0  0  0  0  0  0
    4.2327    0.2177    0.1349 C   0  0  0  0  0  0  0  0  0  0  0  0
    5.2249   -0.8231    0.5869 C   0  0  0  0  0  0  0  0  0  0  0  0
    2.9805   -0.4567   -0.2792 C   0  0  0  0  0  0  0  0  0  0  0  0
    2.3417   -1.1805    1.0629 C   0  0  1  0  0  0  0  0  0  0  0  0
    2.1549    0.1447    1.8646 N   0  0  0  0  0  0  0  0  0  0  0  0
    1.1793    0.8542    1.1500 C   0  0  0  0  0  0  0  0  0  0  0  0
    0.9918    2.0925    1.2274 O   0  0  0  0  0  0  0  0  0  0  0  0
    0.3999    0.0177    0.3072 N   0  0  0  0  0  0  0  0  0  0  0  0
   -0.6699    0.3724   -0.5583 C   0  0  0  0  0  0  0  0  0  0  0  0
   -0.4710    1.1133   -1.7185 C   0  0  0  0  0  0  0  0  0  0  0  0
   -1.5244    1.4468   -2.5437 C   0  0  0  0  0  0  0  0  0  0  0  0
   -2.8169    1.0651   -2.2615 C   0  0  0  0  0  0  0  0  0  0  0  0
   -3.0261    0.3189   -1.0953 C   0  0  0  0  0  0  0  0  0  0  0  0
   -4.2835   -0.1021   -0.7392 C   0  0  0  0  0  0  0  0  0  0  0  0
   -4.4883   -0.8275    0.3944 C   0  0  0  0  0  0  0  0  0  0  0  0
   -3.4151   -1.1436    1.1962 C   0  0  0  0  0  0  0  0  0  0  0  0
   -2.1320   -0.7460    0.8850 C   0  0  0  0  0  0  0  0  0  0  0  0
   -1.9678   -0.0104   -0.2757 C   0  0  0  0  0  0  0  0  0  0  0  0
    0.8680   -1.2728    0.4662 C   0  0  0  0  0  0  0  0  0  0  0  0
    0.3469   -2.3523    0.2309 O   0  0  0  0  0  0  0  0  0  0  0  0
  1  2  1  0
  2  3  1  0
  2  4  1  0
  5  4  1  6
  5  6  1  0
  6  7  1  0
  7  8  2  0
  7  9  1  0
  9 10  1  0
 10 11  2  0
 11 12  1  0
 12 13  2  0
 13 14  1  0
 14 15  2  0
 15 16  1  0
 16 17  2  0
 17 18  1  0
 18 19  2  0
  9 20  1  0
 20 21  2  0
 20  5  1  0
 19 10  1  0
 19 14  1  0
M  END
>  <zinc_id>  (1) 
ZINC000001040988

>  <smiles>  (1) 
CC(C)C[C@H]1NC(=O)N(c2cccc3ccccc23)C1=O

$$$$
