
     RDKit          3D

 33 35  0  0  0  0  0  0  0  0999 V2000
    5.9541   -2.7540   -0.7652 C   0  0  0  0  0  0  0  0  0  0  0  0
    4.6122   -2.0598   -0.8886 C   0  0  0  0  0  0  0  0  0  0  0  0
    4.1120   -2.1220   -2.3052 C   0  0  0  0  0  0  0  0  0  0  0  0
    4.6971   -0.6398   -0.3874 C   0  0  0  0  0  0  0  0  0  0  0  0
    5.8692   -0.1594    0.1525 C   0  0  0  0  0  0  0  0  0  0  0  0
    5.9507    1.1332    0.6158 C   0  0  0  0  0  0  0  0  0  0  0  0
    4.8095    1.9239    0.5163 C   0  0  0  0  0  0  0  0  0  0  0  0
    3.6478    1.4175   -0.0303 C   0  0  0  0  0  0  0  0  0  0  0  0
    2.4268    2.2579   -0.1399 C   0  0  0  0  0  0  0  0  0  0  0  0
    2.6807    3.6332    0.4588 C   0  0  0  0  0  0  0  0  0  0  0  0
    1.9148    2.3316   -1.5588 C   0  0  0  0  0  0  0  0  0  0  0  0
    3.5549    0.1202   -0.4989 C   0  0  0  0  0  0  0  0  0  0  0  0
    2.3639   -0.3377   -1.0387 O   0  0  0  0  0  0  0  0  0  0  0  0
    1.2449   -1.0584    0.0160 S   0  0  0  0  0  0  0  0  0  0  0  0
    1.8963   -1.3728    1.3549 O   0  0  0  0  0  0  0  0  0  0  0  0
    0.8191   -2.3471   -0.6325 O   0  0  0  0  0  0  0  0  0  0  0  0
   -0.1247   -0.0852    0.3222 N   0  0  0  0  0  0  0  0  0  0  0  0
   -1.4072   -0.7039    0.3230 C   0  0  0  0  0  0  0  0  0  0  0  0
   -1.4830   -1.9505    0.0968 O   0  0  0  0  0  0  0  0  0  0  0  0
   -2.6542    0.0331    0.5743 C   0  0  0  0  0  0  0  0  0  0  0  0
   -2.6180    0.6182    1.9967 C   0  0  0  0  0  0  0  0  0  0  0  0
   -2.9266    1.1081   -0.4072 C   0  0  0  0  0  0  0  0  0  0  0  0
   -3.1000    0.9221   -1.7487 C   0  0  0  0  0  0  0  0  0  0  0  0
   -3.3489    1.9472   -2.6346 C   0  0  0  0  0  0  0  0  0  0  0  0
   -3.4338    3.2537   -2.1800 C   0  0  0  0  0  0  0  0  0  0  0  0
   -3.2606    3.4618   -0.8293 C   0  0  0  0  0  0  0  0  0  0  0  0
   -3.0115    2.4193    0.0435 C   0  0  0  0  0  0  0  0  0  0  0  0
   -3.8058   -0.9172    0.5364 C   0  0  0  0  0  0  0  0  0  0  0  0
   -4.9649   -0.7016    1.2285 C   0  0  0  0  0  0  0  0  0  0  0  0
   -6.0155   -1.5935    1.1769 C   0  0  0  0  0  0  0  0  0  0  0  0
   -5.9296   -2.7595    0.4085 C   0  0  0  0  0  0  0  0  0  0  0  0
   -4.7595   -2.9391   -0.2663 C   0  0  0  0  0  0  0  0  0  0  0  0
   -3.7100   -2.0796   -0.2348 C   0  0  0  0  0  0  0  0  0  0  0  0
  1  2  1  0
  2  3  1  0
  2  4  1  0
  4  5  2  0
  5  6  1  0
  6  7  2  0
  7  8  1  0
  8  9  1  0
  9 10  1  0
  9 11  1  0
  8 12  2  0
 12 13  1  0
 13 14  1  0
 14 15  2  0
 14 16  2  0
 14 17  1  0
 17 18  1  0
 18 19  2  0
 18 20  1  0
 20 21  1  0
 20 22  1  0
 22 23  2  0
 23 24  1  0
 24 25  2  0
 25 26  1  0
 26 27  2  0
 20 28  1  0
 28 29  2  0
 29 30  1  0
 30 31  2  0
 31 32  1  0
 32 33  2  0
 12  4  1  0
 27 22  1  0
 33 28  1  0
M  END
>  <zinc_id>  (1) 
ZINC000001540251

>  <smiles>  (1) 
CC(C)c1cccc(C(C)C)c1OS(=O)(=O)NC(=O)C(C)(c1ccccc1)c1ccccc1

$$$$
