
     RDKit          3D

 29 31  0  0  0  0  0  0  0  0999 V2000
    6.6135    3.4364   -2.6485 C   0  0  0  0  0  0  0  0  0  0  0  0
    5.7573    2.5687   -1.8003 C   0  0  0  0  0  0  0  0  0  0  0  0
    5.7793    2.7155   -0.4258 C   0  0  0  0  0  0  0  0  0  0  0  0
    4.9951    1.9215    0.4097 C   0  0  0  0  0  0  0  0  0  0  0  0
    4.1947    0.9812   -0.1912 C   0  0  0  0  0  0  0  0  0  0  0  0
    3.3833    0.1183    0.6591 C   0  0  0  0  0  0  0  0  0  0  0  0
    3.4198    0.1362    2.0426 C   0  0  0  0  0  0  0  0  0  0  0  0
    2.6647   -0.7009    2.8317 C   0  0  0  0  0  0  0  0  0  0  0  0
    1.8231   -1.6115    2.2008 C   0  0  0  0  0  0  0  0  0  0  0  0
    0.8286   -2.7555    3.1846 S   0  0  0  0  0  0  0  0  0  0  0  0
   -0.1268   -3.7040    1.9761 C   0  0  0  0  0  0  0  0  0  0  0  0
   -1.0978   -2.7258    1.4109 C   0  0  0  0  0  0  0  0  0  0  0  0
   -0.8710   -1.9139    0.3456 C   0  0  0  0  0  0  0  0  0  0  0  0
   -1.8327   -1.0530   -0.1097 C   0  0  0  0  0  0  0  0  0  0  0  0
   -3.0899   -0.9644    0.4930 C   0  0  0  0  0  0  0  0  0  0  0  0
   -4.1225   -0.0534    0.0287 C   0  0  0  0  0  0  0  0  0  0  0  0
   -5.3173   -0.3367    0.2770 O   0  0  0  0  0  0  0  0  0  0  0  0
   -3.8252    1.0672   -0.6487 N   0  0  0  0  0  0  0  0  0  0  0  0
   -4.8855    2.0872   -1.1783 C   0  0  2  0  0  0  0  0  0  0  0  0
   -6.2583    1.2796   -0.7630 C   0  0  0  0  0  0  0  0  0  0  0  0
   -4.8324    1.4912   -2.7142 C   0  0  0  0  0  0  0  0  0  0  0  0
   -5.2190    0.0706   -2.6845 C   0  0  0  0  0  0  0  0  0  0  0  0
   -5.8935    2.3377   -3.3854 C   0  0  0  0  0  0  0  0  0  0  0  0
   -3.2681   -1.8080    1.5675 C   0  0  0  0  0  0  0  0  0  0  0  0
   -2.3180   -2.6717    2.0331 C   0  0  0  0  0  0  0  0  0  0  0  0
    1.8108   -1.6038    0.8658 N   0  0  0  0  0  0  0  0  0  0  0  0
    2.5444   -0.7904    0.1394 N   0  0  0  0  0  0  0  0  0  0  0  0
    4.1936    0.8601   -1.5534 C   0  0  0  0  0  0  0  0  0  0  0  0
    4.9499    1.6215   -2.4069 C   0  0  0  0  0  0  0  0  0  0  0  0
  1  2  1  0
  2  3  2  0
  3  4  1  0
  4  5  2  0
  5  6  1  0
  6  7  2  0
  7  8  1  0
  8  9  2  0
  9 10  1  0
 10 11  1  0
 11 12  1  0
 12 13  2  0
 13 14  1  0
 14 15  2  0
 15 16  1  0
 16 17  2  0
 16 18  1  0
 18 19  1  0
 19 20  1  1
 19 21  1  0
 21 22  1  0
 21 23  1  0
 15 24  1  0
 24 25  2  0
  9 26  1  0
 26 27  2  0
  5 28  1  0
 28 29  2  0
 29  2  1  0
 27  6  1  0
 25 12  1  0
M  END
>  <zinc_id>  (1) 
ZINC000000737804

>  <smiles>  (1) 
Cc1ccc(-c2ccc(SCc3ccc(C(=O)N[C@H](C)C(C)C)cc3)nn2)cc1

$$$$
