
     RDKit          3D

 32 35  0  0  0  0  0  0  0  0999 V2000
    7.0460    2.6309    1.9242 C   0  0  0  0  0  0  0  0  0  0  0  0
    6.3600    2.2890    0.6081 C   0  0  0  0  0  0  0  0  0  0  0  0
    6.8474    0.9227    0.1624 C   0  0  0  0  0  0  0  0  0  0  0  0
    6.2244    0.4975   -1.1491 C   0  0  0  0  0  0  0  0  0  0  0  0
    4.7461    0.4203   -1.0166 C   0  0  0  0  0  0  0  0  0  0  0  0
    4.2285   -0.8224   -0.6470 C   0  0  0  0  0  0  0  0  0  0  0  0
    2.8805   -1.0100   -0.5035 C   0  0  0  0  0  0  0  0  0  0  0  0
    2.0232    0.0532   -0.7292 C   0  0  0  0  0  0  0  0  0  0  0  0
    0.6069   -0.1167   -0.6222 N   0  0  0  0  0  0  0  0  0  0  0  0
   -0.0697   -1.3838   -0.6176 C   0  0  0  0  0  0  0  0  0  0  0  0
    0.4774   -2.5110   -0.6806 O   0  0  0  0  0  0  0  0  0  0  0  0
   -1.5012   -1.1436   -0.5270 C   0  0  0  0  0  0  0  0  0  0  0  0
   -2.5870   -2.0795   -0.4881 N   0  0  0  0  0  0  0  0  0  0  0  0
   -2.6199   -3.1493    0.4323 C   0  0  0  0  0  0  0  0  0  0  0  0
   -1.6464   -3.3899    1.3771 C   0  0  0  0  0  0  0  0  0  0  0  0
   -1.7066   -4.4467    2.2616 C   0  0  0  0  0  0  0  0  0  0  0  0
   -2.7905   -5.2830    2.1809 C   0  0  0  0  0  0  0  0  0  0  0  0
   -3.7697   -5.0813    1.2670 C   0  0  0  0  0  0  0  0  0  0  0  0
   -3.6978   -4.0211    0.3873 C   0  0  0  0  0  0  0  0  0  0  0  0
   -4.7909   -3.8353   -0.5960 C   0  0  0  0  0  0  0  0  0  0  0  0
   -1.6719    0.1795   -0.4782 C   0  0  0  0  0  0  0  0  0  0  0  0
   -3.2476    1.0155   -0.3602 S   0  0  0  0  0  0  0  0  0  0  0  0
   -3.0229    2.7557   -0.0983 C   0  0  0  0  0  0  0  0  0  0  0  0
   -2.8669    3.6674   -1.1164 C   0  0  0  0  0  0  0  0  0  0  0  0
   -2.7141    4.9974   -0.8212 C   0  0  0  0  0  0  0  0  0  0  0  0
   -2.7162    5.4277    0.4785 C   0  0  0  0  0  0  0  0  0  0  0  0
   -2.8721    4.5173    1.4927 C   0  0  0  0  0  0  0  0  0  0  0  0
   -3.0270    3.1745    1.2473 C   0  0  0  0  0  0  0  0  0  0  0  0
   -0.3979    0.8766   -0.5319 C   0  0  0  0  0  0  0  0  0  0  0  0
   -0.1741    2.1097   -0.5078 O   0  0  0  0  0  0  0  0  0  0  0  0
    2.5426    1.2587   -1.0872 C   0  0  0  0  0  0  0  0  0  0  0  0
    3.9072    1.4802   -1.2411 C   0  0  0  0  0  0  0  0  0  0  0  0
  1  2  1  0
  2  3  1  0
  3  4  1  0
  4  5  1  0
  5  6  2  0
  6  7  1  0
  7  8  2  0
  8  9  1  0
  9 10  1  0
 10 11  2  0
 10 12  1  0
 12 13  1  0
 13 14  1  0
 14 15  2  0
 15 16  1  0
 16 17  2  0
 17 18  1  0
 18 19  2  0
 19 20  1  0
 12 21  2  0
 21 22  1  0
 22 23  1  0
 23 24  2  0
 24 25  1  0
 25 26  2  0
 26 27  1  0
 27 28  2  0
 21 29  1  0
 29 30  2  0
  8 31  1  0
 31 32  2  0
 32  5  1  0
 29  9  1  0
 19 14  1  0
 28 23  1  0
M  END
>  <zinc_id>  (1) 
ZINC000001967423

>  <smiles>  (1) 
CCCCc1ccc(N2C(=O)C(Nc3ccccc3C)=C(Sc3ccccc3)C2=O)cc1

$$$$
