
     RDKit          3D

 32 35  0  0  0  0  0  0  0  0999 V2000
    6.0738    1.2741    2.4018 C   0  0  0  0  0  0  0  0  0  0  0  0
    6.5684   -0.0781    2.0024 C   0  0  0  0  0  0  0  0  0  0  0  0
    6.4885   -0.3527    0.6351 O   0  0  0  0  0  0  0  0  0  0  0  0
    5.2698   -0.3405   -0.0296 C   0  0  0  0  0  0  0  0  0  0  0  0
    4.0658   -0.0662    0.5740 C   0  0  0  0  0  0  0  0  0  0  0  0
    2.8723   -0.0601   -0.1009 C   0  0  0  0  0  0  0  0  0  0  0  0
    2.8341   -0.3357   -1.4450 C   0  0  0  0  0  0  0  0  0  0  0  0
    1.5775   -0.3326   -2.1476 N   0  0  0  0  0  0  0  0  0  0  0  0
    0.4126   -0.0589   -1.3829 C   0  0  0  0  0  0  0  0  0  0  0  0
   -0.4773   -0.9579   -0.8923 C   0  0  0  0  0  0  0  0  0  0  0  0
   -0.3109   -2.6950   -1.1454 S   0  0  0  0  0  0  0  0  0  0  0  0
   -1.6633   -3.6545   -0.5416 C   0  0  0  0  0  0  0  0  0  0  0  0
   -1.5697   -5.0561   -0.6909 C   0  0  0  0  0  0  0  0  0  0  0  0
   -2.5674   -5.8747   -0.2676 C   0  0  0  0  0  0  0  0  0  0  0  0
   -3.7205   -5.4040    0.3271 C   0  0  0  0  0  0  0  0  0  0  0  0
   -3.7981   -4.0290    0.4670 C   0  0  0  0  0  0  0  0  0  0  0  0
   -2.8020   -3.1900    0.0460 C   0  0  0  0  0  0  0  0  0  0  0  0
   -1.5087   -0.2243   -0.1843 C   0  0  0  0  0  0  0  0  0  0  0  0
   -2.5349   -0.6280    0.4324 O   0  0  0  0  0  0  0  0  0  0  0  0
   -1.2186    1.1900   -0.2561 N   0  0  0  0  0  0  0  0  0  0  0  0
   -1.9823    2.2469    0.3072 C   0  0  0  0  0  0  0  0  0  0  0  0
   -1.4461    3.1827    1.1638 C   0  0  0  0  0  0  0  0  0  0  0  0
   -2.1979    4.2069    1.7074 C   0  0  0  0  0  0  0  0  0  0  0  0
   -1.6102    5.2114    2.6313 C   0  0  0  0  0  0  0  0  0  0  0  0
   -3.5384    4.3281    1.4035 C   0  0  0  0  0  0  0  0  0  0  0  0
   -4.0882    3.4011    0.5496 C   0  0  0  0  0  0  0  0  0  0  0  0
   -5.5498    3.5417    0.2246 C   0  0  0  0  0  0  0  0  0  0  0  0
   -3.3417    2.3802    0.0072 C   0  0  0  0  0  0  0  0  0  0  0  0
   -0.0223    1.2672   -1.0041 C   0  0  0  0  0  0  0  0  0  0  0  0
    0.5808    2.3407   -1.2997 O   0  0  0  0  0  0  0  0  0  0  0  0
    4.0099   -0.6157   -2.0927 C   0  0  0  0  0  0  0  0  0  0  0  0
    5.1945   -0.6172   -1.3995 C   0  0  0  0  0  0  0  0  0  0  0  0
  1  2  1  0
  2  3  1  0
  3  4  1  0
  4  5  2  0
  5  6  1  0
  6  7  2  0
  7  8  1  0
  8  9  1  0
  9 10  2  0
 10 11  1  0
 11 12  1  0
 12 13  2  0
 13 14  1  0
 14 15  2  0
 15 16  1  0
 16 17  2  0
 10 18  1  0
 18 19  2  0
 18 20  1  0
 20 21  1  0
 21 22  2  0
 22 23  1  0
 23 24  1  0
 23 25  2  0
 25 26  1  0
 26 27  1  0
 26 28  2  0
 20 29  1  0
 29 30  2  0
  7 31  1  0
 31 32  2  0
 32  4  1  0
 29  9  1  0
 17 12  1  0
 28 21  1  0
M  END
>  <zinc_id>  (1) 
ZINC000001931022

>  <smiles>  (1) 
CCOc1ccc(NC2=C(Sc3ccccc3)C(=O)N(c3cc(C)cc(C)c3)C2=O)cc1

$$$$
