
     RDKit          3D

 32 36  0  0  0  0  0  0  0  0999 V2000
   -2.9841    2.6881    2.7014 C   0  0  0  0  0  0  0  0  0  0  0  0
   -2.2810    1.8154    1.8576 O   0  0  0  0  0  0  0  0  0  0  0  0
   -2.9982    1.0468    0.9325 C   0  0  0  0  0  0  0  0  0  0  0  0
   -4.3796    1.1389    0.8434 C   0  0  0  0  0  0  0  0  0  0  0  0
   -5.0305    0.3535   -0.0908 C   0  0  0  0  0  0  0  0  0  0  0  0
   -4.3724   -0.5129   -0.9338 C   0  0  0  0  0  0  0  0  0  0  0  0
   -2.9831   -0.5727   -0.8089 C   0  0  0  0  0  0  0  0  0  0  0  0
   -2.3103    0.1940    0.1081 C   0  0  0  0  0  0  0  0  0  0  0  0
   -0.9050    0.1019    0.2005 N   0  0  0  0  0  0  0  0  0  0  0  0
   -0.1386   -0.7592   -0.6221 C   0  0  0  0  0  0  0  0  0  0  0  0
   -0.7612   -1.4592   -1.4605 O   0  0  0  0  0  0  0  0  0  0  0  0
    1.3210   -0.8847   -0.5584 C   0  0  0  0  0  0  0  0  0  0  0  0
    1.8995   -0.0457    0.4236 O   0  0  0  0  0  0  0  0  0  0  0  0
    3.2832   -0.0690    0.5870 C   0  0  0  0  0  0  0  0  0  0  0  0
    4.0800   -0.8880   -0.1861 C   0  0  0  0  0  0  0  0  0  0  0  0
    5.4498   -0.9066   -0.0194 C   0  0  0  0  0  0  0  0  0  0  0  0
    6.0903   -0.1181    0.9167 C   0  0  0  0  0  0  0  0  0  0  0  0
    7.5692   -0.1581    1.0751 C   0  0  0  0  0  0  0  0  0  0  0  0
    8.1670   -0.7310   -0.1891 C   0  0  0  0  0  0  0  0  0  0  0  0
    7.9965    0.1946   -1.3614 C   0  0  0  0  0  0  0  0  0  0  0  0
    8.6302    1.5349   -1.0058 C   0  0  0  0  0  0  0  0  0  0  0  0
    8.0052    2.1041    0.2536 C   0  0  0  0  0  0  0  0  0  0  0  0
    8.1355    1.1832    1.4327 C   0  0  0  0  0  0  0  0  0  0  0  0
    5.2906    0.7017    1.6902 C   0  0  0  0  0  0  0  0  0  0  0  0
    3.9209    0.7194    1.5226 C   0  0  0  0  0  0  0  0  0  0  0  0
   -5.2322   -1.1207   -1.7053 O   0  0  0  0  0  0  0  0  0  0  0  0
   -6.4200   -0.6972   -1.4112 C   0  0  0  0  0  0  0  0  0  0  0  0
   -7.6316   -1.0590   -1.9659 C   0  0  0  0  0  0  0  0  0  0  0  0
   -8.7635   -0.4536   -1.4683 C   0  0  0  0  0  0  0  0  0  0  0  0
   -8.7439    0.4843   -0.4559 C   0  0  0  0  0  0  0  0  0  0  0  0
   -7.5224    0.8435    0.0972 C   0  0  0  0  0  0  0  0  0  0  0  0
   -6.3814    0.2378   -0.3994 C   0  0  0  0  0  0  0  0  0  0  0  0
  1  2  1  0
  2  3  1  0
  3  4  2  0
  4  5  1  0
  5  6  2  0
  6  7  1  0
  7  8  2  0
  8  9  1  0
  9 10  1  0
 10 11  2  0
 10 12  1  0
 12 13  1  0
 13 14  1  0
 14 15  2  0
 15 16  1  0
 16 17  2  0
 17 18  1  0
 18 19  1  0
 19 20  1  0
 20 21  1  0
 21 22  1  0
 22 23  1  0
 17 24  1  0
 24 25  2  0
  6 26  1  0
 26 27  1  0
 27 28  2  0
 28 29  1  0
 29 30  2  0
 30 31  1  0
 31 32  2  0
  8  3  1  0
 25 14  1  0
 32 27  1  0
 32  5  1  0
 23 18  1  0
M  END
>  <zinc_id>  (1) 
ZINC000002339784

>  <smiles>  (1) 
COc1cc2c(cc1NC(=O)COc1ccc(C3CCCCC3)cc1)oc1ccccc12

$$$$
