
     RDKit          3D

 19 21  0  0  0  0  0  0  0  0999 V2000
    3.2923    2.8344    0.1984 C   0  0  0  0  0  0  0  0  0  0  0  0
    3.6315    1.4659    1.0958 C   0  0  1  0  0  0  0  0  0  0  0  0
    2.3950    0.6459    0.4419 C   0  0  0  0  0  0  0  0  0  0  0  0
    2.6260   -0.6658    0.4086 C   0  0  0  0  0  0  0  0  0  0  0  0
    1.6998   -1.6014   -0.1152 N   0  0  0  0  0  0  0  0  0  0  0  0
    0.6950   -1.1270   -0.9817 N   0  0  0  0  0  0  0  0  0  0  0  0
   -0.4820   -0.8070   -0.5530 C   0  0  0  0  0  0  0  0  0  0  0  0
   -0.7054   -0.9539    0.7996 C   0  0  0  0  0  0  0  0  0  0  0  0
   -1.9499   -0.6206    1.2839 C   0  0  0  0  0  0  0  0  0  0  0  0
   -2.9173   -0.1569    0.4066 C   0  0  0  0  0  0  0  0  0  0  0  0
   -4.1545    0.1722    0.9012 C   0  0  0  0  0  0  0  0  0  0  0  0
   -5.1355    0.6357    0.0532 C   0  0  0  0  0  0  0  0  0  0  0  0
   -4.9090    0.7811   -1.2965 C   0  0  0  0  0  0  0  0  0  0  0  0
   -3.6689    0.4484   -1.7753 C   0  0  0  0  0  0  0  0  0  0  0  0
   -2.6747   -0.0172   -0.9415 C   0  0  0  0  0  0  0  0  0  0  0  0
   -1.4518   -0.3487   -1.3920 N   0  0  0  0  0  0  0  0  0  0  0  0
    3.9073   -1.2039    0.9391 C   0  0  0  0  0  0  0  0  0  0  0  0
    5.0993   -0.3976    0.5295 C   0  0  0  0  0  0  0  0  0  0  0  0
    4.7029    0.9165   -0.0636 C   0  0  0  0  0  0  0  0  0  0  0  0
  2  1  1  6
  2  3  1  0
  3  4  2  0
  4  5  1  0
  5  6  1  0
  6  7  2  0
  7  8  1  0
  8  9  2  0
  9 10  1  0
 10 11  2  0
 11 12  1  0
 12 13  2  0
 13 14  1  0
 14 15  2  0
 15 16  1  0
  4 17  1  0
 17 18  1  0
 18 19  1  0
 19  2  1  0
 16  7  1  0
 15 10  1  0
M  END
>  <zinc_id>  (1) 
ZINC000001708605

>  <smiles>  (1) 
C[C@H]1C=C(N/N=c2\ccc3ccccc3[nH]2)CCC1

$$$$
