
     RDKit          3D

 20 22  0  0  0  0  0  0  0  0999 V2000
   -3.5901   -1.5719    0.6069 C   0  0  0  0  0  0  0  0  0  0  0  0
   -2.1188   -1.7383    0.9664 C   0  0  0  0  0  0  0  0  0  0  0  0
   -1.3528   -0.8016    0.0235 C   0  0  0  0  0  0  0  0  0  0  0  0
   -1.6841   -1.2878   -1.4043 C   0  0  0  0  0  0  0  0  0  0  0  0
   -1.2854   -2.6883   -1.6696 C   0  0  0  0  0  0  0  0  0  0  0  0
   -1.9837    0.5458    0.1769 C   0  0  0  0  0  0  0  0  0  0  0  0
   -1.0772    1.6964   -0.0059 C   0  0  0  0  0  0  0  0  0  0  0  0
   -1.6096    2.9843   -0.1978 C   0  0  0  0  0  0  0  0  0  0  0  0
   -0.7852    4.0695   -0.3188 C   0  0  0  0  0  0  0  0  0  0  0  0
    0.5859    3.9944   -0.2647 C   0  0  0  0  0  0  0  0  0  0  0  0
    1.1224    2.7403   -0.0784 C   0  0  0  0  0  0  0  0  0  0  0  0
    0.2905    1.6159    0.0467 C   0  0  0  0  0  0  0  0  0  0  0  0
    0.8919    0.2889    0.1838 C   0  0  0  0  0  0  0  0  0  0  0  0
    2.2447    0.2472    0.3276 N   0  0  0  0  0  0  0  0  0  0  0  0
    2.8153   -0.9489    0.5419 C   0  0  0  0  0  0  0  0  0  0  0  0
    4.4456   -1.0770    0.7250 S   0  0  0  0  0  0  0  0  0  0  0  0
    2.0998   -2.0813    0.6167 N   0  0  0  0  0  0  0  0  0  0  0  0
    0.7381   -2.0313    0.4696 C   0  0  0  0  0  0  0  0  0  0  0  0
    0.1550   -3.1222    0.5550 O   0  0  0  0  0  0  0  0  0  0  0  0
    0.0976   -0.8341    0.2458 C   0  0  0  0  0  0  0  0  0  0  0  0
  1  2  1  0
  2  3  1  0
  3  4  1  0
  4  5  1  0
  3  6  1  0
  6  7  1  0
  7  8  2  0
  8  9  1  0
  9 10  2  0
 10 11  1  0
 11 12  2  0
 12 13  1  0
 13 14  1  0
 14 15  1  0
 15 16  2  0
 15 17  1  0
 17 18  1  0
 18 19  2  0
 18 20  1  0
 20  3  1  0
 12  7  1  0
 20 13  2  0
M  END
>  <zinc_id>  (1) 
ZINC000000477507

>  <smiles>  (1) 
CCC1(CC)Cc2ccccc2-c2[nH]c(=S)[nH]c(=O)c21

$$$$
