
     RDKit          3D

 29 31  0  0  0  0  0  0  0  0999 V2000
   -8.0352    2.4760   -0.7382 C   0  0  0  0  0  0  0  0  0  0  0  0
   -6.7353    3.0147   -1.2837 C   0  0  0  0  0  0  0  0  0  0  0  0
   -5.7244    2.0791   -0.9363 O   0  0  0  0  0  0  0  0  0  0  0  0
   -4.4070    2.2329   -1.2658 C   0  0  0  0  0  0  0  0  0  0  0  0
   -4.0625    3.2485   -1.9077 O   0  0  0  0  0  0  0  0  0  0  0  0
   -3.3659    1.2713   -0.9092 C   0  0  0  0  0  0  0  0  0  0  0  0
   -3.5254    0.0779   -0.2000 C   0  0  0  0  0  0  0  0  0  0  0  0
   -2.2806   -0.5401   -0.0765 C   0  0  0  0  0  0  0  0  0  0  0  0
   -1.9984   -1.7999    0.5894 C   0  0  0  0  0  0  0  0  0  0  0  0
   -2.9553   -2.5743    1.2063 C   0  0  0  0  0  0  0  0  0  0  0  0
   -2.6564   -3.7692    1.8322 C   0  0  0  0  0  0  0  0  0  0  0  0
   -1.3670   -4.2046    1.8435 C   0  0  0  0  0  0  0  0  0  0  0  0
   -0.3725   -3.4532    1.2327 C   0  0  0  0  0  0  0  0  0  0  0  0
   -0.6987   -2.2494    0.6068 C   0  0  0  0  0  0  0  0  0  0  0  0
   -1.3960    0.2571   -0.6932 N   0  0  0  0  0  0  0  0  0  0  0  0
    0.0215   -0.0326   -0.7885 C   0  0  0  0  0  0  0  0  0  0  0  0
    0.7941    0.5386    0.3750 C   0  0  0  0  0  0  0  0  0  0  0  0
    2.2235    0.2000    0.2012 C   0  0  0  0  0  0  0  0  0  0  0  0
    2.5689   -0.4611   -0.8066 O   0  0  0  0  0  0  0  0  0  0  0  0
    3.2294    0.5887    1.1244 N   0  0  0  0  0  0  0  0  0  0  0  0
    4.5712    0.2082    0.8568 C   0  0  0  0  0  0  0  0  0  0  0  0
    4.9149   -0.5247   -0.2711 C   0  0  0  0  0  0  0  0  0  0  0  0
    6.2297   -0.8778   -0.5004 C   0  0  0  0  0  0  0  0  0  0  0  0
    7.2452   -0.5280    0.3606 C   0  0  0  0  0  0  0  0  0  0  0  0
    8.6548   -0.9236    0.0863 C   0  0  0  0  0  0  0  0  0  0  0  0
    6.9120    0.1995    1.4825 C   0  0  0  0  0  0  0  0  0  0  0  0
    5.5959    0.5525    1.7111 C   0  0  0  0  0  0  0  0  0  0  0  0
   -2.0200    1.3381   -1.1945 C   0  0  0  0  0  0  0  0  0  0  0  0
   -1.3603    2.4290   -1.9371 C   0  0  0  0  0  0  0  0  0  0  0  0
  1  2  1  0
  2  3  1  0
  3  4  1  0
  4  5  2  0
  4  6  1  0
  6  7  1  0
  7  8  2  0
  8  9  1  0
  9 10  2  0
 10 11  1  0
 11 12  2  0
 12 13  1  0
 13 14  2  0
  8 15  1  0
 15 16  1  0
 16 17  1  0
 17 18  1  0
 18 19  2  0
 18 20  1  0
 20 21  1  0
 21 22  2  0
 22 23  1  0
 23 24  2  0
 24 25  1  0
 24 26  1  0
 26 27  2  0
 15 28  1  0
 28 29  1  0
 28  6  2  0
 14  9  1  0
 27 21  1  0
M  END
>  <zinc_id>  (1) 
ZINC000002928837

>  <smiles>  (1) 
CCOC(=O)c1cc(-c2ccccc2)n(CCC(=O)Nc2ccc(C)cc2)c1C

$$$$
