
     RDKit          3D

 29 31  0  0  0  0  0  0  0  0999 V2000
   -4.5393    0.3640    3.0605 C   0  0  0  0  0  0  0  0  0  0  0  0
   -3.8105   -0.8873    2.6676 C   0  0  0  0  0  0  0  0  0  0  0  0
   -4.1920   -1.2563    1.2841 C   0  0  0  0  0  0  0  0  0  0  0  0
   -5.1207   -2.2906    1.0660 C   0  0  0  0  0  0  0  0  0  0  0  0
   -5.4794   -2.6611   -0.2106 C   0  0  0  0  0  0  0  0  0  0  0  0
   -4.9067   -1.9938   -1.2713 C   0  0  0  0  0  0  0  0  0  0  0  0
   -3.9772   -0.9580   -1.0576 C   0  0  0  0  0  0  0  0  0  0  0  0
   -3.3577   -0.2687   -2.2138 C   0  0  0  0  0  0  0  0  0  0  0  0
   -4.0342    1.0590   -2.3985 C   0  0  0  0  0  0  0  0  0  0  0  0
   -3.6145   -0.5820    0.2183 C   0  0  0  0  0  0  0  0  0  0  0  0
   -2.6691    0.4508    0.3885 N   0  0  0  0  0  0  0  0  0  0  0  0
   -2.9424    1.8165    0.5413 C   0  0  0  0  0  0  0  0  0  0  0  0
   -4.1222    2.2218    0.5378 O   0  0  0  0  0  0  0  0  0  0  0  0
   -1.8561    2.8005    0.7078 C   0  0  0  0  0  0  0  0  0  0  0  0
   -0.5670    2.2832    0.7040 O   0  0  0  0  0  0  0  0  0  0  0  0
    0.0131    1.5661   -0.3297 C   0  0  0  0  0  0  0  0  0  0  0  0
   -0.6967    1.3659   -1.3484 O   0  0  0  0  0  0  0  0  0  0  0  0
    1.3702    1.0538   -0.2800 C   0  0  0  0  0  0  0  0  0  0  0  0
    1.8709    0.3289   -1.3419 C   0  0  0  0  0  0  0  0  0  0  0  0
    3.1523   -0.1687   -1.3425 C   0  0  0  0  0  0  0  0  0  0  0  0
    3.9874    0.0468   -0.2630 C   0  0  0  0  0  0  0  0  0  0  0  0
    5.3316   -0.5164   -0.3355 C   0  0  0  0  0  0  0  0  0  0  0  0
    5.5925   -1.6935   -1.0016 C   0  0  0  0  0  0  0  0  0  0  0  0
    6.8601   -2.2420   -1.0875 C   0  0  0  0  0  0  0  0  0  0  0  0
    7.8949   -1.5718   -0.4756 C   0  0  0  0  0  0  0  0  0  0  0  0
    7.6786   -0.4009    0.1963 C   0  0  0  0  0  0  0  0  0  0  0  0
    6.4024    0.1174    0.2614 C   0  0  0  0  0  0  0  0  0  0  0  0
    3.5158    0.7619    0.8025 C   0  0  0  0  0  0  0  0  0  0  0  0
    2.2160    1.2546    0.7797 C   0  0  0  0  0  0  0  0  0  0  0  0
  1  2  1  0
  2  3  1  0
  3  4  2  0
  4  5  1  0
  5  6  2  0
  6  7  1  0
  7  8  1  0
  8  9  1  0
  7 10  2  0
 10 11  1  0
 11 12  1  0
 12 13  2  0
 12 14  1  0
 14 15  1  0
 15 16  1  0
 16 17  2  0
 16 18  1  0
 18 19  2  0
 19 20  1  0
 20 21  2  0
 21 22  1  0
 22 23  2  0
 23 24  1  0
 24 25  2  0
 25 26  1  0
 26 27  2  0
 21 28  1  0
 28 29  2  0
 10  3  1  0
 29 18  1  0
 27 22  1  0
M  END
>  <zinc_id>  (1) 
ZINC000001993592

>  <smiles>  (1) 
CCc1cccc(CC)c1NC(=O)COC(=O)c1ccc(-c2ccccc2)cc1

$$$$
