
     RDKit          3D

 30 33  0  0  0  0  0  0  0  0999 V2000
    8.5008    1.7763    0.8194 C   0  0  0  0  0  0  0  0  0  0  0  0
    7.6752    1.5938    1.9516 O   0  0  0  0  0  0  0  0  0  0  0  0
    6.3619    1.1289    1.7642 C   0  0  0  0  0  0  0  0  0  0  0  0
    5.5501    0.9479    2.8590 C   0  0  0  0  0  0  0  0  0  0  0  0
    4.2683    0.4896    2.6252 C   0  0  0  0  0  0  0  0  0  0  0  0
    3.8032    0.2200    1.3633 C   0  0  0  0  0  0  0  0  0  0  0  0
    2.4182   -0.2648    1.2257 C   0  0  0  0  0  0  0  0  0  0  0  0
    1.8719   -1.0361    2.2268 C   0  0  0  0  0  0  0  0  0  0  0  0
    0.6174   -1.5081    2.1617 N   0  0  0  0  0  0  0  0  0  0  0  0
   -0.1143   -1.2113    1.0827 C   0  0  0  0  0  0  0  0  0  0  0  0
    0.3739   -0.4454    0.0483 C   0  0  0  0  0  0  0  0  0  0  0  0
   -0.4988   -0.1585   -1.1174 C   0  0  0  0  0  0  0  0  0  0  0  0
   -1.7843   -0.6389   -1.1896 C   0  0  0  0  0  0  0  0  0  0  0  0
   -2.6340   -0.4019   -2.2486 C   0  0  0  0  0  0  0  0  0  0  0  0
   -3.9637   -0.8825   -2.3513 N   0  0  0  0  0  0  0  0  0  0  0  0
   -4.3557   -1.7377   -1.0698 C   0  0  2  0  0  0  0  0  0  0  0  0
   -5.9004   -2.0470   -1.6583 C   0  0  0  0  0  0  0  0  0  0  0  0
   -4.8006   -0.4993   -0.2002 C   0  0  0  0  0  0  0  0  0  0  0  0
   -5.5711    0.4768   -0.7133 C   0  0  0  0  0  0  0  0  0  0  0  0
   -5.9380    1.5488    0.0923 C   0  0  0  0  0  0  0  0  0  0  0  0
   -5.4889    1.5484    1.3748 C   0  0  0  0  0  0  0  0  0  0  0  0
   -4.7036    0.5697    1.9260 C   0  0  0  0  0  0  0  0  0  0  0  0
   -4.3521   -0.5029    1.0751 C   0  0  0  0  0  0  0  0  0  0  0  0
   -2.1519    0.3426   -3.2506 N   0  0  0  0  0  0  0  0  0  0  0  0
   -0.8892    0.8325   -3.2124 C   0  0  0  0  0  0  0  0  0  0  0  0
   -0.3745    1.6519   -4.3266 C   0  0  0  0  0  0  0  0  0  0  0  0
   -0.0711    0.5811   -2.1508 N   0  0  0  0  0  0  0  0  0  0  0  0
    1.6478    0.0293    0.1225 C   0  0  0  0  0  0  0  0  0  0  0  0
    4.6106    0.4004    0.2775 C   0  0  0  0  0  0  0  0  0  0  0  0
    5.8930    0.8571    0.4928 C   0  0  0  0  0  0  0  0  0  0  0  0
  1  2  1  0
  2  3  1  0
  3  4  2  0
  4  5  1  0
  5  6  2  0
  6  7  1  0
  7  8  2  0
  8  9  1  0
  9 10  2  0
 10 11  1  0
 11 12  1  0
 12 13  2  0
 13 14  1  0
 14 15  1  0
 15 16  1  0
 16 17  1  6
 16 18  1  0
 18 19  2  0
 19 20  1  0
 20 21  2  0
 21 22  1  0
 22 23  2  0
 14 24  2  0
 24 25  1  0
 25 26  1  0
 25 27  2  0
 11 28  2  0
  6 29  1  0
 29 30  2  0
 30  3  1  0
 28  7  1  0
 27 12  1  0
 23 18  1  0
M  END
>  <zinc_id>  (1) 
ZINC000001497280

>  <smiles>  (1) 
COc1ccc(-c2cncc(-c3cc(N[C@H](C)c4ccccc4)nc(C)n3)c2)cc1

$$$$
