
     RDKit          3D

 31 34  0  0  0  0  0  0  0  0999 V2000
   -7.0062   -2.5574   -3.0153 C   0  0  0  0  0  0  0  0  0  0  0  0
   -7.1410   -3.7936   -2.1404 C   0  0  0  0  0  0  0  0  0  0  0  0
   -7.0707   -3.2986   -0.7781 O   0  0  0  0  0  0  0  0  0  0  0  0
   -5.8602   -2.5817   -0.4804 C   0  0  0  0  0  0  0  0  0  0  0  0
   -4.9142   -2.3973   -1.4312 C   0  0  0  0  0  0  0  0  0  0  0  0
   -3.7325   -1.6990   -1.1255 C   0  0  0  0  0  0  0  0  0  0  0  0
   -3.5230   -1.1938    0.1529 C   0  0  0  0  0  0  0  0  0  0  0  0
   -2.2622   -0.4823    0.3898 C   0  0  0  0  0  0  0  0  0  0  0  0
   -1.3724   -0.2361   -0.6306 C   0  0  0  0  0  0  0  0  0  0  0  0
   -0.1971    0.4019   -0.3508 C   0  0  0  0  0  0  0  0  0  0  0  0
    0.8585    0.6895   -1.3005 C   0  0  0  0  0  0  0  0  0  0  0  0
    0.9562    1.8113   -1.9010 O   0  0  0  0  0  0  0  0  0  0  0  0
    1.8215   -0.2718   -1.6012 N   0  0  0  0  0  0  0  0  0  0  0  0
    2.9367   -0.1927   -2.4856 C   0  0  0  0  0  0  0  0  0  0  0  0
    4.0761    0.5046   -1.8384 C   0  0  0  0  0  0  0  0  0  0  0  0
    5.0934    1.1274   -2.5519 C   0  0  0  0  0  0  0  0  0  0  0  0
    6.1605    1.7509   -1.9718 C   0  0  0  0  0  0  0  0  0  0  0  0
    6.2925    1.8005   -0.6043 C   0  0  0  0  0  0  0  0  0  0  0  0
    7.2844    2.3770    0.1149 O   0  0  0  0  0  0  0  0  0  0  0  0
    8.4130    3.0657   -0.3985 C   0  0  0  0  0  0  0  0  0  0  0  0
    5.2644    1.1724    0.1438 C   0  0  0  0  0  0  0  0  0  0  0  0
    4.2128    0.5566   -0.4565 C   0  0  0  0  0  0  0  0  0  0  0  0
    0.0597    0.7852    0.9692 C   0  0  0  0  0  0  0  0  0  0  0  0
    1.2205    1.4339    1.3451 C   0  0  0  0  0  0  0  0  0  0  0  0
    1.4860    1.8162    2.6236 C   0  0  0  0  0  0  0  0  0  0  0  0
    0.5542    1.5537    3.6422 C   0  0  0  0  0  0  0  0  0  0  0  0
   -0.6055    0.9105    3.2981 C   0  0  0  0  0  0  0  0  0  0  0  0
   -0.8511    0.5331    1.9948 C   0  0  0  0  0  0  0  0  0  0  0  0
   -1.9867   -0.1002    1.6448 N   0  0  0  0  0  0  0  0  0  0  0  0
   -4.4939   -1.3959    1.0907 C   0  0  0  0  0  0  0  0  0  0  0  0
   -5.6739   -2.0901    0.7893 C   0  0  0  0  0  0  0  0  0  0  0  0
  1  2  1  0
  2  3  1  0
  3  4  1  0
  4  5  2  0
  5  6  1  0
  6  7  2  0
  7  8  1  0
  8  9  2  0
  9 10  1  0
 10 11  1  0
 11 12  2  0
 11 13  1  0
 13 14  1  0
 14 15  1  0
 15 16  2  0
 16 17  1  0
 17 18  2  0
 18 19  1  0
 19 20  1  0
 18 21  1  0
 21 22  2  0
 10 23  2  0
 23 24  1  0
 24 25  2  0
 25 26  1  0
 26 27  2  0
 27 28  1  0
 28 29  2  0
  7 30  1  0
 30 31  2  0
 31  4  1  0
 29  8  1  0
 22 15  1  0
 28 23  1  0
M  END
>  <zinc_id>  (1) 
ZINC000003045000

>  <smiles>  (1) 
CCOc1ccc(-c2cc(C(=O)NCc3ccc(OC)cc3)c3ccccc3n2)cc1

$$$$
