
     RDKit          3D

 21 23  0  0  0  0  0  0  0  0999 V2000
   -0.3058    3.6405   -2.1255 C   0  0  0  0  0  0  0  0  0  0  0  0
   -1.4808    3.0486   -1.6713 O   0  0  0  0  0  0  0  0  0  0  0  0
   -1.4407    1.8497   -0.9821 C   0  0  0  0  0  0  0  0  0  0  0  0
   -2.6014    1.2332   -0.5144 C   0  0  0  0  0  0  0  0  0  0  0  0
   -2.5748    0.0410    0.1709 C   0  0  0  0  0  0  0  0  0  0  0  0
   -3.7668   -0.5887    0.6524 N   0  0  0  0  0  4  0  0  0  0  0  0
   -3.7375   -1.2681    1.7004 O   0  0  0  0  0  0  0  0  0  0  0  0
   -4.9610   -0.4658   -0.0098 O   0  0  0  0  0  1  0  0  0  0  0  0
   -1.3511   -0.5536    0.3951 C   0  0  0  0  0  0  0  0  0  0  0  0
   -1.0161   -1.7120    1.0297 N   0  0  0  0  0  0  0  0  0  0  0  0
    0.3292   -1.8687    0.9903 C   0  0  0  0  0  0  0  0  0  0  0  0
    1.1580   -2.9748    1.5481 C   0  0  0  0  0  0  0  0  0  0  0  0
    0.8449   -0.7879    0.3182 C   0  0  0  0  0  0  0  0  0  0  0  0
    2.2329   -0.4797    0.0056 C   0  0  0  0  0  0  0  0  0  0  0  0
    2.8955   -1.0137   -1.0645 C   0  0  0  0  0  0  0  0  0  0  0  0
    4.2076   -0.6827   -1.2935 C   0  0  0  0  0  0  0  0  0  0  0  0
    4.9000    0.1842   -0.4734 C   0  0  0  0  0  0  0  0  0  0  0  0
    4.2022    0.7042    0.5954 C   0  0  0  0  0  0  0  0  0  0  0  0
    2.8916    0.3843    0.8394 C   0  0  0  0  0  0  0  0  0  0  0  0
   -0.2003    0.0564   -0.0679 C   0  0  0  0  0  0  0  0  0  0  0  0
   -0.2256    1.2535   -0.7554 C   0  0  0  0  0  0  0  0  0  0  0  0
  1  2  1  0
  2  3  1  0
  3  4  2  0
  4  5  1  0
  5  6  1  0
  6  7  2  0
  6  8  1  0
  5  9  2  0
  9 10  1  0
 10 11  1  0
 11 12  1  0
 11 13  2  0
 13 14  1  0
 14 15  2  0
 15 16  1  0
 16 17  2  0
 17 18  1  0
 18 19  2  0
 13 20  1  0
 20 21  2  0
 21  3  1  0
 20  9  1  0
 19 14  1  0
M  CHG  2   6   1   8  -1
M  END
>  <zinc_id>  (1) 
ZINC000000478414

>  <smiles>  (1) 
COc1cc([N+](=O)[O-])c2[nH]c(C)c(-c3ccccc3)c2c1

$$$$
