
     RDKit          3D

 19 21  0  0  0  0  0  0  0  0999 V2000
   -3.2149    2.0957   -0.8294 C   0  0  0  0  0  0  0  0  0  0  0  0
   -3.9352    0.6921   -0.5642 C   0  0  1  0  0  0  0  0  0  0  0  0
   -3.0127   -0.1884   -1.5425 C   0  0  0  0  0  0  0  0  0  0  0  0
   -3.7999   -1.5028   -1.5684 C   0  0  0  0  0  0  0  0  0  0  0  0
   -4.1887   -1.7402   -0.1115 C   0  0  0  0  0  0  0  0  0  0  0  0
   -3.0938   -1.2430    0.7097 C   0  0  0  0  0  0  0  0  0  0  0  0
   -3.1472    0.3600    0.8976 C   0  0  1  0  0  0  0  0  0  0  0  0
   -1.6961    0.6531    0.4668 N   0  0  0  0  0  0  0  0  0  0  0  0
   -0.6419   -0.1354    0.9278 C   0  0  0  0  0  0  0  0  0  0  0  0
   -1.0019   -1.0709    1.6969 O   0  0  0  0  0  0  0  0  0  0  0  0
    0.7672    0.0762    0.5681 C   0  0  0  0  0  0  0  0  0  0  0  0
    1.3323    0.9978   -0.2023 N   0  0  0  0  0  0  0  0  0  0  0  0
    2.6787    0.7729   -0.2155 C   0  0  0  0  0  0  0  0  0  0  0  0
    3.7442    1.3945   -0.8244 C   0  0  0  0  0  0  0  0  0  0  0  0
    5.0190    0.9027   -0.6262 C   0  0  0  0  0  0  0  0  0  0  0  0
    5.2902   -0.1951    0.1600 C   0  0  0  0  0  0  0  0  0  0  0  0
    4.2178   -0.8165    0.7719 C   0  0  0  0  0  0  0  0  0  0  0  0
    2.9432   -0.3278    0.5766 C   0  0  0  0  0  0  0  0  0  0  0  0
    1.7395   -0.7250    1.0385 N   0  0  0  0  0  0  0  0  0  0  0  0
  2  1  1  6
  2  3  1  0
  3  4  1  0
  4  5  1  0
  5  6  1  0
  6  7  1  0
  7  8  1  6
  8  9  1  0
  9 10  2  0
  9 11  1  0
 11 12  2  0
 12 13  1  0
 13 14  2  0
 14 15  1  0
 15 16  2  0
 16 17  1  0
 17 18  2  0
 18 19  1  0
  7  2  1  0
 19 11  1  0
 18 13  1  0
M  END
>  <zinc_id>  (1) 
ZINC000001446484

>  <smiles>  (1) 
C[C@H]1CCCC[C@H]1NC(=O)c1nc2ccccc2[nH]1

$$$$
