
     RDKit          3D

 20 21  0  0  0  0  0  0  0  0999 V2000
   -3.5529   -2.0537   -1.3304 C   0  0  0  0  0  0  0  0  0  0  0  0
   -3.2275   -0.4743   -1.5989 C   0  0  2  0  0  0  0  0  0  0  0  0
   -1.8683   -0.4889   -0.7102 C   0  0  0  0  0  0  0  0  0  0  0  0
   -1.6501    0.8998   -0.2459 C   0  0  0  0  0  0  0  0  0  0  0  0
   -0.5757    1.7400   -0.5886 N   0  0  0  0  0  0  0  0  0  0  0  0
    0.7624    1.2982   -0.5392 N   0  0  0  0  0  0  0  0  0  0  0  0
    1.2138    0.2867    0.3133 C   0  0  0  0  0  0  0  0  0  0  0  0
    0.3651   -0.2500    1.0735 O   0  0  0  0  0  0  0  0  0  0  0  0
    2.5984   -0.1697    0.3652 C   0  0  0  0  0  0  0  0  0  0  0  0
    2.9705   -1.1697    1.2515 C   0  0  0  0  0  0  0  0  0  0  0  0
    4.2685   -1.6150    1.3204 C   0  0  0  0  0  0  0  0  0  0  0  0
    5.2170   -1.0694    0.5066 C   0  0  0  0  0  0  0  0  0  0  0  0
    4.8896   -0.0593   -0.4020 C   0  0  0  0  0  0  0  0  0  0  0  0
    3.5689    0.3521   -0.4310 C   0  0  0  0  0  0  0  0  0  0  0  0
    3.1922    1.3427   -1.3065 F   0  0  0  0  0  0  0  0  0  0  0  0
   -2.5908    1.3444    0.5674 C   0  0  0  0  0  0  0  0  0  0  0  0
   -3.6533    0.2919    0.8054 C   0  0  0  0  0  0  0  0  0  0  0  0
   -4.6656    0.7434    1.7688 C   0  0  0  0  0  0  0  0  0  0  0  0
   -2.9868   -0.9966    1.2816 C   0  0  0  0  0  0  0  0  0  0  0  0
   -4.2753    0.0476   -0.4915 C   0  0  0  0  0  0  0  0  0  0  0  0
  2  1  1  1
  2  3  1  0
  3  4  1  0
  4  5  1  0
  5  6  1  0
  6  7  1  0
  7  8  2  0
  7  9  1  0
  9 10  2  0
 10 11  1  0
 11 12  2  0
 12 13  1  0
 13 14  2  0
 14 15  1  0
  4 16  2  0
 16 17  1  0
 17 18  1  0
 17 19  1  0
 17 20  1  0
 20  2  1  0
 14  9  1  0
M  END
>  <zinc_id>  (1) 
ZINC000003304263

>  <smiles>  (1) 
C[C@@H]1CC(NNC(=O)c2ccccc2F)=CC(C)(C)C1

$$$$
