
     RDKit          3D

 31 34  0  0  0  0  0  0  0  0999 V2000
    7.1910    3.2803    1.9767 C   0  0  0  0  0  0  0  0  0  0  0  0
    7.7130    2.0948    1.1844 C   0  0  0  0  0  0  0  0  0  0  0  0
    6.6532    1.0168    1.2449 C   0  0  0  0  0  0  0  0  0  0  0  0
    5.3648    1.5583    0.6311 C   0  0  0  0  0  0  0  0  0  0  0  0
    4.3513    0.4949    0.7010 N   0  0  0  0  0  0  0  0  0  0  0  0
    3.0424    0.6835    0.2116 C   0  0  0  0  0  0  0  0  0  0  0  0
    2.7584    1.7990   -0.2934 O   0  0  0  0  0  0  0  0  0  0  0  0
    2.0567   -0.3971    0.2968 C   0  0  0  0  0  0  0  0  0  0  0  0
    2.3585   -1.6224    0.8484 C   0  0  0  0  0  0  0  0  0  0  0  0
    1.4193   -2.6269    0.9202 C   0  0  0  0  0  0  0  0  0  0  0  0
    0.1307   -2.4580    0.4444 C   0  0  0  0  0  0  0  0  0  0  0  0
   -0.1833   -1.2352   -0.1101 C   0  0  0  0  0  0  0  0  0  0  0  0
    0.7736   -0.2327   -0.1756 C   0  0  0  0  0  0  0  0  0  0  0  0
   -1.4400   -0.8225   -0.6660 N   0  0  0  0  0  0  0  0  0  0  0  0
   -1.3383    0.1988   -1.6690 C   0  0  0  0  0  0  0  0  0  0  0  0
   -1.4083    1.5660   -1.1049 C   0  0  0  0  0  0  0  0  0  0  0  0
   -1.5534    1.8555    0.2156 C   0  0  0  0  0  0  0  0  0  0  0  0
   -1.6102    3.1591    0.6616 C   0  0  0  0  0  0  0  0  0  0  0  0
   -1.5233    4.2327   -0.2041 C   0  0  0  0  0  0  0  0  0  0  0  0
   -1.5867    5.6279    0.2976 C   0  0  0  0  0  0  0  0  0  0  0  0
   -1.3759    3.9319   -1.5454 C   0  0  0  0  0  0  0  0  0  0  0  0
   -1.3177    2.6173   -2.0041 C   0  0  0  0  0  0  0  0  0  0  0  0
   -2.7660   -1.2511   -0.3923 C   0  0  0  0  0  0  0  0  0  0  0  0
   -3.7199   -0.6875   -1.0175 O   0  0  0  0  0  0  0  0  0  0  0  0
   -3.2327   -2.2783    0.5304 C   0  0  0  0  0  0  0  0  0  0  0  0
   -4.5322   -2.0654    0.9440 C   0  0  0  0  0  0  0  0  0  0  0  0
   -5.1574   -2.9270    1.8198 C   0  0  0  0  0  0  0  0  0  0  0  0
   -4.4706   -4.0159    2.2866 C   0  0  0  0  0  0  0  0  0  0  0  0
   -3.1717   -4.2204    1.8674 C   0  0  0  0  0  0  0  0  0  0  0  0
   -2.5437   -3.3623    0.9928 C   0  0  0  0  0  0  0  0  0  0  0  0
   -0.8815   -3.9140    0.6594 S   0  0  0  0  0  0  0  0  0  0  0  0
  1  2  1  0
  2  3  1  0
  3  4  1  0
  4  5  1  0
  5  6  1  0
  6  7  2  0
  6  8  1  0
  8  9  2  0
  9 10  1  0
 10 11  2  0
 11 12  1  0
 12 13  2  0
 12 14  1  0
 14 15  1  0
 15 16  1  0
 16 17  2  0
 17 18  1  0
 18 19  2  0
 19 20  1  0
 19 21  1  0
 21 22  2  0
 14 23  1  0
 23 24  2  0
 23 25  1  0
 25 26  2  0
 26 27  1  0
 27 28  2  0
 28 29  1  0
 29 30  2  0
 30 31  1  0
 13  8  1  0
 22 16  1  0
 30 25  1  0
 31 11  1  0
M  END
>  <zinc_id>  (1) 
ZINC000003040157

>  <smiles>  (1) 
CCCCNC(=O)c1ccc2c(c1)N(Cc1ccc(C)cc1)C(=O)c1ccccc1S2

$$$$
