
     RDKit          3D

 32 35  0  0  0  0  0  0  0  0999 V2000
    6.1470   -2.1274    1.9455 C   0  0  0  0  0  0  0  0  0  0  0  0
    4.8447   -2.8506    1.8079 C   0  0  0  0  0  0  0  0  0  0  0  0
    5.1051   -4.2353    1.3134 C   0  0  0  0  0  0  0  0  0  0  0  0
    3.9793   -2.1813    0.7616 C   0  0  0  0  0  0  0  0  0  0  0  0
    2.6807   -1.8909    1.0846 C   0  0  0  0  0  0  0  0  0  0  0  0
    1.8305   -1.2714    0.1581 C   0  0  0  0  0  0  0  0  0  0  0  0
    2.3517   -0.9828   -1.0457 C   0  0  0  0  0  0  0  0  0  0  0  0
    1.5069   -0.2982   -2.1881 C   0  0  2  0  0  0  0  0  0  0  0  0
    2.5228    0.7726   -2.5591 O   0  0  0  0  0  0  0  0  0  0  0  0
    2.7863    1.3129   -1.3580 N   0  0  0  0  0  0  0  0  0  0  0  0
    1.4626    1.5858   -0.8278 C   0  0  0  0  0  0  0  0  0  0  0  0
    1.1048    2.6959    0.0564 C   0  0  0  0  0  0  0  0  0  0  0  0
    2.0064    3.0763    1.0377 C   0  0  0  0  0  0  0  0  0  0  0  0
    1.7671    4.1122    1.9176 C   0  0  0  0  0  0  0  0  0  0  0  0
    0.5887    4.8246    1.8479 C   0  0  0  0  0  0  0  0  0  0  0  0
   -0.3156    4.4625    0.8832 C   0  0  0  0  0  0  0  0  0  0  0  0
   -0.0497    3.4219    0.0163 C   0  0  0  0  0  0  0  0  0  0  0  0
    0.6341    0.6958   -1.2558 C   0  0  0  0  0  0  0  0  0  0  0  0
   -0.7875    0.4580   -1.0576 C   0  0  0  0  0  0  0  0  0  0  0  0
   -1.5413    1.1601   -0.3519 O   0  0  0  0  0  0  0  0  0  0  0  0
   -1.4383   -0.6337   -1.6797 N   0  0  0  0  0  0  0  0  0  0  0  0
   -2.8508   -0.8197   -1.4447 C   0  0  0  0  0  0  0  0  0  0  0  0
   -3.0175   -1.0146    0.0422 C   0  0  0  0  0  0  0  0  0  0  0  0
   -4.4310   -1.2115    0.3690 C   0  0  0  0  0  0  0  0  0  0  0  0
   -4.9501   -2.4409    0.6671 C   0  0  0  0  0  0  0  0  0  0  0  0
   -6.2752   -2.6391    0.9755 C   0  0  0  0  0  0  0  0  0  0  0  0
   -7.1115   -1.5481    0.9830 C   0  0  0  0  0  0  0  0  0  0  0  0
   -6.6139   -0.2881    0.6847 C   0  0  0  0  0  0  0  0  0  0  0  0
   -5.2706   -0.1167    0.3767 C   0  0  0  0  0  0  0  0  0  0  0  0
   -4.8168    1.1246    0.0896 F   0  0  0  0  0  0  0  0  0  0  0  0
    3.6321   -1.2658   -1.3727 C   0  0  0  0  0  0  0  0  0  0  0  0
    4.5189   -1.8875   -0.4714 C   0  0  0  0  0  0  0  0  0  0  0  0
  1  2  1  0
  2  3  1  0
  2  4  1  0
  4  5  2  0
  5  6  1  0
  6  7  2  0
  8  7  1  1
  8  9  1  0
  9 10  1  0
 10 11  1  0
 11 12  1  0
 12 13  2  0
 13 14  1  0
 14 15  2  0
 15 16  1  0
 16 17  2  0
 11 18  2  0
 18 19  1  0
 19 20  2  0
 19 21  1  0
 21 22  1  0
 22 23  1  0
 23 24  1  0
 24 25  2  0
 25 26  1  0
 26 27  2  0
 27 28  1  0
 28 29  2  0
 29 30  1  0
  7 31  1  0
 31 32  2  0
 32  4  1  0
 18  8  1  0
 29 24  1  0
 17 12  1  0
M  END
>  <zinc_id>  (1) 
ZINC000002460680

>  <smiles>  (1) 
CC(C)c1ccc([C@@H]2ONC(c3ccccc3)=C2C(=O)NCCc2ccccc2F)cc1

$$$$
