
     RDKit          3D

 21 22  0  0  0  0  0  0  0  0999 V2000
    3.4801    0.6332    2.5216 C   0  0  0  0  0  0  0  0  0  0  0  0
    2.9432    0.3224    1.1496 C   0  0  0  0  0  0  0  0  0  0  0  0
    1.5912    0.2313    0.9122 C   0  0  0  0  0  0  0  0  0  0  0  0
    1.1252   -0.0536   -0.3504 C   0  0  0  0  0  0  0  0  0  0  0  0
   -0.2871   -0.1644   -0.6686 C   0  0  0  0  0  0  0  0  0  0  0  0
   -0.6756   -0.3887   -1.8412 O   0  0  0  0  0  0  0  0  0  0  0  0
   -1.2816   -0.0235    0.3341 N   0  0  0  0  0  0  0  0  0  0  0  0
   -2.6713   -0.1295    0.0389 C   0  0  0  0  0  0  0  0  0  0  0  0
   -3.0338   -0.3738   -1.2803 C   0  0  0  0  0  0  0  0  0  0  0  0
   -4.3713   -0.4776   -1.5787 C   0  0  0  0  0  0  0  0  0  0  0  0
   -5.3174   -0.3434   -0.6006 C   0  0  0  0  0  0  0  0  0  0  0  0
   -4.9909   -0.0970    0.7382 C   0  0  0  0  0  0  0  0  0  0  0  0
   -6.0118    0.0480    1.8007 C   0  0  0  0  0  0  0  0  0  0  0  0
   -3.6392   -0.0004    0.9927 C   0  0  0  0  0  0  0  0  0  0  0  0
   -3.1995    0.2598    2.3810 C   0  0  0  0  0  0  0  0  0  0  0  0
    2.0469   -0.2371   -1.3310 C   0  0  0  0  0  0  0  0  0  0  0  0
    3.4046   -0.1555   -1.1385 C   0  0  0  0  0  0  0  0  0  0  0  0
    3.8604    0.1356    0.1534 C   0  0  0  0  0  0  0  0  0  0  0  0
    5.2598    0.2119    0.3179 N   0  0  0  0  0  4  0  0  0  0  0  0
    6.0210   -0.4235   -0.4160 O   0  0  0  0  0  0  0  0  0  0  0  0
    5.7470    1.0257    1.3338 O   0  0  0  0  0  1  0  0  0  0  0  0
  1  2  1  0
  2  3  2  0
  3  4  1  0
  4  5  1  0
  5  6  2  0
  5  7  1  0
  7  8  1  0
  8  9  2  0
  9 10  1  0
 10 11  2  0
 11 12  1  0
 12 13  1  0
 12 14  2  0
 14 15  1  0
  4 16  2  0
 16 17  1  0
 17 18  2  0
 18 19  1  0
 19 20  2  0
 19 21  1  0
 18  2  1  0
 14  8  1  0
M  CHG  2  19   1  21  -1
M  END
>  <zinc_id>  (1) 
ZINC000000437295

>  <smiles>  (1) 
Cc1cc(C(=O)Nc2cccc(C)c2C)ccc1[N+](=O)[O-]

$$$$
