
     RDKit          3D

 19 22  0  0  0  0  0  0  0  0999 V2000
    6.4175   -0.8877    0.5787 N   0  0  0  0  0  0  0  0  0  0  0  0
    5.0304   -0.6114    0.4137 C   0  0  0  0  0  0  0  0  0  0  0  0
    4.5997    0.3352   -0.4940 C   0  0  0  0  0  0  0  0  0  0  0  0
    3.2621    0.6232   -0.6746 C   0  0  0  0  0  0  0  0  0  0  0  0
    2.2939   -0.0313    0.0533 C   0  0  0  0  0  0  0  0  0  0  0  0
    0.8625    0.2707   -0.1339 C   0  0  0  0  0  0  0  0  0  0  0  0
   -0.1978   -0.3011    0.5192 C   0  0  0  0  0  0  0  0  0  0  0  0
   -1.3890    0.2380    0.0771 N   0  0  0  0  0  0  0  0  0  0  0  0
   -2.6808    0.0944    0.3222 C   0  0  0  0  0  0  0  0  0  0  0  0
   -3.5512    0.8697   -0.3802 C   0  0  0  0  0  0  0  0  0  0  0  0
   -2.4983    1.7783   -1.3677 S   0  0  0  0  0  0  0  0  0  0  0  0
   -1.0166    1.1200   -0.8300 C   0  0  0  0  0  0  0  0  0  0  0  0
    0.3421    1.1669   -0.9843 N   0  0  0  0  0  0  0  0  0  0  0  0
   -5.0358    0.7391   -0.1329 C   0  0  0  0  0  0  0  0  0  0  0  0
   -5.3576   -0.7278   -0.2402 C   0  0  0  0  0  0  0  0  0  0  0  0
   -4.4666   -1.6011    0.5895 C   0  0  0  0  0  0  0  0  0  0  0  0
   -3.3771   -0.8369    1.3026 C   0  0  0  0  0  0  0  0  0  0  0  0
    2.7115   -0.9783    0.9624 C   0  0  0  0  0  0  0  0  0  0  0  0
    4.0511   -1.2599    1.1365 C   0  0  0  0  0  0  0  0  0  0  0  0
  1  2  1  0
  2  3  2  0
  3  4  1  0
  4  5  2  0
  5  6  1  0
  6  7  2  0
  7  8  1  0
  8  9  1  0
  9 10  2  0
 10 11  1  0
 11 12  1  0
 12 13  2  0
 10 14  1  0
 14 15  1  0
 15 16  1  0
 16 17  1  0
  5 18  1  0
 18 19  2  0
 19  2  1  0
 13  6  1  0
 12  8  1  0
 17  9  1  0
M  END
>  <zinc_id>  (1) 
ZINC000004025542

>  <smiles>  (1) 
Nc1ccc(-c2cn3c4c(sc3n2)CCCC4)cc1

$$$$
