
     RDKit          3D

 30 33  0  0  0  0  0  0  0  0999 V2000
    7.2445   -1.3761    2.2008 C   0  0  0  0  0  0  0  0  0  0  0  0
    7.3499   -1.4274    0.6751 C   0  0  0  0  0  0  0  0  0  0  0  0
    6.7538   -0.1211    0.1721 C   0  0  0  0  0  0  0  0  0  0  0  0
    5.3154   -0.0401    0.6282 C   0  0  0  0  0  0  0  0  0  0  0  0
    4.6025   -1.2494    0.0208 C   0  0  0  0  0  0  0  0  0  0  0  0
    3.2405   -1.2646    0.3914 O   0  0  0  0  0  0  0  0  0  0  0  0
    2.4168   -0.2024    0.0438 C   0  0  0  0  0  0  0  0  0  0  0  0
    2.9339    0.7401   -0.5967 O   0  0  0  0  0  0  0  0  0  0  0  0
    1.0087   -0.2201    0.4281 C   0  0  0  0  0  0  0  0  0  0  0  0
    0.3609   -1.2092    1.1283 C   0  0  0  0  0  0  0  0  0  0  0  0
    0.8945   -2.4237    1.6342 N   0  0  0  0  0  0  0  0  0  0  0  0
   -0.9048   -0.8283    1.2619 N   0  0  0  0  0  0  0  0  0  0  0  0
   -1.9554   -1.7019    2.0089 C   0  0  1  0  0  0  0  0  0  0  0  0
   -2.8296   -0.4922    2.6703 C   0  0  0  0  0  0  0  0  0  0  0  0
   -2.8454   -1.9371    0.7092 C   0  0  0  0  0  0  0  0  0  0  0  0
   -2.5087   -3.0718   -0.0013 C   0  0  0  0  0  0  0  0  0  0  0  0
   -3.2008   -3.3881   -1.1458 C   0  0  0  0  0  0  0  0  0  0  0  0
   -4.2241   -2.5680   -1.5713 C   0  0  0  0  0  0  0  0  0  0  0  0
   -4.5191   -1.4467   -0.8235 C   0  0  0  0  0  0  0  0  0  0  0  0
   -3.8132   -1.1483    0.3199 C   0  0  0  0  0  0  0  0  0  0  0  0
   -1.0843    0.3174    0.6984 C   0  0  0  0  0  0  0  0  0  0  0  0
   -2.1711    1.1108    0.5645 N   0  0  0  0  0  0  0  0  0  0  0  0
   -2.1045    2.2934   -0.0841 C   0  0  0  0  0  0  0  0  0  0  0  0
   -3.2090    3.1141   -0.2279 C   0  0  0  0  0  0  0  0  0  0  0  0
   -3.1908    4.3289   -0.8808 C   0  0  0  0  0  0  0  0  0  0  0  0
   -2.0004    4.7634   -1.4295 C   0  0  0  0  0  0  0  0  0  0  0  0
   -0.8761    3.9665   -1.3036 C   0  0  0  0  0  0  0  0  0  0  0  0
   -0.9251    2.7525   -0.6430 C   0  0  0  0  0  0  0  0  0  0  0  0
    0.1564    1.9632   -0.5098 N   0  0  0  0  0  0  0  0  0  0  0  0
    0.0847    0.7659    0.1480 C   0  0  0  0  0  0  0  0  0  0  0  0
  1  2  1  0
  2  3  1  0
  3  4  1  0
  4  5  1  0
  5  6  1  0
  6  7  1  0
  7  8  2  0
  7  9  1  0
  9 10  2  0
 10 11  1  0
 10 12  1  0
 12 13  1  0
 13 14  1  1
 13 15  1  0
 15 16  2  0
 16 17  1  0
 17 18  2  0
 18 19  1  0
 19 20  2  0
 12 21  1  0
 21 22  2  0
 22 23  1  0
 23 24  2  0
 24 25  1  0
 25 26  2  0
 26 27  1  0
 27 28  2  0
 28 29  1  0
 29 30  2  0
 30  9  1  0
 20 15  1  0
 30 21  1  0
 28 23  1  0
M  END
>  <zinc_id>  (1) 
ZINC000003222183

>  <smiles>  (1) 
CCCCCOC(=O)c1c(N)n([C@@H](C)c2ccccc2)c2nc3ccccc3nc12

$$$$
