
     RDKit          3D

 21 23  0  0  0  0  0  0  0  0999 V2000
   -0.2101    1.3032   -1.2387 C   0  0  0  0  0  0  0  0  0  0  0  0
   -0.5579    0.4449   -0.0670 C   0  0  2  0  0  0  0  0  0  0  0  0
   -0.2307    0.9805    1.1492 O   0  0  0  0  0  0  0  0  0  0  0  0
   -0.0268   -0.9308   -0.1750 N   0  0  0  0  0  0  0  0  0  0  0  0
    0.9060   -1.6154    0.6101 C   0  0  0  0  0  0  0  0  0  0  0  0
    2.2851   -1.6053    0.1518 C   0  0  0  0  0  0  0  0  0  0  0  0
    2.9123   -0.2836    0.0471 C   0  0  0  0  0  0  0  0  0  0  0  0
    2.9487    0.4164   -1.1361 C   0  0  0  0  0  0  0  0  0  0  0  0
    3.5044    1.6411   -1.3307 C   0  0  0  0  0  0  0  0  0  0  0  0
    4.0960    2.2450   -0.2151 C   0  0  0  0  0  0  0  0  0  0  0  0
    4.0907    1.5918    0.9984 C   0  0  0  0  0  0  0  0  0  0  0  0
    3.5112    0.3502    1.1337 C   0  0  0  0  0  0  0  0  0  0  0  0
   -0.7907   -1.4441   -1.3035 C   0  0  0  0  0  0  0  0  0  0  0  0
   -0.3482   -2.3610   -2.0353 O   0  0  0  0  0  0  0  0  0  0  0  0
   -1.9883   -0.7397   -1.3503 O   0  0  0  0  0  0  0  0  0  0  0  0
   -2.0558    0.0609   -0.1594 C   0  0  0  0  0  0  0  0  0  0  0  0
   -2.3663   -0.7725    1.0345 C   0  0  0  0  0  0  0  0  0  0  0  0
   -3.8115   -1.1707    1.1026 C   0  0  0  0  0  0  0  0  0  0  0  0
   -4.6487   -0.4316    0.0731 C   0  0  0  0  0  0  0  0  0  0  0  0
   -4.3178    1.0436    0.1013 C   0  0  0  0  0  0  0  0  0  0  0  0
   -2.9015    1.2770   -0.3284 C   0  0  0  0  0  0  0  0  0  0  0  0
  2  1  1  6
  2  3  1  0
  2  4  1  0
  4  5  1  0
  5  6  1  0
  6  7  1  0
  7  8  2  0
  8  9  1  0
  9 10  2  0
 10 11  1  0
 11 12  2  0
  4 13  1  0
 13 14  2  0
 13 15  1  0
 15 16  1  0
 16 17  1  0
 17 18  1  0
 18 19  1  0
 19 20  1  0
 20 21  1  0
 16  2  1  0
 12  7  1  0
 21 16  1  0
M  END
>  <zinc_id>  (1) 
ZINC000000049314

>  <smiles>  (1) 
C[C@]1(O)N(CCc2ccccc2)C(=O)OC12CCCCC2

$$$$
