
     RDKit          3D

 20 22  0  0  0  0  0  0  0  0999 V2000
    5.6414    1.5559   -0.7291 C   0  0  0  0  0  0  0  0  0  0  0  0
    4.3570    0.8845    0.0191 C   0  0  1  0  0  0  0  0  0  0  0  0
    3.2733    1.9131   -0.7067 C   0  0  0  0  0  0  0  0  0  0  0  0
    2.0275    1.3386   -0.1320 C   0  0  0  0  0  0  0  0  0  0  0  0
    1.1819    1.9898    0.5171 O   0  0  0  0  0  0  0  0  0  0  0  0
    1.7665   -0.0892   -0.3306 C   0  0  0  0  0  0  0  0  0  0  0  0
    0.7299   -0.9341   -0.1254 C   0  0  0  0  0  0  0  0  0  0  0  0
   -0.6166   -0.5919    0.3153 C   0  0  0  0  0  0  0  0  0  0  0  0
   -0.9007   -0.3308    1.5127 O   0  0  0  0  0  0  0  0  0  0  0  0
   -1.7345   -0.5385   -0.5902 N   0  0  0  0  0  0  0  0  0  0  0  0
   -3.0453   -0.2492   -0.2297 C   0  0  0  0  0  0  0  0  0  0  0  0
   -4.0640   -0.3244   -1.1310 C   0  0  0  0  0  0  0  0  0  0  0  0
   -5.3960   -0.0478   -0.7911 C   0  0  0  0  0  0  0  0  0  0  0  0
   -5.6897    0.3193    0.5158 C   0  0  0  0  0  0  0  0  0  0  0  0
   -4.6731    0.3968    1.4139 C   0  0  0  0  0  0  0  0  0  0  0  0
   -3.3616    0.1177    1.0569 C   0  0  0  0  0  0  0  0  0  0  0  0
    1.1236   -2.2227   -0.4776 C   0  0  0  0  0  0  0  0  0  0  0  0
    2.3949   -2.0928   -0.8878 N   0  0  0  0  0  0  0  0  0  0  0  0
    2.8343   -0.8390   -0.8239 C   0  0  0  0  0  0  0  0  0  0  0  0
    4.1513   -0.2552   -1.1668 C   0  0  0  0  0  0  0  0  0  0  0  0
  2  1  1  6
  2  3  1  0
  3  4  1  0
  4  5  2  0
  4  6  1  0
  6  7  1  0
  7  8  1  0
  8  9  2  0
  8 10  1  0
 10 11  1  0
 11 12  2  0
 12 13  1  0
 13 14  2  0
 14 15  1  0
 15 16  2  0
  7 17  2  0
 17 18  1  0
 18 19  1  0
 19 20  1  0
 20  2  1  0
 19  6  2  0
 16 11  1  0
M  END
>  <zinc_id>  (1) 
ZINC000000022649

>  <smiles>  (1) 
C[C@H]1CC(=O)c2c(C(=O)Nc3ccccc3)c[nH]c2C1

$$$$
