
     RDKit          3D

 33 36  0  0  0  0  0  0  0  0999 V2000
    8.6434   -0.6693    1.2458 C   0  0  0  0  0  0  0  0  0  0  0  0
    7.7742   -0.4568    0.1272 O   0  0  0  0  0  0  0  0  0  0  0  0
    6.4251   -0.1361    0.3754 C   0  0  0  0  0  0  0  0  0  0  0  0
    5.9367   -0.0250    1.6561 C   0  0  0  0  0  0  0  0  0  0  0  0
    4.6158    0.2891    1.8579 C   0  0  0  0  0  0  0  0  0  0  0  0
    3.7945    0.4895    0.7430 C   0  0  0  0  0  0  0  0  0  0  0  0
    2.3937    0.8581    0.9173 C   0  0  0  0  0  0  0  0  0  0  0  0
    1.9450    1.8587    1.7395 N   0  0  0  0  0  0  0  0  0  0  0  0
    0.6737    1.9107    1.6609 O   0  0  0  0  0  0  0  0  0  0  0  0
    0.1951    0.9732    0.8038 C   0  0  0  0  0  0  0  0  0  0  0  0
   -1.2246    0.8416    0.5520 C   0  0  0  0  0  0  0  0  0  0  0  0
   -2.1090    1.7003    1.2022 C   0  0  0  0  0  0  0  0  0  0  0  0
   -3.4621    1.5758    0.9625 C   0  0  0  0  0  0  0  0  0  0  0  0
   -3.9748    0.6382    0.1073 C   0  0  0  0  0  0  0  0  0  0  0  0
   -5.3953    0.5483   -0.1106 C   0  0  0  0  0  0  0  0  0  0  0  0
   -6.3368    0.8474    0.8587 C   0  0  0  0  0  0  0  0  0  0  0  0
   -7.6978    0.7634    0.6506 C   0  0  0  0  0  0  0  0  0  0  0  0
   -8.1885    0.3643   -0.5737 C   0  0  0  0  0  0  0  0  0  0  0  0
   -7.2841    0.0569   -1.5673 C   0  0  0  0  0  0  0  0  0  0  0  0
   -5.9289    0.1476   -1.3380 C   0  0  0  0  0  0  0  0  0  0  0  0
   -3.1179   -0.2111   -0.5373 C   0  0  0  0  0  0  0  0  0  0  0  0
   -1.7418   -0.0792   -0.2889 C   0  0  0  0  0  0  0  0  0  0  0  0
    1.2810    0.3027    0.3303 C   0  0  0  0  0  0  0  0  0  0  0  0
    1.2983   -0.8110   -0.5942 C   0  0  0  0  0  0  0  0  0  0  0  0
    2.3957   -1.4156   -0.8510 O   0  0  0  0  0  0  0  0  0  0  0  0
    0.2006   -1.3553   -1.2968 N   0  0  0  0  0  0  0  0  0  0  0  0
    0.5267   -2.5720   -2.2389 C   0  0  2  0  0  0  0  0  0  0  0  0
   -0.8877   -2.4586   -3.0865 C   0  0  0  0  0  0  0  0  0  0  0  0
   -0.0405   -3.7078   -1.1854 C   0  0  0  0  0  0  0  0  0  0  0  0
   -1.4627   -3.4424   -0.9148 C   0  0  0  0  0  0  0  0  0  0  0  0
    0.8063   -3.4717    0.0456 C   0  0  0  0  0  0  0  0  0  0  0  0
    4.3118    0.3715   -0.5260 C   0  0  0  0  0  0  0  0  0  0  0  0
    5.6347    0.0567   -0.7270 C   0  0  0  0  0  0  0  0  0  0  0  0
  1  2  1  0
  2  3  1  0
  3  4  2  0
  4  5  1  0
  5  6  2  0
  6  7  1  0
  7  8  2  0
  8  9  1  0
  9 10  1  0
 10 11  1  0
 11 12  2  0
 12 13  1  0
 13 14  2  0
 14 15  1  0
 15 16  2  0
 16 17  1  0
 17 18  2  0
 18 19  1  0
 19 20  2  0
 14 21  1  0
 21 22  2  0
 10 23  2  0
 23 24  1  0
 24 25  2  0
 24 26  1  0
 26 27  1  0
 27 28  1  6
 27 29  1  0
 29 30  1  0
 29 31  1  0
  6 32  1  0
 32 33  2  0
 33  3  1  0
 23  7  1  0
 22 11  1  0
 20 15  1  0
M  END
>  <zinc_id>  (1) 
ZINC000002480760

>  <smiles>  (1) 
COc1ccc(-c2noc(-c3ccc(-c4ccccc4)cc3)c2C(=O)N[C@H](C)C(C)C)cc1

$$$$
