
     RDKit          3D

 29 31  0  0  0  0  0  0  0  0999 V2000
   -7.3605    1.8076    1.3355 C   0  0  0  0  0  0  0  0  0  0  0  0
   -6.1068    1.0926    0.9347 C   0  0  0  0  0  0  0  0  0  0  0  0
   -5.9511   -0.2425    1.6533 C   0  0  0  0  0  0  0  0  0  0  0  0
   -4.9230    2.0041    1.2111 C   0  0  0  0  0  0  0  0  0  0  0  0
   -6.0787    0.8142   -0.4642 O   0  0  0  0  0  0  0  0  0  0  0  0
   -4.9642    0.1531   -0.9562 C   0  0  0  0  0  0  0  0  0  0  0  0
   -3.9070   -0.2327   -0.1441 C   0  0  0  0  0  0  0  0  0  0  0  0
   -2.8071   -0.8895   -0.6528 C   0  0  0  0  0  0  0  0  0  0  0  0
   -2.7086   -1.1908   -1.9832 C   0  0  0  0  0  0  0  0  0  0  0  0
   -1.6388   -1.8409   -2.5369 O   0  0  0  0  0  0  0  0  0  0  0  0
   -0.5015   -2.2927   -1.8592 C   0  0  0  0  0  0  0  0  0  0  0  0
    0.2575   -1.2256   -1.1856 C   0  0  0  0  0  0  0  0  0  0  0  0
   -0.0262   -0.8988    0.1229 C   0  0  0  0  0  0  0  0  0  0  0  0
    0.6816    0.0969    0.7523 C   0  0  0  0  0  0  0  0  0  0  0  0
    1.6565    0.7425    0.0581 C   0  0  0  0  0  0  0  0  0  0  0  0
    1.9922    0.4684   -1.2483 C   0  0  0  0  0  0  0  0  0  0  0  0
    3.0596    1.1865   -1.9835 C   0  0  0  0  0  0  0  0  0  0  0  0
    3.7484    2.0562   -1.1122 O   0  0  0  0  0  0  0  0  0  0  0  0
    4.4318    1.5829    0.0132 C   0  0  0  0  0  0  0  0  0  0  0  0
    4.4711    0.2410    0.3302 C   0  0  0  0  0  0  0  0  0  0  0  0
    5.1445   -0.2260    1.4392 C   0  0  0  0  0  0  0  0  0  0  0  0
    5.8155    0.6495    2.2870 C   0  0  0  0  0  0  0  0  0  0  0  0
    6.5416    0.1444    3.4832 C   0  0  0  0  0  0  0  0  0  0  0  0
    5.6572    0.1184    4.6269 N   0  0  0  0  0  0  0  0  0  0  0  0
    5.7809    1.9922    1.9771 C   0  0  0  0  0  0  0  0  0  0  0  0
    5.1014    2.4370    0.8629 C   0  0  0  0  0  0  0  0  0  0  0  0
    1.2645   -0.5416   -1.8658 C   0  0  0  0  0  0  0  0  0  0  0  0
   -3.7627   -0.8072   -2.7981 C   0  0  0  0  0  0  0  0  0  0  0  0
   -4.8682   -0.1490   -2.2974 C   0  0  0  0  0  0  0  0  0  0  0  0
  1  2  1  0
  2  3  1  0
  2  4  1  0
  2  5  1  0
  5  6  1  0
  6  7  2  0
  7  8  1  0
  8  9  2  0
  9 10  1  0
 10 11  1  0
 11 12  1  0
 12 13  2  0
 13 14  1  0
 14 15  2  0
 15 16  1  0
 16 17  1  0
 17 18  1  0
 18 19  1  0
 19 20  2  0
 20 21  1  0
 21 22  2  0
 22 23  1  0
 23 24  1  0
 22 25  1  0
 25 26  2  0
 16 27  2  0
  9 28  1  0
 28 29  2  0
 29  6  1  0
 27 12  1  0
 26 19  1  0
M  END
>  <zinc_id>  (1) 
ZINC000001546320

>  <smiles>  (1) 
CC(C)(C)Oc1ccc(OCc2cccc(COc3ccc(CN)cc3)c2)cc1

$$$$
