
     RDKit          3D

 20 22  0  0  0  0  0  0  0  0999 V2000
   -4.1593   -0.7350    1.3577 C   0  0  0  0  0  0  0  0  0  0  0  0
   -3.2158   -1.2975    0.4393 N   0  0  0  0  0  0  0  0  0  0  0  0
   -3.6077   -2.4857   -0.3058 C   0  0  0  0  0  0  0  0  0  0  0  0
   -1.9120   -0.7506    0.2201 C   0  0  0  0  0  0  0  0  0  0  0  0
   -0.7943   -1.5208    0.4739 C   0  0  0  0  0  0  0  0  0  0  0  0
    0.4382   -0.9421    0.2453 C   0  0  0  0  0  0  0  0  0  0  0  0
    0.6592    0.2929   -0.1984 C   0  0  0  0  0  0  0  0  0  0  0  0
   -0.4944    1.0431   -0.4445 C   0  0  0  0  0  0  0  0  0  0  0  0
   -1.7626    0.5409   -0.2426 C   0  0  0  0  0  0  0  0  0  0  0  0
   -2.8867    1.3642   -0.5149 N   0  0  0  0  0  4  0  0  0  0  0  0
   -3.9306    0.8321   -0.9113 O   0  0  0  0  0  0  0  0  0  0  0  0
   -2.8204    2.7261   -0.3434 O   0  0  0  0  0  1  0  0  0  0  0  0
    2.0741    0.5975   -0.3325 C   0  0  0  0  0  0  0  0  0  0  0  0
    2.7354    1.7479   -0.7539 C   0  0  0  0  0  0  0  0  0  0  0  0
    4.1262    1.7910   -0.7944 C   0  0  0  0  0  0  0  0  0  0  0  0
    4.8203    0.6650   -0.4058 C   0  0  0  0  0  0  0  0  0  0  0  0
    4.1709   -0.4723    0.0108 C   0  0  0  0  0  0  0  0  0  0  0  0
    2.7956   -0.4406    0.0242 C   0  0  0  0  0  0  0  0  0  0  0  0
    1.8610   -1.6650    0.4768 C   0  0  1  0  0  0  0  0  0  0  0  0
    1.9031   -1.2909    1.9994 O   0  0  0  0  0  0  0  0  0  0  0  0
  1  2  1  0
  2  3  1  0
  2  4  1  0
  4  5  2  0
  5  6  1  0
  6  7  2  0
  7  8  1  0
  8  9  2  0
  9 10  1  0
 10 11  2  0
 10 12  1  0
  7 13  1  0
 13 14  2  0
 14 15  1  0
 15 16  2  0
 16 17  1  0
 17 18  2  0
 18 19  1  0
 19 20  1  1
  9  4  1  0
 18 13  1  0
 19  6  1  0
M  CHG  2  10   1  12  -1
M  END
>  <zinc_id>  (1) 
ZINC000004366879

>  <smiles>  (1) 
CN(C)c1cc2c(cc1[N+](=O)[O-])-c1ccccc1[C@H]2O

$$$$
