
     RDKit          3D

 29 31  0  0  0  0  0  0  0  0999 V2000
    7.5330    2.0432    1.8128 C   0  0  0  0  0  0  0  0  0  0  0  0
    6.6690    0.8493    1.5896 C   0  0  0  0  0  0  0  0  0  0  0  0
    6.2384    0.4537    0.3537 C   0  0  0  0  0  0  0  0  0  0  0  0
    5.4376   -0.6619    0.1979 C   0  0  0  0  0  0  0  0  0  0  0  0
    5.0460   -1.4162    1.2984 C   0  0  0  0  0  0  0  0  0  0  0  0
    4.0264   -2.8559    1.2104 S   0  0  0  0  0  0  0  0  0  0  0  0
    2.2548   -2.4856    1.3441 C   0  0  0  0  0  0  0  0  0  0  0  0
    1.8505   -1.7100    0.1485 C   0  0  0  0  0  0  0  0  0  0  0  0
    2.7063   -1.4335   -0.7269 O   0  0  0  0  0  0  0  0  0  0  0  0
    0.5093   -1.2480   -0.0691 N   0  0  0  0  0  0  0  0  0  0  0  0
    0.1889   -0.5031   -1.2478 C   0  0  0  0  0  0  0  0  0  0  0  0
    1.1539   -0.2040   -2.2147 C   0  0  0  0  0  0  0  0  0  0  0  0
    0.7980    0.5185   -3.3379 C   0  0  0  0  0  0  0  0  0  0  0  0
   -0.5106    0.9357   -3.4889 C   0  0  0  0  0  0  0  0  0  0  0  0
   -1.4296    0.6163   -2.5068 C   0  0  0  0  0  0  0  0  0  0  0  0
   -1.1196   -0.1005   -1.3730 C   0  0  0  0  0  0  0  0  0  0  0  0
   -2.0917   -0.4379   -0.3348 C   0  0  0  0  0  0  0  0  0  0  0  0
   -1.7540   -1.0969    0.6839 O   0  0  0  0  0  0  0  0  0  0  0  0
   -3.4545   -0.0750   -0.3646 N   0  0  0  0  0  0  0  0  0  0  0  0
   -4.3644   -0.5125    0.8235 C   0  0  1  0  0  0  0  0  0  0  0  0
   -3.4530    0.2667    1.9303 C   0  0  0  0  0  0  0  0  0  0  0  0
   -5.4221    0.6608    0.6487 C   0  0  0  0  0  0  0  0  0  0  0  0
   -5.8720    0.9405   -0.6254 C   0  0  0  0  0  0  0  0  0  0  0  0
   -6.7966    1.9420   -0.8399 C   0  0  0  0  0  0  0  0  0  0  0  0
   -7.2712    2.6643    0.2238 C   0  0  0  0  0  0  0  0  0  0  0  0
   -6.8023    2.3588    1.4719 C   0  0  0  0  0  0  0  0  0  0  0  0
   -5.8695    1.3513    1.7044 C   0  0  0  0  0  0  0  0  0  0  0  0
    5.5024   -0.9824    2.5263 C   0  0  0  0  0  0  0  0  0  0  0  0
    6.2967    0.1220    2.6928 C   0  0  0  0  0  0  0  0  0  0  0  0
  1  2  1  0
  2  3  2  0
  3  4  1  0
  4  5  2  0
  5  6  1  0
  6  7  1  0
  7  8  1  0
  8  9  2  0
  8 10  1  0
 10 11  1  0
 11 12  2  0
 12 13  1  0
 13 14  2  0
 14 15  1  0
 15 16  2  0
 16 17  1  0
 17 18  2  0
 17 19  1  0
 19 20  1  0
 20 21  1  1
 20 22  1  0
 22 23  2  0
 23 24  1  0
 24 25  2  0
 25 26  1  0
 26 27  2  0
  5 28  1  0
 28 29  2  0
 29  2  1  0
 16 11  1  0
 27 22  1  0
M  END
>  <zinc_id>  (1) 
ZINC000001146927

>  <smiles>  (1) 
Cc1ccc(SCC(=O)Nc2ccccc2C(=O)N[C@@H](C)c2ccccc2)cc1

$$$$
