
     RDKit          3D

 18 20  0  0  0  0  0  0  0  0999 V2000
    6.1043    1.4216   -0.9903 C   0  0  0  0  0  0  0  0  0  0  0  0
    5.6956    0.4053    0.0687 C   0  0  0  0  0  0  0  0  0  0  0  0
    4.2166    0.1861    0.0443 C   0  0  0  0  0  0  0  0  0  0  0  0
    3.3585    0.9423    0.8058 C   0  0  0  0  0  0  0  0  0  0  0  0
    2.0002    0.7139    0.7596 C   0  0  0  0  0  0  0  0  0  0  0  0
    1.4721   -0.2748   -0.0488 C   0  0  0  0  0  0  0  0  0  0  0  0
    0.0121   -0.5014   -0.0819 C   0  0  0  0  0  0  0  0  0  0  0  0
   -0.3966   -1.4616   -0.8788 C   0  0  0  0  0  0  0  0  0  0  0  0
   -2.1481   -1.7817   -0.9609 S   0  0  0  0  0  0  0  0  0  0  0  0
   -2.9196   -0.6230    0.1443 C   0  0  0  0  0  0  0  0  0  0  0  0
   -4.3147   -0.6678    0.2635 N   0  0  0  0  0  0  0  0  0  0  0  0
   -5.0455    0.2466    1.1535 C   0  0  0  0  0  0  0  0  0  0  0  0
   -4.9127    1.7245    0.8938 C   0  0  0  0  0  0  0  0  0  0  0  0
   -6.1644    0.9880    0.3561 C   0  0  0  0  0  0  0  0  0  0  0  0
   -2.1972    0.2064    0.7907 N   0  0  0  0  0  0  0  0  0  0  0  0
   -0.8236    0.2972    0.7144 N   0  0  0  0  0  0  0  0  0  0  0  0
    2.3507   -1.0174   -0.8007 C   0  0  0  0  0  0  0  0  0  0  0  0
    3.7122   -0.8041   -0.7681 C   0  0  0  0  0  0  0  0  0  0  0  0
  1  2  1  0
  2  3  1  0
  3  4  2  0
  4  5  1  0
  5  6  2  0
  6  7  1  0
  7  8  2  0
  8  9  1  0
  9 10  1  0
 10 11  1  0
 11 12  1  0
 12 13  1  0
 13 14  1  0
 10 15  2  0
 15 16  1  0
  6 17  1  0
 17 18  2  0
 18  3  1  0
 16  7  1  0
 14 12  1  0
M  END
>  <zinc_id>  (1) 
ZINC000003532447

>  <smiles>  (1) 
CCc1ccc(C2=CSC(NC3CC3)=NN2)cc1

$$$$
