
     RDKit          3D

 18 19  0  0  0  0  0  0  0  0999 V2000
   -3.0976    2.1664    0.4135 C   0  0  0  0  0  0  0  0  0  0  0  0
   -3.6875    0.8236   -0.3422 C   0  0  2  0  0  0  0  0  0  0  0  0
   -3.8762    0.0254    1.0906 C   0  0  0  0  0  0  0  0  0  0  0  0
   -4.3392   -1.3466    0.6399 C   0  0  0  0  0  0  0  0  0  0  0  0
   -3.2572   -2.0372   -0.1704 C   0  0  0  0  0  0  0  0  0  0  0  0
   -2.1893   -1.0804   -0.5579 C   0  0  0  0  0  0  0  0  0  0  0  0
   -2.2755    0.1931   -0.6635 C   0  0  0  0  0  0  0  0  0  0  0  0
   -1.2700    1.0654   -1.0466 N   0  0  0  0  0  0  0  0  0  0  0  0
    0.0253    0.9528   -0.5641 N   0  0  0  0  0  0  0  0  0  0  0  0
    0.8476   -0.1845   -0.7712 C   0  0  0  0  0  0  0  0  0  0  0  0
    0.4246   -1.1690   -1.4159 O   0  0  0  0  0  0  0  0  0  0  0  0
    2.2000   -0.2353   -0.2406 C   0  0  0  0  0  0  0  0  0  0  0  0
    2.9843   -1.3595   -0.4437 C   0  0  0  0  0  0  0  0  0  0  0  0
    4.2641   -1.4147    0.0501 C   0  0  0  0  0  0  0  0  0  0  0  0
    4.7994   -0.3559    0.7583 C   0  0  0  0  0  0  0  0  0  0  0  0
    4.0243    0.7653    0.9636 C   0  0  0  0  0  0  0  0  0  0  0  0
    2.7422    0.8168    0.4673 C   0  0  0  0  0  0  0  0  0  0  0  0
    1.6807    2.3742    0.7556 Br  0  0  0  0  0  0  0  0  0  0  0  0
  2  1  1  1
  2  3  1  0
  3  4  1  0
  4  5  1  0
  5  6  1  0
  6  7  2  0
  7  8  1  0
  8  9  1  0
  9 10  1  0
 10 11  2  0
 10 12  1  0
 12 13  2  0
 13 14  1  0
 14 15  2  0
 15 16  1  0
 16 17  2  0
 17 18  1  0
  7  2  1  0
 17 12  1  0
M  END
>  <zinc_id>  (1) 
ZINC000003265819

>  <smiles>  (1) 
C[C@@H]1CCCC=C1NNC(=O)c1ccccc1Br

$$$$
