
     RDKit          3D

 22 25  0  0  0  0  0  0  0  0999 V2000
   -5.6367   -1.8616    0.0485 C   0  0  0  0  0  0  0  0  0  0  0  0
   -4.2363   -1.5284   -0.7904 C   0  0  2  0  0  0  0  0  0  0  0  0
   -3.3422   -1.4594    0.6216 C   0  0  0  0  0  0  0  0  0  0  0  0
   -1.9944   -1.3076   -0.0449 C   0  0  0  0  0  0  0  0  0  0  0  0
   -1.9712    0.1807   -0.4385 C   0  0  0  0  0  0  0  0  0  0  0  0
   -3.1690    0.7261   -0.7599 C   0  0  0  0  0  0  0  0  0  0  0  0
   -2.7596    2.3516   -1.1432 S   0  0  0  0  0  0  0  0  0  0  0  0
   -1.0760    2.2829   -0.8810 C   0  0  0  0  0  0  0  0  0  0  0  0
   -0.0606    3.2104   -0.9864 N   0  0  0  0  0  0  0  0  0  0  0  0
    1.2111    2.8721   -0.7103 C   0  0  0  0  0  0  0  0  0  0  0  0
    1.4210    1.6036   -0.3347 N   0  0  0  0  0  0  0  0  0  0  0  0
    0.4781    0.6665   -0.2162 C   0  0  0  0  0  0  0  0  0  0  0  0
    0.7854   -0.6625    0.1901 N   0  0  0  0  0  0  0  0  0  0  0  0
    2.0991   -1.0893    0.4964 C   0  0  0  0  0  0  0  0  0  0  0  0
    2.3517   -2.3738    0.8823 C   0  0  0  0  0  0  0  0  0  0  0  0
    3.6541   -2.7247    1.1664 C   0  0  0  0  0  0  0  0  0  0  0  0
    4.6870   -1.7906    1.0619 C   0  0  0  0  0  0  0  0  0  0  0  0
    4.4136   -0.4929    0.6693 C   0  0  0  0  0  0  0  0  0  0  0  0
    5.4065    0.4805    0.5483 O   0  0  0  0  0  0  0  0  0  0  0  0
    3.1143   -0.1446    0.3865 C   0  0  0  0  0  0  0  0  0  0  0  0
   -0.8706    0.9863   -0.4985 C   0  0  0  0  0  0  0  0  0  0  0  0
   -4.5052    0.0745   -0.7707 C   0  0  0  0  0  0  0  0  0  0  0  0
  2  1  1  1
  2  3  1  0
  3  4  1  0
  4  5  1  0
  5  6  2  0
  6  7  1  0
  7  8  1  0
  8  9  2  0
  9 10  1  0
 10 11  2  0
 11 12  1  0
 12 13  1  0
 13 14  1  0
 14 15  2  0
 15 16  1  0
 16 17  2  0
 17 18  1  0
 18 19  1  0
 18 20  2  0
 12 21  2  0
  6 22  1  0
 22  2  1  0
 21  5  1  0
 21  8  1  0
 20 14  1  0
M  END
>  <zinc_id>  (1) 
ZINC000000132529

>  <smiles>  (1) 
C[C@@H]1CCc2c(sc3ncnc(Nc4cccc(O)c4)c23)C1

$$$$
