
     RDKit          3D

 31 34  0  0  0  0  0  0  0  0999 V2000
    7.1177   -1.3018    3.2931 C   0  0  0  0  0  0  0  0  0  0  0  0
    7.8344   -0.9063    2.0145 C   0  0  0  0  0  0  0  0  0  0  0  0
    7.1283    0.1432    1.4296 O   0  0  0  0  0  0  0  0  0  0  0  0
    5.8037    0.0545    1.0241 C   0  0  0  0  0  0  0  0  0  0  0  0
    5.1558    1.1267    0.4508 C   0  0  0  0  0  0  0  0  0  0  0  0
    3.8378    1.0421    0.0462 C   0  0  0  0  0  0  0  0  0  0  0  0
    3.1119   -0.1253    0.2001 C   0  0  0  0  0  0  0  0  0  0  0  0
    1.7489   -0.2051   -0.2211 N   0  0  0  0  0  0  0  0  0  0  0  0
    0.5873   -0.3317    0.5988 C   0  0  0  0  0  0  0  0  0  0  0  0
    0.5928   -0.3945    1.8753 O   0  0  0  0  0  0  0  0  0  0  0  0
   -0.5920   -0.3768   -0.2567 C   0  0  0  0  0  0  0  0  0  0  0  0
   -1.9128   -0.4997    0.2429 N   0  0  0  0  0  0  0  0  0  0  0  0
   -2.4585    0.5557    1.0240 C   0  0  0  0  0  0  0  0  0  0  0  0
   -1.7235    1.6906    1.2980 C   0  0  0  0  0  0  0  0  0  0  0  0
   -2.2389    2.7231    2.0546 C   0  0  0  0  0  0  0  0  0  0  0  0
   -3.5126    2.6451    2.5600 C   0  0  0  0  0  0  0  0  0  0  0  0
   -4.2808    1.5143    2.3024 C   0  0  0  0  0  0  0  0  0  0  0  0
   -3.7366    0.4926    1.5390 C   0  0  0  0  0  0  0  0  0  0  0  0
   -0.1962   -0.2854   -1.5109 C   0  0  0  0  0  0  0  0  0  0  0  0
   -1.2379   -0.2907   -2.9620 S   0  0  0  0  0  0  0  0  0  0  0  0
   -2.9640   -0.4386   -2.5464 C   0  0  0  0  0  0  0  0  0  0  0  0
   -3.7629    0.6744   -2.3151 C   0  0  0  0  0  0  0  0  0  0  0  0
   -5.0985    0.5232   -1.9958 C   0  0  0  0  0  0  0  0  0  0  0  0
   -5.6956   -0.7179   -1.8924 C   0  0  0  0  0  0  0  0  0  0  0  0
   -7.1435   -0.8236   -1.5443 C   0  0  0  0  0  0  0  0  0  0  0  0
   -4.9036   -1.8230   -2.1218 C   0  0  0  0  0  0  0  0  0  0  0  0
   -3.5645   -1.6737   -2.4419 C   0  0  0  0  0  0  0  0  0  0  0  0
    1.2348   -0.1776   -1.5468 C   0  0  0  0  0  0  0  0  0  0  0  0
    2.0107   -0.0701   -2.5563 O   0  0  0  0  0  0  0  0  0  0  0  0
    3.7670   -1.1960    0.7753 C   0  0  0  0  0  0  0  0  0  0  0  0
    5.0912   -1.1141    1.1829 C   0  0  0  0  0  0  0  0  0  0  0  0
  1  2  1  0
  2  3  1  0
  3  4  1  0
  4  5  2  0
  5  6  1  0
  6  7  2  0
  7  8  1  0
  8  9  1  0
  9 10  2  0
  9 11  1  0
 11 12  1  0
 12 13  1  0
 13 14  2  0
 14 15  1  0
 15 16  2  0
 16 17  1  0
 17 18  2  0
 11 19  2  0
 19 20  1  0
 20 21  1  0
 21 22  2  0
 22 23  1  0
 23 24  2  0
 24 25  1  0
 24 26  1  0
 26 27  2  0
 19 28  1  0
 28 29  2  0
  7 30  1  0
 30 31  2  0
 31  4  1  0
 28  8  1  0
 18 13  1  0
 27 21  1  0
M  END
>  <zinc_id>  (1) 
ZINC000001928686

>  <smiles>  (1) 
CCOc1ccc(N2C(=O)C(Nc3ccccc3)=C(Sc3ccc(C)cc3)C2=O)cc1

$$$$
