
     RDKit          3D

 31 34  0  0  0  0  0  0  0  0999 V2000
    9.4200   -1.0958    0.2837 C   0  0  0  0  0  0  0  0  0  0  0  0
    9.1964    0.2633    0.5920 O   0  0  0  0  0  0  0  0  0  0  0  0
    7.8815    0.7634    0.6020 C   0  0  0  0  0  0  0  0  0  0  0  0
    7.6496    2.0873    0.9013 C   0  0  0  0  0  0  0  0  0  0  0  0
    6.3464    2.5339    0.8996 C   0  0  0  0  0  0  0  0  0  0  0  0
    5.2889    1.6961    0.6092 C   0  0  0  0  0  0  0  0  0  0  0  0
    5.5148    0.3694    0.3087 C   0  0  0  0  0  0  0  0  0  0  0  0
    4.4045   -0.5432   -0.0041 C   0  0  0  0  0  0  0  0  0  0  0  0
    3.1794   -0.1465   -0.0111 N   0  0  0  0  0  0  0  0  0  0  0  0
    2.2232   -1.1428   -0.3314 N   0  0  0  0  0  0  0  0  0  0  0  0
    1.0592   -0.8643   -1.0700 C   0  0  0  0  0  0  0  0  0  0  0  0
    0.8805    0.3305   -1.4528 O   0  0  0  0  0  0  0  0  0  0  0  0
    0.0300   -1.8703   -1.4302 C   0  0  0  0  0  0  0  0  0  0  0  0
   -1.2231   -1.9396   -0.1344 S   0  0  0  0  0  0  0  0  0  0  0  0
   -2.1178   -0.3837   -0.0912 C   0  0  0  0  0  0  0  0  0  0  0  0
   -1.8997    0.6861   -0.8994 N   0  0  0  0  0  0  0  0  0  0  0  0
   -2.7470    1.6921   -0.6008 C   0  0  0  0  0  0  0  0  0  0  0  0
   -2.9526    2.9636   -1.0934 C   0  0  0  0  0  0  0  0  0  0  0  0
   -3.9285    3.7635   -0.5520 C   0  0  0  0  0  0  0  0  0  0  0  0
   -4.6998    3.2955    0.4814 C   0  0  0  0  0  0  0  0  0  0  0  0
   -4.4821    2.0246    0.9616 C   0  0  0  0  0  0  0  0  0  0  0  0
   -3.5209    1.1913    0.4531 C   0  0  0  0  0  0  0  0  0  0  0  0
   -3.1185   -0.0573    0.7356 N   0  0  0  0  0  0  0  0  0  0  0  0
   -3.7000   -0.8778    1.7711 C   0  0  0  0  0  0  0  0  0  0  0  0
   -4.8325   -1.6860    1.2541 C   0  0  0  0  0  0  0  0  0  0  0  0
   -6.1230   -1.2025    1.2835 C   0  0  0  0  0  0  0  0  0  0  0  0
   -7.1938   -1.9453    0.8035 C   0  0  0  0  0  0  0  0  0  0  0  0
   -6.9966   -3.2023    0.2775 C   0  0  0  0  0  0  0  0  0  0  0  0
   -5.7108   -3.6990    0.2417 C   0  0  0  0  0  0  0  0  0  0  0  0
   -4.6407   -2.9443    0.7267 C   0  0  0  0  0  0  0  0  0  0  0  0
    6.8131   -0.0600    0.3142 C   0  0  0  0  0  0  0  0  0  0  0  0
  1  2  1  0
  2  3  1  0
  3  4  2  0
  4  5  1  0
  5  6  2  0
  6  7  1  0
  7  8  1  0
  8  9  2  0
  9 10  1  0
 10 11  1  0
 11 12  2  0
 11 13  1  0
 13 14  1  0
 14 15  1  0
 15 16  2  0
 16 17  1  0
 17 18  2  0
 18 19  1  0
 19 20  2  0
 20 21  1  0
 21 22  2  0
 22 23  1  0
 23 24  1  0
 24 25  1  0
 25 26  2  0
 26 27  1  0
 27 28  2  0
 28 29  1  0
 29 30  2  0
  7 31  2  0
 31  3  1  0
 23 15  1  0
 30 25  1  0
 22 17  1  0
M  END
>  <zinc_id>  (1) 
ZINC000000863826

>  <smiles>  (1) 
COc1cccc(/C=N/NC(=O)CSc2nc3ccccc3n2Cc2ccccc2)c1

$$$$
