
     RDKit          3D

 20 22  0  0  0  0  0  0  0  0999 V2000
    6.3925   -1.6496    0.2386 C   0  0  0  0  0  0  0  0  0  0  0  0
    5.5557   -0.4834    0.4727 N   0  0  0  0  0  0  0  0  0  0  0  0
    4.1286   -0.6814    0.3016 C   0  0  0  0  0  0  0  0  0  0  0  0
    3.1793    0.2169    0.4565 N   0  0  0  0  0  0  0  0  0  0  0  0
    1.9307   -0.1154    0.2653 C   0  0  0  0  0  0  0  0  0  0  0  0
    0.7861    0.8283    0.4156 C   0  0  0  0  0  0  0  0  0  0  0  0
    0.8772    2.1616    0.7709 C   0  0  0  0  0  0  0  0  0  0  0  0
   -0.3717    2.6584    0.7959 N   0  0  0  0  0  0  0  0  0  0  0  0
   -1.2751    1.7013    0.4708 C   0  0  0  0  0  0  0  0  0  0  0  0
   -2.6290    1.6723    0.3500 C   0  0  0  0  0  0  0  0  0  0  0  0
   -3.2649    0.5089   -0.0066 C   0  0  0  0  0  0  0  0  0  0  0  0
   -4.6499    0.5270   -0.1177 O   0  0  0  0  0  0  0  0  0  0  0  0
   -5.4204    1.6642    0.1143 C   0  0  0  0  0  0  0  0  0  0  0  0
   -2.5712   -0.6509   -0.2509 C   0  0  0  0  0  0  0  0  0  0  0  0
   -3.2752   -1.7886   -0.6065 O   0  0  0  0  0  0  0  0  0  0  0  0
   -2.6167   -3.0060   -0.8687 C   0  0  0  0  0  0  0  0  0  0  0  0
   -1.1931   -0.6099   -0.1249 C   0  0  0  0  0  0  0  0  0  0  0  0
   -0.5402    0.5484    0.2317 C   0  0  0  0  0  0  0  0  0  0  0  0
    1.6927   -1.4214   -0.0951 C   0  0  0  0  0  0  0  0  0  0  0  0
    3.2645   -2.0807   -0.1355 S   0  0  0  0  0  0  0  0  0  0  0  0
  1  2  1  0
  2  3  1  0
  3  4  2  0
  4  5  1  0
  5  6  1  0
  6  7  2  0
  7  8  1  0
  8  9  1  0
  9 10  2  0
 10 11  1  0
 11 12  1  0
 12 13  1  0
 11 14  2  0
 14 15  1  0
 15 16  1  0
 14 17  1  0
 17 18  2  0
  5 19  2  0
 19 20  1  0
 20  3  1  0
 18  6  1  0
 18  9  1  0
M  END
>  <zinc_id>  (1) 
ZINC000002202278

>  <smiles>  (1) 
CNc1nc(-c2c[nH]c3cc(OC)c(OC)cc23)cs1

$$$$
