
     RDKit          3D

 21 22  0  0  0  0  0  0  0  0999 V2000
   -6.3405    0.5615    0.9261 C   0  0  0  0  0  0  0  0  0  0  0  0
   -4.9329    0.3431    0.4979 C   0  0  0  0  0  0  0  0  0  0  0  0
   -4.2929   -0.8700    0.6564 C   0  0  0  0  0  0  0  0  0  0  0  0
   -2.9663   -1.0251    0.2368 C   0  0  0  0  0  0  0  0  0  0  0  0
   -2.2638   -2.3257    0.4010 C   0  0  0  0  0  0  0  0  0  0  0  0
   -2.2712    0.0179   -0.3396 C   0  0  0  0  0  0  0  0  0  0  0  0
   -0.9240   -0.1872   -0.7506 N   0  0  0  0  0  0  0  0  0  0  0  0
    0.1812    0.0462    0.1122 C   0  0  0  0  0  0  0  0  0  0  0  0
   -0.0582    0.4445    1.2655 O   0  0  0  0  0  0  0  0  0  0  0  0
    1.5475   -0.1764   -0.3482 C   0  0  0  0  0  0  0  0  0  0  0  0
    1.7938   -0.6168   -1.6272 C   0  0  0  0  0  0  0  0  0  0  0  0
    3.0522   -0.8346   -2.0892 C   0  0  0  0  0  0  0  0  0  0  0  0
    4.1266   -0.6116   -1.2615 C   0  0  0  0  0  0  0  0  0  0  0  0
    3.9306   -0.1695    0.0302 C   0  0  0  0  0  0  0  0  0  0  0  0
    5.0306    0.0652    0.8964 N   0  0  0  0  0  4  0  0  0  0  0  0
    6.1758   -0.1352    0.4692 O   0  0  0  0  0  0  0  0  0  0  0  0
    4.8512    0.4988    2.1651 O   0  0  0  0  0  1  0  0  0  0  0  0
    2.6163    0.0412    0.4624 C   0  0  0  0  0  0  0  0  0  0  0  0
   -2.9117    1.2340   -0.4988 C   0  0  0  0  0  0  0  0  0  0  0  0
   -2.1311    2.3341   -1.1235 C   0  0  0  0  0  0  0  0  0  0  0  0
   -4.2131    1.3657   -0.0807 C   0  0  0  0  0  0  0  0  0  0  0  0
  1  2  1  0
  2  3  2  0
  3  4  1  0
  4  5  1  0
  4  6  2  0
  6  7  1  0
  7  8  1  0
  8  9  2  0
  8 10  1  0
 10 11  2  0
 11 12  1  0
 12 13  2  0
 13 14  1  0
 14 15  1  0
 15 16  2  0
 15 17  1  0
 14 18  2  0
  6 19  1  0
 19 20  1  0
 19 21  2  0
 21  2  1  0
 18 10  1  0
M  CHG  2  15   1  17  -1
M  END
>  <zinc_id>  (1) 
ZINC000000485084

>  <smiles>  (1) 
Cc1cc(C)c(NC(=O)c2cccc([N+](=O)[O-])c2)c(C)c1

$$$$
