
     RDKit          3D

 20 21  0  0  0  0  0  0  0  0999 V2000
    4.8133    0.6190   -0.6491 C   0  0  0  0  0  0  0  0  0  0  0  0
    4.1252    0.8374    0.6776 C   0  0  0  0  0  0  0  0  0  0  0  0
    2.7382    0.5727    0.6105 O   0  0  0  0  0  0  0  0  0  0  0  0
    2.2618   -0.6765    0.2551 C   0  0  0  0  0  0  0  0  0  0  0  0
    3.1425   -1.5560   -0.0027 O   0  0  0  0  0  0  0  0  0  0  0  0
    0.8380   -0.9741    0.1788 C   0  0  0  0  0  0  0  0  0  0  0  0
    0.2847   -2.1658   -0.1596 N   0  0  0  0  0  0  0  0  0  0  0  0
   -1.0564   -2.0416   -0.1155 C   0  0  0  0  0  0  0  0  0  0  0  0
   -2.0443   -2.9642   -0.3739 C   0  0  0  0  0  0  0  0  0  0  0  0
   -3.3588   -2.5356   -0.2426 C   0  0  0  0  0  0  0  0  0  0  0  0
   -3.6802   -1.2502    0.1281 C   0  0  0  0  0  0  0  0  0  0  0  0
   -4.9901   -0.9243    0.2299 F   0  0  0  0  0  0  0  0  0  0  0  0
   -2.6681   -0.3533    0.3790 C   0  0  0  0  0  0  0  0  0  0  0  0
   -1.3414   -0.7233    0.2645 C   0  0  0  0  0  0  0  0  0  0  0  0
   -0.1504   -0.0620    0.4467 C   0  0  0  0  0  0  0  0  0  0  0  0
    0.0496    1.2777    0.8297 N   0  0  0  0  0  0  0  0  0  0  0  0
    0.1561    2.3594   -0.0723 C   0  0  0  0  0  0  0  0  0  0  0  0
    0.0434    2.0633   -1.6620 S   0  0  0  0  0  0  0  0  0  0  0  0
    0.3589    3.6663    0.4701 N   0  0  0  0  0  0  0  0  0  0  0  0
    0.4779    4.8310   -0.4042 C   0  0  0  0  0  0  0  0  0  0  0  0
  1  2  1  0
  2  3  1  0
  3  4  1  0
  4  5  2  0
  4  6  1  0
  6  7  1  0
  7  8  1  0
  8  9  2  0
  9 10  1  0
 10 11  2  0
 11 12  1  0
 11 13  1  0
 13 14  2  0
 14 15  1  0
 15 16  1  0
 16 17  1  0
 17 18  2  0
 17 19  1  0
 19 20  1  0
 15  6  2  0
 14  8  1  0
M  END
>  <zinc_id>  (1) 
ZINC000000523352

>  <smiles>  (1) 
CCOC(=O)c1[nH]c2ccc(F)cc2c1NC(=S)NC

$$$$
