
     RDKit          3D

 20 21  0  0  0  0  0  0  0  0999 V2000
   -5.2494    1.9215    0.4821 C   0  0  0  0  0  0  0  0  0  0  0  0
   -3.9520    1.2487    0.3992 C   0  0  0  0  0  0  0  0  0  0  0  0
   -3.0703    1.2238    1.4561 C   0  0  0  0  0  0  0  0  0  0  0  0
   -1.8468    0.5764    1.3927 C   0  0  0  0  0  0  0  0  0  0  0  0
   -1.0168    0.5914    2.5012 O   0  0  0  0  0  0  0  0  0  0  0  0
   -1.4916   -0.0654    0.2404 C   0  0  0  0  0  0  0  0  0  0  0  0
   -0.2409   -0.7456    0.1101 N   0  0  0  0  0  0  0  0  0  0  0  0
    0.0905   -1.4165   -1.1106 C   0  0  0  0  0  0  0  0  0  0  0  0
   -0.7405   -1.3744   -2.0276 O   0  0  0  0  0  0  0  0  0  0  0  0
    1.4128   -2.1330   -1.2197 C   0  0  0  0  0  0  0  0  0  0  0  0
    2.4861   -1.2060   -0.7559 C   0  0  0  0  0  0  0  0  0  0  0  0
    3.0471   -1.5971    0.5464 C   0  0  0  0  0  0  0  0  0  0  0  0
    3.9924   -0.7327    1.0404 C   0  0  0  0  0  0  0  0  0  0  0  0
    4.4665    0.4087    0.5017 C   0  0  0  0  0  0  0  0  0  0  0  0
    5.6727    1.4594    1.2122 Cl  0  0  0  0  0  0  0  0  0  0  0  0
    3.9099    0.7956   -0.7879 C   0  0  0  0  0  0  0  0  0  0  0  0
    2.9676   -0.1023   -1.2413 C   0  0  0  0  0  0  0  0  0  0  0  0
   -2.3783   -0.0259   -0.7879 C   0  0  0  0  0  0  0  0  0  0  0  0
   -3.6013    0.5970   -0.7904 C   0  0  0  0  0  0  0  0  0  0  0  0
   -4.4576    0.5765   -1.9805 C   0  0  0  0  0  0  0  0  0  0  0  0
  1  2  1  0
  2  3  2  0
  3  4  1  0
  4  5  1  0
  4  6  2  0
  6  7  1  0
  7  8  1  0
  8  9  2  0
  8 10  1  0
 10 11  1  0
 11 12  2  0
 12 13  1  0
 13 14  2  0
 14 15  1  0
 14 16  1  0
 16 17  2  0
  6 18  1  0
 18 19  2  0
 19 20  1  0
 19  2  1  0
 17 11  1  0
M  END
>  <zinc_id>  (1) 
ZINC000000330864

>  <smiles>  (1) 
Cc1cc(O)c(NC(=O)Cc2ccc(Cl)cc2)cc1C

$$$$
