
     RDKit          3D

 21 22  0  0  0  0  0  0  0  0999 V2000
    2.4778   -1.4368   -0.6293 C   0  0  0  0  0  0  0  0  0  0  0  0
    1.4468   -1.5284    0.1032 C   0  0  0  0  0  0  0  0  0  0  0  0
    0.9615   -2.7625    0.5666 N   0  0  0  0  0  0  0  0  0  0  0  0
   -0.4269   -2.9408    0.9545 C   0  0  0  0  0  0  0  0  0  0  0  0
   -0.8444   -4.0555    1.3679 O   0  0  0  0  0  0  0  0  0  0  0  0
   -1.2761   -1.7997    0.8424 N   0  0  0  0  0  0  0  0  0  0  0  0
   -0.7820   -0.8374   -0.3113 C   0  0  1  0  0  0  0  0  0  0  0  0
   -1.6864    0.3913    0.0621 C   0  0  0  0  0  0  0  0  0  0  0  0
   -1.4000    1.3576    0.9167 C   0  0  0  0  0  0  0  0  0  0  0  0
   -2.2997    2.3736    1.1487 C   0  0  0  0  0  0  0  0  0  0  0  0
   -3.5170    2.4141    0.5025 C   0  0  0  0  0  0  0  0  0  0  0  0
   -3.7804    1.3916   -0.3797 C   0  0  0  0  0  0  0  0  0  0  0  0
   -2.8857    0.3715   -0.6175 C   0  0  0  0  0  0  0  0  0  0  0  0
   -3.2359   -0.6312   -1.5336 O   0  0  0  0  0  0  0  0  0  0  0  0
    0.5513   -0.3552    0.6146 C   0  0  2  0  0  0  0  0  0  0  0  0
    1.0603    0.7920   -0.3427 C   0  0  0  0  0  0  0  0  0  0  0  0
    0.4022    1.3840   -1.1408 O   0  0  0  0  0  0  0  0  0  0  0  0
    2.4065    1.0737   -0.1750 O   0  0  0  0  0  0  0  0  0  0  0  0
    3.0986    2.0619   -0.9157 C   0  0  0  0  0  0  0  0  0  0  0  0
    4.5409    2.0362   -0.4143 C   0  0  0  0  0  0  0  0  0  0  0  0
    5.1885    0.6998   -0.6191 C   0  0  0  0  0  0  0  0  0  0  0  0
  1  2  2  0
  2  3  1  0
  3  4  1  0
  4  5  2  0
  4  6  1  0
  6  7  1  0
  7  8  1  1
  8  9  2  0
  9 10  1  0
 10 11  2  0
 11 12  1  0
 12 13  2  0
 13 14  1  0
  7 15  1  0
 15 16  1  6
 16 17  2  0
 16 18  1  0
 18 19  1  0
 19 20  1  0
 20 21  1  0
 15  2  1  0
 13  8  1  0
M  END
>  <zinc_id>  (1) 
ZINC000002179591

>  <smiles>  (1) 
C=C1NC(=O)N[C@@H](c2ccccc2O)[C@@H]1C(=O)OCCC

$$$$
