
     RDKit          3D

 20 22  0  0  0  0  0  0  0  0999 V2000
   -2.5957   -1.0150    2.8757 C   0  0  0  0  0  0  0  0  0  0  0  0
   -1.6217   -1.0084    1.6987 C   0  0  0  0  0  0  0  0  0  0  0  0
   -1.7472   -2.3598    0.9675 C   0  0  0  0  0  0  0  0  0  0  0  0
   -1.9800    0.0741    0.7480 C   0  0  0  0  0  0  0  0  0  0  0  0
   -3.2111    0.6722    0.7079 N   0  0  0  0  0  0  0  0  0  0  0  0
   -3.2145    1.5234   -0.3071 C   0  0  0  0  0  0  0  0  0  0  0  0
   -4.3468    2.3421   -0.6672 N   0  0  0  0  0  0  0  0  0  0  0  0
   -2.0571    1.4598   -0.8630 O   0  0  0  0  0  0  0  0  0  0  0  0
   -1.2354    0.5772   -0.2549 C   0  0  0  0  0  0  0  0  0  0  0  0
    0.1278    0.3296   -0.7058 C   0  0  0  0  0  0  0  0  0  0  0  0
    0.4184    0.7136   -2.0250 C   0  0  0  0  0  0  0  0  0  0  0  0
    1.6611    0.5993   -2.5875 C   0  0  0  0  0  0  0  0  0  0  0  0
    2.7031    0.0843   -1.8458 C   0  0  0  0  0  0  0  0  0  0  0  0
    3.9391   -0.0373   -2.3852 F   0  0  0  0  0  0  0  0  0  0  0  0
    2.4288   -0.2939   -0.5499 C   0  0  0  0  0  0  0  0  0  0  0  0
    3.4516   -0.7823    0.2211 C   0  0  0  0  0  0  0  0  0  0  0  0
    3.2256   -1.1434    1.5270 C   0  0  0  0  0  0  0  0  0  0  0  0
    1.9594   -1.0233    2.0966 C   0  0  0  0  0  0  0  0  0  0  0  0
    0.9483   -0.5390    1.3257 C   0  0  0  0  0  0  0  0  0  0  0  0
    1.1463   -0.1733    0.0233 C   0  0  0  0  0  0  0  0  0  0  0  0
  1  2  1  0
  2  3  1  0
  2  4  1  0
  4  5  1  0
  5  6  2  0
  6  7  1  0
  6  8  1  0
  8  9  1  0
  9 10  1  0
 10 11  2  0
 11 12  1  0
 12 13  2  0
 13 14  1  0
 13 15  1  0
 15 16  2  0
 16 17  1  0
 17 18  2  0
 18 19  1  0
 19 20  2  0
  9  4  2  0
 20 10  1  0
 20 15  1  0
M  END
>  <zinc_id>  (1) 
ZINC000003817448

>  <smiles>  (1) 
CC(C)c1nc(N)oc1-c1ccc(F)c2ccccc12

$$$$
