
     RDKit          3D

 20 21  0  0  0  0  0  0  0  0999 V2000
   -0.9774   -2.6946   -0.1814 C   0  0  0  0  0  0  0  0  0  0  0  0
   -1.6880   -1.3606   -0.1835 C   0  0  0  0  0  0  0  0  0  0  0  0
   -2.9642   -1.1620   -0.2245 O   0  0  0  0  0  0  0  0  0  0  0  0
   -3.2772    0.1256   -0.2092 C   0  0  0  0  0  0  0  0  0  0  0  0
   -4.6206    0.7636   -0.2376 C   0  0  0  0  0  0  0  0  0  0  0  0
   -4.8508    1.5170   -1.5359 C   0  0  0  0  0  0  0  0  0  0  0  0
   -4.7652    1.7232    0.9397 C   0  0  0  0  0  0  0  0  0  0  0  0
   -5.7229   -0.2547   -0.1278 C   0  0  0  0  0  0  0  0  0  0  0  0
   -2.0659    0.8042   -0.1564 C   0  0  0  0  0  0  0  0  0  0  0  0
   -1.0239   -0.1337   -0.1394 C   0  0  0  0  0  0  0  0  0  0  0  0
    0.3909    0.1527   -0.0635 C   0  0  0  0  0  0  0  0  0  0  0  0
    0.8356    1.3053   -0.2021 O   0  0  0  0  0  0  0  0  0  0  0  0
    1.2951   -0.9149    0.1846 N   0  0  0  0  0  0  0  0  0  0  0  0
    2.7055   -0.6104    0.2782 C   0  0  0  0  0  0  0  0  0  0  0  0
    3.5724   -1.5751    0.7127 C   0  0  0  0  0  0  0  0  0  0  0  0
    4.9389   -1.3224    0.7954 C   0  0  0  0  0  0  0  0  0  0  0  0
    5.4127   -0.0727    0.4345 C   0  0  0  0  0  0  0  0  0  0  0  0
    4.5612    0.9167   -0.0087 C   0  0  0  0  0  0  0  0  0  0  0  0
    5.0538    2.1647   -0.3691 O   0  0  0  0  0  0  0  0  0  0  0  0
    3.1899    0.6282   -0.0805 C   0  0  0  0  0  0  0  0  0  0  0  0
  1  2  1  0
  2  3  1  0
  3  4  1  0
  4  5  1  0
  5  6  1  0
  5  7  1  0
  5  8  1  0
  4  9  2  0
  9 10  1  0
 10 11  1  0
 11 12  2  0
 11 13  1  0
 13 14  1  0
 14 15  2  0
 15 16  1  0
 16 17  2  0
 17 18  1  0
 18 19  1  0
 18 20  2  0
 10  2  2  0
 20 14  1  0
M  END
>  <zinc_id>  (1) 
ZINC000000194767

>  <smiles>  (1) 
Cc1oc(C(C)(C)C)cc1C(=O)Nc1cccc(O)c1

$$$$
