
     RDKit          3D

 34 37  0  0  0  0  0  0  0  0999 V2000
    3.3504    2.4842    1.4887 C   0  0  0  0  0  0  0  0  0  0  0  0
    3.7563    1.8553    0.3891 C   0  0  0  0  0  0  0  0  0  0  0  0
    4.9867    1.0360    0.3330 C   0  0  0  0  0  0  0  0  0  0  0  0
    4.6591   -0.2932   -0.0193 N   0  0  0  0  0  0  0  0  0  0  0  0
    5.7153   -1.2359   -0.1109 C   0  0  0  0  0  0  0  0  0  0  0  0
    5.0879   -2.5493   -0.4973 C   0  0  0  0  0  0  0  0  0  0  0  0
    5.1589   -3.6349    0.2285 C   0  0  0  0  0  0  0  0  0  0  0  0
    3.5174   -0.8516    0.5938 C   0  0  0  0  0  0  0  0  0  0  0  0
    2.2294    0.0122   -0.0727 C   0  0  1  0  0  0  0  0  0  0  0  0
    2.5827   -0.4243   -1.4739 O   0  0  0  0  0  0  0  0  0  0  0  0
    1.1763   -1.2322    0.2328 C   0  0  0  0  0  0  0  0  0  0  0  0
   -0.1096   -0.7894   -0.2432 N   0  0  0  0  0  0  0  0  0  0  0  0
   -0.8982    0.0583    0.4907 C   0  0  0  0  0  0  0  0  0  0  0  0
   -0.5595    0.6396    1.7907 C   0  0  0  0  0  0  0  0  0  0  0  0
   -0.4317    1.9941    1.9982 C   0  0  0  0  0  0  0  0  0  0  0  0
   -0.1073    2.5283    3.2417 C   0  0  0  0  0  0  0  0  0  0  0  0
    0.1012    1.7105    4.3293 C   0  0  0  0  0  0  0  0  0  0  0  0
   -0.0239    0.3612    4.1325 C   0  0  0  0  0  0  0  0  0  0  0  0
   -0.3459   -0.1696    2.8984 C   0  0  0  0  0  0  0  0  0  0  0  0
   -2.0298    0.2131   -0.2659 C   0  0  0  0  0  0  0  0  0  0  0  0
   -3.1652    1.0408    0.1197 C   0  0  0  0  0  0  0  0  0  0  0  0
   -4.3680    0.4539    0.3877 C   0  0  0  0  0  0  0  0  0  0  0  0
   -5.4590    1.1592    0.7470 C   0  0  0  0  0  0  0  0  0  0  0  0
   -5.3551    2.5331    0.8480 C   0  0  0  0  0  0  0  0  0  0  0  0
   -4.1550    3.1519    0.5834 C   0  0  0  0  0  0  0  0  0  0  0  0
   -3.0710    2.3960    0.2214 C   0  0  0  0  0  0  0  0  0  0  0  0
   -1.9539   -0.5145   -1.4351 C   0  0  0  0  0  0  0  0  0  0  0  0
   -2.8078   -0.7094   -2.5027 C   0  0  0  0  0  0  0  0  0  0  0  0
   -2.5043   -1.5228   -3.5692 C   0  0  0  0  0  0  0  0  0  0  0  0
   -3.4261   -1.7284   -4.7175 C   0  0  0  0  0  0  0  0  0  0  0  0
   -1.2756   -2.1481   -3.5160 C   0  0  0  0  0  0  0  0  0  0  0  0
   -0.4132   -1.9598   -2.4529 C   0  0  0  0  0  0  0  0  0  0  0  0
    0.8526   -2.7198   -2.4712 C   0  0  0  0  0  0  0  0  0  0  0  0
   -0.7141   -1.1446   -1.3877 C   0  0  0  0  0  0  0  0  0  0  0  0
  1  2  2  0
  2  3  1  0
  3  4  1  0
  4  5  1  0
  5  6  1  0
  6  7  2  0
  4  8  1  0
  8  9  1  0
  9 10  1  6
  9 11  1  0
 11 12  1  0
 12 13  1  0
 13 14  1  0
 14 15  2  0
 15 16  1  0
 16 17  2  0
 17 18  1  0
 18 19  2  0
 13 20  2  0
 20 21  1  0
 21 22  2  0
 22 23  1  0
 23 24  2  0
 24 25  1  0
 25 26  2  0
 20 27  1  0
 27 28  2  0
 28 29  1  0
 29 30  1  0
 29 31  2  0
 31 32  1  0
 32 33  1  0
 32 34  2  0
 34 12  1  0
 19 14  1  0
 26 21  1  0
 34 27  1  0
M  END
>  <zinc_id>  (1) 
ZINC000002083424

>  <smiles>  (1) 
C=CCN(CC=C)C[C@@H](O)Cn1c(-c2ccccc2)c(-c2ccccc2)c2cc(C)cc(C)c21

$$$$
