
     RDKit          3D

 31 33  0  0  0  0  0  0  0  0999 V2000
    9.0299    1.0906    0.3223 C   0  0  0  0  0  0  0  0  0  0  0  0
    8.8609   -0.1445   -0.5553 C   0  0  0  0  0  0  0  0  0  0  0  0
    8.9354    0.2707   -1.9956 C   0  0  0  0  0  0  0  0  0  0  0  0
    9.8825   -1.2087   -0.2100 C   0  0  0  0  0  0  0  0  0  0  0  0
    7.4967   -0.6810   -0.2274 C   0  0  0  0  0  0  0  0  0  0  0  0
    6.3865    0.1019   -0.5444 C   0  0  0  0  0  0  0  0  0  0  0  0
    5.1223   -0.3709   -0.2488 C   0  0  0  0  0  0  0  0  0  0  0  0
    4.9005   -1.5766    0.3438 C   0  0  0  0  0  0  0  0  0  0  0  0
    3.6482   -2.0725    0.6478 O   0  0  0  0  0  0  0  0  0  0  0  0
    2.5399   -1.2335    0.2964 C   0  0  0  0  0  0  0  0  0  0  0  0
    2.6110    0.1051    1.0116 C   0  0  0  0  0  0  0  0  0  0  0  0
    1.5092    0.8727    0.6172 O   0  0  0  0  0  0  0  0  0  0  0  0
    0.2037    0.4948    0.8113 C   0  0  0  0  0  0  0  0  0  0  0  0
   -0.0758   -0.6969    1.4266 C   0  0  0  0  0  0  0  0  0  0  0  0
   -1.3789   -1.0889    1.6261 C   0  0  0  0  0  0  0  0  0  0  0  0
   -2.3556   -0.2627    1.1948 C   0  0  0  0  0  0  0  0  0  0  0  0
   -2.1440    0.9755    0.5542 C   0  0  0  0  0  0  0  0  0  0  0  0
   -3.2347    1.7184    0.1692 C   0  0  0  0  0  0  0  0  0  0  0  0
   -4.1466    2.3576   -0.1623 N   0  0  0  0  0  0  0  0  0  0  0  0
   -5.5483    2.1249   -0.0232 N   0  0  0  0  0  0  0  0  0  0  0  0
   -6.1123    0.8730   -0.4697 C   0  0  0  0  0  0  0  0  0  0  0  0
   -5.2864    0.0630   -0.9686 O   0  0  0  0  0  0  0  0  0  0  0  0
   -7.5234    0.5445   -0.3609 C   0  0  0  0  0  0  0  0  0  0  0  0
   -8.4582    1.0342   -1.2359 C   0  0  0  0  0  0  0  0  0  0  0  0
   -9.8053    0.6747   -1.0690 C   0  0  0  0  0  0  0  0  0  0  0  0
  -10.2224   -0.1309   -0.0876 N   0  0  0  0  0  0  0  0  0  0  0  0
   -9.3322   -0.6225    0.7794 C   0  0  0  0  0  0  0  0  0  0  0  0
   -8.0047   -0.2950    0.6516 C   0  0  0  0  0  0  0  0  0  0  0  0
   -0.8118    1.3270    0.3778 C   0  0  0  0  0  0  0  0  0  0  0  0
    6.0198   -2.3512    0.6562 C   0  0  0  0  0  0  0  0  0  0  0  0
    7.2939   -1.8927    0.3663 C   0  0  0  0  0  0  0  0  0  0  0  0
  1  2  1  0
  2  3  1  0
  2  4  1  0
  2  5  1  0
  5  6  2  0
  6  7  1  0
  7  8  2  0
  8  9  1  0
  9 10  1  0
 10 11  1  0
 11 12  1  0
 12 13  1  0
 13 14  2  0
 14 15  1  0
 15 16  2  0
 16 17  1  0
 17 18  1  0
 18 19  2  0
 19 20  1  0
 20 21  1  0
 21 22  2  0
 21 23  1  0
 23 24  2  0
 24 25  1  0
 25 26  2  0
 26 27  1  0
 27 28  2  0
 17 29  2  0
  8 30  1  0
 30 31  2  0
 31  5  1  0
 29 13  1  0
 28 23  1  0
M  END
>  <zinc_id>  (1) 
ZINC000004508447

>  <smiles>  (1) 
CC(C)(C)c1ccc(OCCOc2cccc(/C=N/NC(=O)c3ccncc3)c2)cc1

$$$$
