
     RDKit          3D

 19 20  0  0  0  0  0  0  0  0999 V2000
    6.7406   -0.9168   -0.5856 C   0  0  0  0  0  0  0  0  0  0  0  0
    5.8128    0.1682   -0.1171 C   0  0  0  0  0  0  0  0  0  0  0  0
    5.6813    1.3016   -1.1040 C   0  0  0  0  0  0  0  0  0  0  0  0
    4.4273   -0.4355    0.0263 C   0  0  0  0  0  0  0  0  0  0  0  0
    3.2340    0.1810   -0.1476 C   0  0  0  0  0  0  0  0  0  0  0  0
    2.1085   -0.5445    0.0304 C   0  0  0  0  0  0  0  0  0  0  0  0
    0.7443    0.0214   -0.1321 C   0  0  0  0  0  0  0  0  0  0  0  0
    0.5651    1.2233   -0.4488 O   0  0  0  0  0  0  0  0  0  0  0  0
   -0.3882   -0.8010    0.0715 N   0  0  0  0  0  0  0  0  0  0  0  0
   -1.6747   -0.2595   -0.0838 N   0  0  0  0  0  0  0  0  0  0  0  0
   -2.5870   -0.4120    0.7843 C   0  0  0  0  0  0  0  0  0  0  0  0
   -3.8964    0.1764    0.5584 C   0  0  0  0  0  0  0  0  0  0  0  0
   -4.1690    0.9001   -0.5847 C   0  0  0  0  0  0  0  0  0  0  0  0
   -5.4324    1.4378   -0.7482 C   0  0  0  0  0  0  0  0  0  0  0  0
   -6.3993    1.2564    0.2080 C   0  0  0  0  0  0  0  0  0  0  0  0
   -6.1349    0.5553    1.3153 N   0  0  0  0  0  0  0  0  0  0  0  0
   -4.9078    0.0338    1.4726 C   0  0  0  0  0  0  0  0  0  0  0  0
    2.2925   -1.8593    0.3766 C   0  0  0  0  0  0  0  0  0  0  0  0
    3.9832   -2.0266    0.4382 S   0  0  0  0  0  0  0  0  0  0  0  0
  1  2  1  0
  2  3  1  0
  2  4  1  0
  4  5  2  0
  5  6  1  0
  6  7  1  0
  7  8  2  0
  7  9  1  0
  9 10  1  0
 10 11  2  0
 11 12  1  0
 12 13  2  0
 13 14  1  0
 14 15  2  0
 15 16  1  0
 16 17  2  0
  6 18  2  0
 18 19  1  0
 19  4  1  0
 17 12  1  0
M  END
>  <zinc_id>  (1) 
ZINC000000373971

>  <smiles>  (1) 
CC(C)c1cc(C(=O)N/N=C/c2cccnc2)cs1

$$$$
