
     RDKit          3D

 18 19  0  0  0  0  0  0  0  0999 V2000
   -3.3280    1.9030    0.8362 C   0  0  0  0  0  0  0  0  0  0  0  0
   -3.2083    0.2870    0.8386 C   0  0  1  0  0  0  0  0  0  0  0  0
   -4.5651    0.1006   -0.0873 C   0  0  0  0  0  0  0  0  0  0  0  0
   -4.6526   -1.3777   -0.3622 C   0  0  0  0  0  0  0  0  0  0  0  0
   -3.3191   -1.9506   -0.7875 C   0  0  0  0  0  0  0  0  0  0  0  0
   -2.3330   -0.8884   -1.1055 C   0  0  0  0  0  0  0  0  0  0  0  0
   -2.2210    0.1984   -0.3831 C   0  0  0  0  0  0  0  0  0  0  0  0
   -1.2981    1.1790   -0.6825 N   0  0  0  0  0  0  0  0  0  0  0  0
    0.0161    1.3019   -0.3056 N   0  0  0  0  0  0  0  0  0  0  0  0
    0.8340    0.1445   -0.2275 C   0  0  0  0  0  0  0  0  0  0  0  0
    0.3514   -0.9701   -0.4962 O   0  0  0  0  0  0  0  0  0  0  0  0
    2.2325    0.2656    0.1655 C   0  0  0  0  0  0  0  0  0  0  0  0
    2.7531    1.5011    0.4607 C   0  0  0  0  0  0  0  0  0  0  0  0
    4.0768    1.6030    0.8313 C   0  0  0  0  0  0  0  0  0  0  0  0
    4.8679    0.4467    0.8992 C   0  0  0  0  0  0  0  0  0  0  0  0
    4.3510   -0.7898    0.6052 C   0  0  0  0  0  0  0  0  0  0  0  0
    3.0110   -0.8573    0.2352 C   0  0  0  0  0  0  0  0  0  0  0  0
    2.4316   -2.0969   -0.0746 O   0  0  0  0  0  0  0  0  0  0  0  0
  2  1  1  6
  2  3  1  0
  3  4  1  0
  4  5  1  0
  5  6  1  0
  6  7  2  0
  7  8  1  0
  8  9  1  0
  9 10  1  0
 10 11  2  0
 10 12  1  0
 12 13  2  0
 13 14  1  0
 14 15  2  0
 15 16  1  0
 16 17  2  0
 17 18  1  0
  7  2  1  0
 17 12  1  0
M  END
>  <zinc_id>  (1) 
ZINC000002790608

>  <smiles>  (1) 
C[C@H]1CCCC=C1NNC(=O)c1ccccc1O

$$$$
