
     RDKit          3D

 32 35  0  0  0  0  0  0  0  0999 V2000
    4.3771    1.8374    3.4102 C   0  0  0  0  0  0  0  0  0  0  0  0
    3.7138    2.6180    2.2870 C   0  0  0  0  0  0  0  0  0  0  0  0
    2.7509    1.8481    1.6133 O   0  0  0  0  0  0  0  0  0  0  0  0
    3.0214    0.6737    0.9609 C   0  0  0  0  0  0  0  0  0  0  0  0
    4.3151    0.2007    0.9536 C   0  0  0  0  0  0  0  0  0  0  0  0
    4.6334   -0.9854    0.3045 C   0  0  0  0  0  0  0  0  0  0  0  0
    3.6410   -1.6794   -0.3294 C   0  0  0  0  0  0  0  0  0  0  0  0
    2.3507   -1.1880   -0.3103 C   0  0  0  0  0  0  0  0  0  0  0  0
    2.0138   -0.0132    0.3280 C   0  0  0  0  0  0  0  0  0  0  0  0
    0.6616    0.4229    0.2997 N   0  0  0  0  0  0  0  0  0  0  0  0
   -0.3393   -0.3360   -0.3704 C   0  0  0  0  0  0  0  0  0  0  0  0
   -1.1082    0.0348   -1.3799 C   0  0  0  0  0  0  0  0  0  0  0  0
   -1.0758    1.6336   -2.1749 S   0  0  0  0  0  0  0  0  0  0  0  0
    0.1370    2.7073   -1.4402 C   0  0  0  0  0  0  0  0  0  0  0  0
   -0.2508    3.5073   -0.3887 C   0  0  0  0  0  0  0  0  0  0  0  0
    0.6454    4.3592    0.2176 C   0  0  0  0  0  0  0  0  0  0  0  0
    1.9699    4.4514   -0.1982 C   0  0  0  0  0  0  0  0  0  0  0  0
    2.9331    5.3786    0.4654 C   0  0  0  0  0  0  0  0  0  0  0  0
    2.3232    3.6361   -1.2533 C   0  0  0  0  0  0  0  0  0  0  0  0
    1.4375    2.7792   -1.8692 C   0  0  0  0  0  0  0  0  0  0  0  0
   -2.0013   -1.0547   -1.7642 C   0  0  0  0  0  0  0  0  0  0  0  0
   -2.8766   -1.0653   -2.6892 O   0  0  0  0  0  0  0  0  0  0  0  0
   -1.7421   -2.1692   -0.9108 N   0  0  0  0  0  0  0  0  0  0  0  0
   -2.4067   -3.4599   -0.9480 C   0  0  0  0  0  0  0  0  0  0  0  0
   -3.5867   -3.4052   -0.0517 C   0  0  0  0  0  0  0  0  0  0  0  0
   -3.8996   -2.2558    0.6518 C   0  0  0  0  0  0  0  0  0  0  0  0
   -4.9912   -2.1797    1.4915 C   0  0  0  0  0  0  0  0  0  0  0  0
   -5.8202   -3.2611    1.6615 C   0  0  0  0  0  0  0  0  0  0  0  0
   -5.5128   -4.4131    0.9611 C   0  0  0  0  0  0  0  0  0  0  0  0
   -4.4212   -4.4899    0.1211 C   0  0  0  0  0  0  0  0  0  0  0  0
   -0.7089   -1.7288   -0.0410 C   0  0  0  0  0  0  0  0  0  0  0  0
   -0.1837   -2.4036    0.8672 O   0  0  0  0  0  0  0  0  0  0  0  0
  1  2  1  0
  2  3  1  0
  3  4  1  0
  4  5  2  0
  5  6  1  0
  6  7  2  0
  7  8  1  0
  8  9  2  0
  9 10  1  0
 10 11  1  0
 11 12  2  0
 12 13  1  0
 13 14  1  0
 14 15  2  0
 15 16  1  0
 16 17  2  0
 17 18  1  0
 17 19  1  0
 19 20  2  0
 12 21  1  0
 21 22  2  0
 21 23  1  0
 23 24  1  0
 24 25  1  0
 25 26  2  0
 26 27  1  0
 27 28  2  0
 28 29  1  0
 29 30  2  0
 23 31  1  0
 31 32  2  0
  9  4  1  0
 31 11  1  0
 20 14  1  0
 30 25  1  0
M  END
>  <zinc_id>  (1) 
ZINC000001932157

>  <smiles>  (1) 
CCOc1ccccc1NC1=C(Sc2ccc(C)cc2)C(=O)N(Cc2ccccc2)C1=O

$$$$
