
     RDKit          3D

 33 36  0  0  0  0  0  0  0  0999 V2000
   -3.9982    3.1259    3.2665 C   0  0  0  0  0  0  0  0  0  0  0  0
   -4.6102    2.1813    2.2339 C   0  0  0  0  0  0  0  0  0  0  0  0
   -3.6172    1.7447    1.3273 O   0  0  0  0  0  0  0  0  0  0  0  0
   -2.5076    1.0534    1.7363 C   0  0  0  0  0  0  0  0  0  0  0  0
   -2.4146    0.8241    2.9682 O   0  0  0  0  0  0  0  0  0  0  0  0
   -1.4430    0.5735    0.8678 C   0  0  0  0  0  0  0  0  0  0  0  0
   -1.4455    0.7476   -0.4951 C   0  0  0  0  0  0  0  0  0  0  0  0
   -2.5504    1.3450   -1.2071 C   0  0  0  0  0  0  0  0  0  0  0  0
   -3.8292    0.8801   -1.1251 C   0  0  0  0  0  0  0  0  0  0  0  0
   -4.8641    1.4652   -1.8120 C   0  0  0  0  0  0  0  0  0  0  0  0
   -4.6465    2.5544   -2.6173 C   0  0  0  0  0  0  0  0  0  0  0  0
   -3.3694    3.0566   -2.7289 C   0  0  0  0  0  0  0  0  0  0  0  0
   -2.3492    2.4506   -2.0289 C   0  0  0  0  0  0  0  0  0  0  0  0
   -0.3524    0.2914   -1.2429 C   0  0  0  0  0  0  0  0  0  0  0  0
    0.7048   -0.3189   -0.6476 C   0  0  0  0  0  0  0  0  0  0  0  0
    1.8015   -0.7724   -1.4313 N   0  0  0  0  0  0  0  0  0  0  0  0
    1.8289   -0.6044   -2.8494 C   0  0  0  0  0  0  0  0  0  0  0  0
    3.1021   -1.1823   -3.3583 C   0  0  0  0  0  0  0  0  0  0  0  0
    4.2638   -0.4489   -3.4839 C   0  0  0  0  0  0  0  0  0  0  0  0
    5.4480   -0.9707   -3.9530 C   0  0  0  0  0  0  0  0  0  0  0  0
    5.4821   -2.2917   -4.3176 C   0  0  0  0  0  0  0  0  0  0  0  0
    4.3521   -3.0617   -4.2107 C   0  0  0  0  0  0  0  0  0  0  0  0
    3.1852   -2.5079   -3.7377 C   0  0  0  0  0  0  0  0  0  0  0  0
    0.7087   -0.4952    0.7127 C   0  0  0  0  0  0  0  0  0  0  0  0
    1.8184   -1.1309    1.2923 C   0  0  0  0  0  0  0  0  0  0  0  0
    1.7981   -1.2955    2.6566 C   0  0  0  0  0  0  0  0  0  0  0  0
    2.8693   -1.9232    3.3253 O   0  0  0  0  0  0  0  0  0  0  0  0
    3.9842   -2.3915    2.5787 C   0  0  0  0  0  0  0  0  0  0  0  0
    0.7518   -0.8675    3.4472 C   0  0  0  0  0  0  0  0  0  0  0  0
    0.8012   -1.0698    4.8305 O   0  0  0  0  0  0  0  0  0  0  0  0
   -0.2336   -0.6564    5.6898 C   0  0  0  0  0  0  0  0  0  0  0  0
   -0.3254   -0.2458    2.8486 C   0  0  0  0  0  0  0  0  0  0  0  0
   -0.3438   -0.0592    1.4652 C   0  0  0  0  0  0  0  0  0  0  0  0
  1  2  1  0
  2  3  1  0
  3  4  1  0
  4  5  2  0
  4  6  1  0
  6  7  2  0
  7  8  1  0
  8  9  2  0
  9 10  1  0
 10 11  2  0
 11 12  1  0
 12 13  2  0
  7 14  1  0
 14 15  2  0
 15 16  1  0
 16 17  1  0
 17 18  1  0
 18 19  2  0
 19 20  1  0
 20 21  2  0
 21 22  1  0
 22 23  2  0
 15 24  1  0
 24 25  2  0
 25 26  1  0
 26 27  1  0
 27 28  1  0
 26 29  2  0
 29 30  1  0
 30 31  1  0
 29 32  1  0
 32 33  2  0
 33  6  1  0
 13  8  1  0
 23 18  1  0
 33 24  1  0
M  END
>  <zinc_id>  (1) 
ZINC000001872494

>  <smiles>  (1) 
CCOC(=O)c1c(-c2ccccc2)cc(NCc2ccccc2)c2cc(OC)c(OC)cc12

$$$$
