
     RDKit          3D

 19 20  0  0  0  0  0  0  0  0999 V2000
    6.2123    0.0673   -1.5498 C   0  0  0  0  0  0  0  0  0  0  0  0
    5.9702   -0.3428   -0.4652 C   0  0  0  0  0  0  0  0  0  0  0  0
    5.6531   -0.8744    0.9014 C   0  0  0  0  0  0  0  0  0  0  0  0
    4.3307   -2.1474    0.6995 S   0  0  0  0  0  0  0  0  0  0  0  0
    2.8736   -1.2212    0.1550 C   0  0  0  0  0  0  0  0  0  0  0  0
    1.6718   -1.1008    0.7491 N   0  0  0  0  0  0  0  0  0  0  0  0
    0.8532   -0.3858   -0.0394 C   0  0  0  0  0  0  0  0  0  0  0  0
   -0.5483   -0.0136    0.1036 C   0  0  0  0  0  0  0  0  0  0  0  0
   -1.1733    0.7818   -0.8434 C   0  0  0  0  0  0  0  0  0  0  0  0
   -2.5174    1.1366   -0.7467 C   0  0  0  0  0  0  0  0  0  0  0  0
   -3.2901    0.7077    0.2907 C   0  0  0  0  0  0  0  0  0  0  0  0
   -4.7442    1.0650    0.4385 C   0  0  0  0  0  0  0  0  0  0  0  0
   -5.3722    0.8767   -0.9321 C   0  0  0  0  0  0  0  0  0  0  0  0
   -4.9424    2.4874    0.9244 C   0  0  0  0  0  0  0  0  0  0  0  0
   -5.3757    0.1241    1.4216 C   0  0  0  0  0  0  0  0  0  0  0  0
   -2.6728   -0.0878    1.2395 C   0  0  0  0  0  0  0  0  0  0  0  0
   -1.3521   -0.4349    1.1489 C   0  0  0  0  0  0  0  0  0  0  0  0
    1.6093   -0.0668   -1.1461 N   0  0  0  0  0  0  0  0  0  0  0  0
    2.8143   -0.5710   -1.0198 N   0  0  0  0  0  0  0  0  0  0  0  0
  1  2  3  0
  2  3  1  0
  3  4  1  0
  4  5  1  0
  5  6  2  0
  6  7  1  0
  7  8  1  0
  8  9  2  0
  9 10  1  0
 10 11  2  0
 11 12  1  0
 12 13  1  0
 12 14  1  0
 12 15  1  0
 11 16  1  0
 16 17  2  0
  7 18  2  0
 18 19  1  0
 19  5  1  0
 17  8  1  0
M  END
>  <zinc_id>  (1) 
ZINC000002157878

>  <smiles>  (1) 
C#CCSc1nc(-c2ccc(C(C)(C)C)cc2)n[nH]1

$$$$
