
     RDKit          3D

 18 18  0  0  0  0  0  0  0  0999 V2000
    4.2001   -1.9362    1.1114 C   0  0  0  0  0  0  0  0  0  0  0  0
    3.6756   -0.6353    0.5734 C   0  0  0  0  0  0  0  0  0  0  0  0
    4.6006    0.3806    0.3227 C   0  0  0  0  0  0  0  0  0  0  0  0
    4.1188    1.5713   -0.1700 C   0  0  0  0  0  0  0  0  0  0  0  0
    2.7710    1.7492   -0.4056 C   0  0  0  0  0  0  0  0  0  0  0  0
    2.2622    2.9472   -0.9043 O   0  0  0  0  0  0  0  0  0  0  0  0
    1.8765    0.7315   -0.1503 C   0  0  0  0  0  0  0  0  0  0  0  0
    0.4747    0.9449   -0.4056 N   0  0  0  0  0  0  0  0  0  0  0  0
   -0.4837   -0.0758   -0.1574 C   0  0  0  0  0  0  0  0  0  0  0  0
    0.0241   -1.4910    0.4199 S   0  0  0  0  0  0  0  0  0  0  0  0
   -1.8418    0.2380   -0.4435 N   0  0  0  0  0  0  0  0  0  0  0  0
   -2.8538   -0.7101   -0.2283 C   0  0  0  0  0  0  0  0  0  0  0  0
   -2.5110   -1.8358    0.2231 O   0  0  0  0  0  0  0  0  0  0  0  0
   -4.2968   -0.4521   -0.5050 C   0  0  0  0  0  0  0  0  0  0  0  0
   -4.5409   -0.1187   -1.9500 C   0  0  0  0  0  0  0  0  0  0  0  0
   -4.6720    0.7682    0.3443 C   0  0  0  0  0  0  0  0  0  0  0  0
   -5.1307   -1.6013   -0.0267 C   0  0  0  0  0  0  0  0  0  0  0  0
    2.3271   -0.4747    0.3440 C   0  0  0  0  0  0  0  0  0  0  0  0
  1  2  1  0
  2  3  2  0
  3  4  1  0
  4  5  2  0
  5  6  1  0
  5  7  1  0
  7  8  1  0
  8  9  1  0
  9 10  2  0
  9 11  1  0
 11 12  1  0
 12 13  2  0
 12 14  1  0
 14 15  1  0
 14 16  1  0
 14 17  1  0
  7 18  2  0
 18  2  1  0
M  END
>  <zinc_id>  (1) 
ZINC000000558661

>  <smiles>  (1) 
Cc1ccc(O)c(NC(=S)NC(=O)C(C)(C)C)c1

$$$$
