
     RDKit          3D

 30 33  0  0  0  0  0  0  0  0999 V2000
   -5.9873    3.4889   -1.8930 C   0  0  0  0  0  0  0  0  0  0  0  0
   -4.6653    2.7319   -1.8328 C   0  0  0  0  0  0  0  0  0  0  0  0
   -4.9411    1.3063   -2.0884 C   0  0  0  0  0  0  0  0  0  0  0  0
   -3.8549    0.3347   -2.0944 C   0  0  0  0  0  0  0  0  0  0  0  0
   -3.0576    0.1185   -0.9654 N   0  0  0  0  0  0  0  0  0  0  0  0
   -2.2603    1.0669   -0.3544 C   0  0  0  0  0  0  0  0  0  0  0  0
   -2.2230    2.2240   -0.8222 O   0  0  0  0  0  0  0  0  0  0  0  0
   -1.4581    0.7758    0.8151 C   0  0  0  0  0  0  0  0  0  0  0  0
   -1.3483   -0.3439    1.4532 C   0  0  0  0  0  0  0  0  0  0  0  0
   -1.9903   -1.6566    1.1953 C   0  0  0  0  0  0  0  0  0  0  0  0
   -2.1385   -2.2536   -0.0234 C   0  0  0  0  0  0  0  0  0  0  0  0
   -2.7670   -3.4832   -0.1841 C   0  0  0  0  0  0  0  0  0  0  0  0
   -3.2646   -4.1375    0.9200 C   0  0  0  0  0  0  0  0  0  0  0  0
   -3.1350   -3.5694    2.1637 C   0  0  0  0  0  0  0  0  0  0  0  0
   -2.5021   -2.3473    2.2637 C   0  0  0  0  0  0  0  0  0  0  0  0
   -0.4431   -0.1022    2.5426 N   0  0  0  0  0  0  0  0  0  0  0  0
   -0.4548    1.1815    2.8390 O   0  0  0  0  0  0  0  0  0  0  0  0
   -0.5258    1.8082    1.5100 C   0  0  1  0  0  0  0  0  0  0  0  0
    0.8573    1.4580    0.8700 C   0  0  0  0  0  0  0  0  0  0  0  0
    1.2282    0.1492    1.0383 C   0  0  0  0  0  0  0  0  0  0  0  0
    2.4401   -0.3421    0.5149 C   0  0  0  0  0  0  0  0  0  0  0  0
    3.2797    0.5007   -0.1841 C   0  0  0  0  0  0  0  0  0  0  0  0
    4.5522   -0.0069   -0.7339 C   0  0  0  0  0  0  0  0  0  0  0  0
    5.0935    0.5056   -1.8946 C   0  0  0  0  0  0  0  0  0  0  0  0
    6.2988    0.0310   -2.4170 C   0  0  0  0  0  0  0  0  0  0  0  0
    6.9822   -0.9741   -1.7738 C   0  0  0  0  0  0  0  0  0  0  0  0
    6.4626   -1.5100   -0.6035 C   0  0  0  0  0  0  0  0  0  0  0  0
    5.2703   -1.0114   -0.1251 C   0  0  0  0  0  0  0  0  0  0  0  0
    2.8812    1.7995   -0.3340 C   0  0  0  0  0  0  0  0  0  0  0  0
    1.6710    2.2575    0.1984 C   0  0  0  0  0  0  0  0  0  0  0  0
  1  2  1  0
  2  3  1  0
  3  4  1  0
  4  5  1  0
  5  6  1  0
  6  7  2  0
  6  8  1  0
  8  9  2  0
  9 10  1  0
 10 11  2  0
 11 12  1  0
 12 13  2  0
 13 14  1  0
 14 15  2  0
  9 16  1  0
 16 17  1  0
 17 18  1  0
 18 19  1  1
 19 20  2  0
 20 21  1  0
 21 22  2  0
 22 23  1  0
 23 24  2  0
 24 25  1  0
 25 26  2  0
 26 27  1  0
 27 28  2  0
 22 29  1  0
 29 30  2  0
 18  8  1  0
 30 19  1  0
 15 10  1  0
 28 23  1  0
M  END
>  <zinc_id>  (1) 
ZINC000002500923

>  <smiles>  (1) 
CCCCNC(=O)C1=C(c2ccccc2)NO[C@@H]1c1ccc(-c2ccccc2)cc1

$$$$
