
     RDKit          3D

 29 31  0  0  0  0  0  0  0  0999 V2000
   -7.2095    2.9288   -1.1647 C   0  0  0  0  0  0  0  0  0  0  0  0
   -6.8711    1.5707   -0.6106 C   0  0  0  0  0  0  0  0  0  0  0  0
   -7.3380    0.4211   -1.2076 C   0  0  0  0  0  0  0  0  0  0  0  0
   -7.0223   -0.8168   -0.6922 C   0  0  0  0  0  0  0  0  0  0  0  0
   -6.2362   -0.9512    0.4278 C   0  0  0  0  0  0  0  0  0  0  0  0
   -5.8810   -2.2595    1.0106 C   0  0  0  0  0  0  0  0  0  0  0  0
   -4.7726   -2.7832    0.3548 O   0  0  0  0  0  0  0  0  0  0  0  0
   -3.5288   -2.2125    0.2746 C   0  0  0  0  0  0  0  0  0  0  0  0
   -2.5376   -2.8943   -0.4341 C   0  0  0  0  0  0  0  0  0  0  0  0
   -1.2713   -2.3653   -0.5451 C   0  0  0  0  0  0  0  0  0  0  0  0
   -0.9154   -1.1617    0.0225 C   0  0  0  0  0  0  0  0  0  0  0  0
    0.4362   -0.6212   -0.1095 C   0  0  0  0  0  0  0  0  0  0  0  0
    1.2755   -1.2912   -0.7623 O   0  0  0  0  0  0  0  0  0  0  0  0
    0.8446    0.5956    0.4484 N   0  0  0  0  0  0  0  0  0  0  0  0
    2.1554    1.0514    0.2816 N   0  0  0  0  0  0  0  0  0  0  0  0
    3.1742    0.2981    0.3572 C   0  0  0  0  0  0  0  0  0  0  0  0
    4.5477    0.7322    0.1905 C   0  0  0  0  0  0  0  0  0  0  0  0
    4.9149    2.0335   -0.0738 C   0  0  0  0  0  0  0  0  0  0  0  0
    6.2522    2.3628   -0.2188 C   0  0  0  0  0  0  0  0  0  0  0  0
    7.2541    1.4196   -0.1069 C   0  0  0  0  0  0  0  0  0  0  0  0
    8.6052    1.8222   -0.2663 N   0  0  0  0  0  0  0  0  0  0  0  0
    9.4088    2.2624    0.8518 C   0  0  0  0  0  0  0  0  0  0  0  0
    9.2084    1.7960   -1.5818 C   0  0  0  0  0  0  0  0  0  0  0  0
    6.8788    0.1192    0.1578 C   0  0  0  0  0  0  0  0  0  0  0  0
    5.5489   -0.2077    0.3019 C   0  0  0  0  0  0  0  0  0  0  0  0
   -1.8976   -0.4919    0.7215 C   0  0  0  0  0  0  0  0  0  0  0  0
   -3.1687   -1.0125    0.8387 C   0  0  0  0  0  0  0  0  0  0  0  0
   -5.7699    0.1954    1.0242 C   0  0  0  0  0  0  0  0  0  0  0  0
   -6.0849    1.4335    0.5098 C   0  0  0  0  0  0  0  0  0  0  0  0
  1  2  1  0
  2  3  2  0
  3  4  1  0
  4  5  2  0
  5  6  1  0
  6  7  1  0
  7  8  1  0
  8  9  2  0
  9 10  1  0
 10 11  2  0
 11 12  1  0
 12 13  2  0
 12 14  1  0
 14 15  1  0
 15 16  2  0
 16 17  1  0
 17 18  2  0
 18 19  1  0
 19 20  2  0
 20 21  1  0
 21 22  1  0
 21 23  1  0
 20 24  1  0
 24 25  2  0
 11 26  1  0
 26 27  2  0
  5 28  1  0
 28 29  2  0
 29  2  1  0
 27  8  1  0
 25 17  1  0
M  END
>  <zinc_id>  (1) 
ZINC000002565251

>  <smiles>  (1) 
Cc1ccc(COc2ccc(C(=O)N/N=C/c3ccc(N(C)C)cc3)cc2)cc1

$$$$
