
     RDKit          3D

 22 24  0  0  0  0  0  0  0  0999 V2000
   -4.1252    2.1842   -0.9228 C   0  0  0  0  0  0  0  0  0  0  0  0
   -3.0391    1.2091   -0.6412 C   0  0  0  0  0  0  0  0  0  0  0  0
   -2.0285    1.5576    0.2260 C   0  0  0  0  0  0  0  0  0  0  0  0
   -1.0116    0.6665    0.5002 C   0  0  0  0  0  0  0  0  0  0  0  0
   -0.9889   -0.5824   -0.0859 C   0  0  0  0  0  0  0  0  0  0  0  0
    0.0691   -1.4884    0.2093 N   0  0  0  0  0  0  0  0  0  0  0  0
    1.1242   -1.2322    1.0652 C   0  0  0  0  0  0  0  0  0  0  0  0
    1.1533   -0.1307    1.6190 O   0  0  0  0  0  0  0  0  0  0  0  0
    2.2366   -2.3272    1.3064 C   0  0  2  0  0  0  0  0  0  0  0  0
    3.2797   -1.5124    2.4168 C   0  0  0  0  0  0  0  0  0  0  0  0
    3.7187   -1.6365    0.7437 C   0  0  2  0  0  0  0  0  0  0  0  0
    3.3522   -0.1970    0.2129 C   0  0  0  0  0  0  0  0  0  0  0  0
    3.5816    0.9383    0.8543 C   0  0  0  0  0  0  0  0  0  0  0  0
    3.2240    2.1400    0.3032 C   0  0  0  0  0  0  0  0  0  0  0  0
    2.6267    2.1755   -0.9153 C   0  0  0  0  0  0  0  0  0  0  0  0
    2.3705    1.0219   -1.6143 C   0  0  0  0  0  0  0  0  0  0  0  0
    2.7525   -0.1980   -1.0159 C   0  0  0  0  0  0  0  0  0  0  0  0
   -2.0145   -0.8973   -0.9474 C   0  0  0  0  0  0  0  0  0  0  0  0
   -3.0589   -0.0465   -1.2601 C   0  0  0  0  0  0  0  0  0  0  0  0
   -4.0969   -0.4056   -2.1505 N   0  0  0  0  0  4  0  0  0  0  0  0
   -4.6300    0.4811   -2.8387 O   0  0  0  0  0  0  0  0  0  0  0  0
   -4.4956   -1.7199   -2.2392 O   0  0  0  0  0  1  0  0  0  0  0  0
  1  2  1  0
  2  3  2  0
  3  4  1  0
  4  5  2  0
  5  6  1  0
  6  7  1  0
  7  8  2  0
  9  7  1  6
  9 10  1  0
 10 11  1  0
 11 12  1  6
 12 13  2  0
 13 14  1  0
 14 15  2  0
 15 16  1  0
 16 17  2  0
  5 18  1  0
 18 19  2  0
 19 20  1  0
 20 21  2  0
 20 22  1  0
 19  2  1  0
 11  9  1  0
 17 12  1  0
M  CHG  2  20   1  22  -1
M  END
>  <zinc_id>  (1) 
ZINC000000300950

>  <smiles>  (1) 
Cc1ccc(NC(=O)[C@@H]2C[C@@H]2c2ccccc2)cc1[N+](=O)[O-]

$$$$
