
     RDKit          3D

 19 20  0  0  0  0  0  0  0  0999 V2000
   -2.3449    2.5514    1.3878 C   0  0  0  0  0  0  0  0  0  0  0  0
   -1.6140    2.0755    0.1526 C   0  0  0  0  0  0  0  0  0  0  0  0
   -2.2847    0.8107   -0.3818 C   0  0  0  0  0  0  0  0  0  0  0  0
   -3.4612    0.8956   -1.0700 C   0  0  0  0  0  0  0  0  0  0  0  0
   -4.2425    2.1535   -1.3993 C   0  0  0  0  0  0  0  0  0  0  0  0
   -3.8110   -0.7219   -1.4487 S   0  0  0  0  0  0  0  0  0  0  0  0
   -2.4602   -1.4698   -0.7280 C   0  0  0  0  0  0  0  0  0  0  0  0
   -2.1235   -2.8825   -0.6768 N   0  0  0  0  0  0  0  0  0  0  0  0
   -1.7537   -0.4178   -0.1976 C   0  0  0  0  0  0  0  0  0  0  0  0
   -0.4783   -0.6554    0.5347 C   0  0  0  0  0  0  0  0  0  0  0  0
   -0.0657   -1.8133    0.6621 O   0  0  0  0  0  0  0  0  0  0  0  0
    0.2895    0.3850    1.0959 N   0  0  0  0  0  0  0  0  0  0  0  0
    1.5197    0.2464    1.8120 C   0  0  0  0  0  0  0  0  0  0  0  0
    2.6923   -0.0201    0.9764 C   0  0  0  0  0  0  0  0  0  0  0  0
    3.2274   -1.2656    0.7568 C   0  0  0  0  0  0  0  0  0  0  0  0
    4.3268   -1.4517   -0.0397 C   0  0  0  0  0  0  0  0  0  0  0  0
    4.8973   -0.3368   -0.6294 C   0  0  0  0  0  0  0  0  0  0  0  0
    4.3787    0.8690   -0.4157 N   0  0  0  0  0  0  0  0  0  0  0  0
    3.3082    1.0478    0.3600 C   0  0  0  0  0  0  0  0  0  0  0  0
  1  2  1  0
  2  3  1  0
  3  4  2  0
  4  5  1  0
  4  6  1  0
  6  7  1  0
  7  8  1  0
  7  9  2  0
  9 10  1  0
 10 11  2  0
 10 12  1  0
 12 13  1  0
 13 14  1  0
 14 15  2  0
 15 16  1  0
 16 17  2  0
 17 18  1  0
 18 19  2  0
  9  3  1  0
 19 14  1  0
M  END
>  <zinc_id>  (1) 
ZINC000000374521

>  <smiles>  (1) 
CCc1c(C)sc(N)c1C(=O)NCc1cccnc1

$$$$
