
     RDKit          3D

 19 20  0  0  0  0  0  0  0  0999 V2000
    3.5042    2.3572   -1.4351 C   0  0  0  0  0  0  0  0  0  0  0  0
    2.8260    1.2077   -0.7882 C   0  0  0  0  0  0  0  0  0  0  0  0
    1.4386    1.1645   -0.7497 C   0  0  0  0  0  0  0  0  0  0  0  0
    0.7844    0.1205   -0.1611 C   0  0  0  0  0  0  0  0  0  0  0  0
   -0.5950    0.0398   -0.0994 O   0  0  0  0  0  0  0  0  0  0  0  0
   -1.3170   -1.0129    0.4886 C   0  0  0  0  0  0  0  0  0  0  0  0
   -2.7128   -0.6987    0.3545 N   0  0  0  0  0  0  0  0  0  0  0  0
   -3.4908   -1.0520   -0.6946 C   0  0  0  0  0  0  0  0  0  0  0  0
   -4.7786   -0.5669   -0.4632 C   0  0  0  0  0  0  0  0  0  0  0  0
   -6.1032   -0.8034   -1.5818 Cl  0  0  0  0  0  0  0  0  0  0  0  0
   -4.7357    0.0690    0.7312 C   0  0  0  0  0  0  0  0  0  0  0  0
   -5.8180    0.7192    1.3712 N   0  0  0  0  0  0  0  0  0  0  0  0
   -3.4781   -0.0209    1.2106 N   0  0  0  0  0  0  0  0  0  0  0  0
    1.5440   -0.9077    0.4047 C   0  0  0  0  0  0  0  0  0  0  0  0
    2.9411   -0.8513    0.3589 C   0  0  0  0  0  0  0  0  0  0  0  0
    3.5904    0.2091   -0.2390 C   0  0  0  0  0  0  0  0  0  0  0  0
    5.0636    0.3400   -0.3276 C   0  0  0  0  0  0  0  0  0  0  0  0
    5.7998   -0.7278    0.4557 C   0  0  0  0  0  0  0  0  0  0  0  0
    5.5369    0.4146   -1.7638 C   0  0  0  0  0  0  0  0  0  0  0  0
  1  2  1  0
  2  3  2  0
  3  4  1  0
  4  5  1  0
  5  6  1  0
  6  7  1  0
  7  8  1  0
  8  9  2  0
  9 10  1  0
  9 11  1  0
 11 12  1  0
 11 13  2  0
  4 14  2  0
 14 15  1  0
 15 16  2  0
 16 17  1  0
 17 18  1  0
 17 19  1  0
 16  2  1  0
 13  7  1  0
M  END
>  <zinc_id>  (1) 
ZINC000002534899

>  <smiles>  (1) 
Cc1cc(OCn2cc(Cl)c(N)n2)ccc1C(C)C

$$$$
