
     RDKit          3D

 30 33  0  0  0  0  0  0  0  0999 V2000
    8.4198   -2.5266    1.0840 C   0  0  0  0  0  0  0  0  0  0  0  0
    7.0132   -2.0471    1.0758 C   0  0  0  0  0  0  0  0  0  0  0  0
    6.7440   -0.7455    1.4886 C   0  0  0  0  0  0  0  0  0  0  0  0
    5.4394   -0.2737    1.4900 C   0  0  0  0  0  0  0  0  0  0  0  0
    4.3690   -1.0475    1.0935 C   0  0  0  0  0  0  0  0  0  0  0  0
    2.9934   -0.5594    1.0912 C   0  0  0  0  0  0  0  0  0  0  0  0
    2.6506    0.6076    1.4491 N   0  0  0  0  0  0  0  0  0  0  0  0
    1.3803    1.1519    1.4791 N   0  0  0  0  0  0  0  0  0  0  0  0
    1.1007    2.5246    1.2594 C   0  0  0  0  0  0  0  0  0  0  0  0
    2.0608    3.2942    1.0221 O   0  0  0  0  0  0  0  0  0  0  0  0
   -0.2711    3.0705    1.3014 C   0  0  0  0  0  0  0  0  0  0  0  0
   -1.4122    1.7296    1.6498 S   0  0  0  0  0  0  0  0  0  0  0  0
   -1.4068    0.6051    0.2450 C   0  0  0  0  0  0  0  0  0  0  0  0
   -0.6191   -0.4646    0.0260 N   0  0  0  0  0  0  0  0  0  0  0  0
   -0.9731   -1.0117   -1.1662 C   0  0  0  0  0  0  0  0  0  0  0  0
   -0.5059   -2.1058   -1.8740 C   0  0  0  0  0  0  0  0  0  0  0  0
   -1.0796   -2.4126   -3.0784 C   0  0  0  0  0  0  0  0  0  0  0  0
   -2.1061   -1.6679   -3.6081 C   0  0  0  0  0  0  0  0  0  0  0  0
   -2.5682   -0.5848   -2.9068 C   0  0  0  0  0  0  0  0  0  0  0  0
   -1.9931   -0.2733   -1.6946 C   0  0  0  0  0  0  0  0  0  0  0  0
   -2.2424    0.7270   -0.7943 N   0  0  0  0  0  0  0  0  0  0  0  0
   -3.2576    1.7506   -0.9572 C   0  0  0  0  0  0  0  0  0  0  0  0
   -4.5305    1.3106   -0.3768 C   0  0  0  0  0  0  0  0  0  0  0  0
   -4.7858    1.5788    0.9395 C   0  0  0  0  0  0  0  0  0  0  0  0
   -5.9814    1.1651    1.4821 C   0  0  0  0  0  0  0  0  0  0  0  0
   -6.9415    0.4899    0.7633 C   0  0  0  0  0  0  0  0  0  0  0  0
   -6.6402    0.2410   -0.5626 C   0  0  0  0  0  0  0  0  0  0  0  0
   -5.4536    0.6416   -1.1349 C   0  0  0  0  0  0  0  0  0  0  0  0
    4.6463   -2.3410    0.6845 C   0  0  0  0  0  0  0  0  0  0  0  0
    5.9510   -2.8264    0.6784 C   0  0  0  0  0  0  0  0  0  0  0  0
  1  2  1  0
  2  3  2  0
  3  4  1  0
  4  5  2  0
  5  6  1  0
  6  7  2  0
  7  8  1  0
  8  9  1  0
  9 10  2  0
  9 11  1  0
 11 12  1  0
 12 13  1  0
 13 14  2  0
 14 15  1  0
 15 16  2  0
 16 17  1  0
 17 18  2  0
 18 19  1  0
 19 20  2  0
 20 21  1  0
 21 22  1  0
 22 23  1  0
 23 24  2  0
 24 25  1  0
 25 26  2  0
 26 27  1  0
 27 28  2  0
  5 29  1  0
 29 30  2  0
 30  2  1  0
 21 13  1  0
 28 23  1  0
 20 15  1  0
M  END
>  <zinc_id>  (1) 
ZINC000001246423

>  <smiles>  (1) 
Cc1ccc(/C=N/NC(=O)CSc2nc3ccccc3n2Cc2ccccc2)cc1

$$$$
