
     RDKit          3D

 18 19  0  0  0  0  0  0  0  0999 V2000
   -0.2262   -0.9559   -0.4701 O   0  0  0  0  0  0  0  0  0  0  0  0
   -0.1578    0.2952   -0.2295 C   0  0  0  0  0  0  0  0  0  0  0  0
    1.1304    0.9974   -0.4502 C   0  0  0  0  0  0  0  0  0  0  0  0
    2.1797    0.0297   -0.9501 C   0  0  0  0  0  0  0  0  0  0  0  0
    3.4945    0.7143   -1.1820 C   0  0  0  0  0  0  0  0  0  0  0  0
    4.0676    1.3518    0.0465 C   0  0  0  0  0  0  0  0  0  0  0  0
    4.1496    0.3296    1.1608 C   0  0  0  0  0  0  0  0  0  0  0  0
    3.8219   -1.0545    0.6378 C   0  0  0  0  0  0  0  0  0  0  0  0
    4.5846   -1.3857   -0.6105 C   0  0  0  0  0  0  0  0  0  0  0  0
    4.4794   -0.3285   -1.6648 C   0  0  0  0  0  0  0  0  0  0  0  0
   -1.3257    0.9168    0.2322 N   0  0  0  0  0  0  0  0  0  0  0  0
   -2.5467    0.1875    0.4281 C   0  0  0  0  0  0  0  0  0  0  0  0
   -2.6456   -1.1656    0.1749 C   0  0  0  0  0  0  0  0  0  0  0  0
   -3.8304   -1.8487    0.3702 C   0  0  0  0  0  0  0  0  0  0  0  0
   -4.9642   -1.2108    0.8256 C   0  0  0  0  0  0  0  0  0  0  0  0
   -4.8752    0.1398    1.0810 C   0  0  0  0  0  0  0  0  0  0  0  0
   -3.6877    0.8146    0.8832 C   0  0  0  0  0  0  0  0  0  0  0  0
   -3.6483    2.1731    1.1545 O   0  0  0  0  0  0  0  0  0  0  0  0
  1  2  2  0
  2  3  1  0
  3  4  1  0
  4  5  1  0
  5  6  1  0
  6  7  1  0
  7  8  1  0
  8  9  1  0
  9 10  1  0
  2 11  1  0
 11 12  1  0
 12 13  2  0
 13 14  1  0
 14 15  2  0
 15 16  1  0
 16 17  2  0
 17 18  1  0
 10  5  1  0
 17 12  1  0
M  END
>  <zinc_id>  (1) 
ZINC000000461058

>  <smiles>  (1) 
O=C(CCC1CCCCC1)Nc1ccccc1O

$$$$
