
     RDKit          3D

 19 21  0  0  0  0  0  0  0  0999 V2000
    5.0218   -0.5183    2.1759 C   0  0  0  0  0  0  0  0  0  0  0  0
    3.8958   -0.1667    3.0546 C   0  0  0  0  0  0  0  0  0  0  0  0
    2.5258   -0.0291    2.1470 C   0  0  1  0  0  0  0  0  0  0  0  0
    3.1472    1.1792    1.1969 C   0  0  0  0  0  0  0  0  0  0  0  0
    2.9219   -1.1780    1.1395 N   0  0  0  0  0  0  0  0  0  0  0  0
    1.9131   -1.3829    0.1206 C   0  0  0  0  0  0  0  0  0  0  0  0
    0.7681   -0.7639   -0.0609 N   0  0  0  0  0  0  0  0  0  0  0  0
   -0.0053   -1.1018   -1.0491 C   0  0  0  0  0  0  0  0  0  0  0  0
   -1.3141   -0.4263   -1.2933 C   0  0  0  0  0  0  0  0  0  0  0  0
   -2.2144   -0.6905   -2.2956 C   0  0  0  0  0  0  0  0  0  0  0  0
   -3.2810    0.1295   -2.1861 N   0  0  0  0  0  0  0  0  0  0  0  0
   -3.1139    0.9454   -1.1221 C   0  0  0  0  0  0  0  0  0  0  0  0
   -3.8483    1.9538   -0.5385 C   0  0  0  0  0  0  0  0  0  0  0  0
   -3.3583    2.5921    0.5731 C   0  0  0  0  0  0  0  0  0  0  0  0
   -2.1489    2.2506    1.1224 C   0  0  0  0  0  0  0  0  0  0  0  0
   -1.4034    1.2474    0.5534 C   0  0  0  0  0  0  0  0  0  0  0  0
   -1.8972    0.5948   -0.5776 C   0  0  0  0  0  0  0  0  0  0  0  0
    0.4468   -2.1214   -1.8648 C   0  0  0  0  0  0  0  0  0  0  0  0
    1.9442   -2.5139   -1.1498 S   0  0  0  0  0  0  0  0  0  0  0  0
  1  2  1  0
  2  3  1  0
  3  4  1  6
  3  5  1  0
  5  6  1  0
  6  7  2  0
  7  8  1  0
  8  9  1  0
  9 10  2  0
 10 11  1  0
 11 12  1  0
 12 13  2  0
 13 14  1  0
 14 15  2  0
 15 16  1  0
 16 17  2  0
  8 18  2  0
 18 19  1  0
 19  6  1  0
 17  9  1  0
 17 12  1  0
M  END
>  <zinc_id>  (1) 
ZINC000003351615

>  <smiles>  (1) 
CC[C@@H](C)Nc1nc(-c2c[nH]c3ccccc23)cs1

$$$$
