
     RDKit          3D

 31 34  0  0  0  0  0  0  0  0999 V2000
   -7.0109   -0.6008   -0.0481 C   0  0  0  0  0  0  0  0  0  0  0  0
   -5.6012   -0.6062   -0.0506 O   0  0  0  0  0  0  0  0  0  0  0  0
   -4.9028   -1.7058   -0.5093 C   0  0  0  0  0  0  0  0  0  0  0  0
   -5.5795   -2.8127   -0.9708 C   0  0  0  0  0  0  0  0  0  0  0  0
   -4.9148   -3.9333   -1.4382 C   0  0  0  0  0  0  0  0  0  0  0  0
   -3.5447   -3.9207   -1.4332 C   0  0  0  0  0  0  0  0  0  0  0  0
   -2.8463   -2.8060   -0.9685 C   0  0  0  0  0  0  0  0  0  0  0  0
   -3.5217   -1.7074   -0.5103 C   0  0  0  0  0  0  0  0  0  0  0  0
   -2.8361   -0.5440   -0.0253 N   0  0  0  0  0  0  0  0  0  0  0  0
   -1.4075   -0.5514   -0.0285 C   0  0  0  0  0  0  0  0  0  0  0  0
   -0.8019   -1.5649   -0.4511 O   0  0  0  0  0  0  0  0  0  0  0  0
   -0.6131    0.6044    0.4534 C   0  0  0  0  0  0  0  0  0  0  0  0
    0.7531    0.5781    0.4424 C   0  0  0  0  0  0  0  0  0  0  0  0
    1.6494   -0.4458    0.0154 N   0  0  0  0  0  0  0  0  0  0  0  0
    3.0466   -0.2809    0.0842 C   0  0  0  0  0  0  0  0  0  0  0  0
    3.5179    0.7810    0.5269 O   0  0  0  0  0  0  0  0  0  0  0  0
    3.9256   -1.3615   -0.3664 C   0  0  0  0  0  0  0  0  0  0  0  0
    5.3665   -1.0334   -0.2297 C   0  0  0  0  0  0  0  0  0  0  0  0
    5.9704   -0.4212   -1.3105 C   0  0  0  0  0  0  0  0  0  0  0  0
    7.3101   -0.0640   -1.3084 C   0  0  0  0  0  0  0  0  0  0  0  0
    8.0408   -0.3325   -0.1961 C   0  0  0  0  0  0  0  0  0  0  0  0
    7.4648   -0.9415    0.8950 C   0  0  0  0  0  0  0  0  0  0  0  0
    6.1155   -1.2942    0.8759 C   0  0  0  0  0  0  0  0  0  0  0  0
    1.1838    2.1032    1.0782 S   0  0  0  0  0  0  0  0  0  0  0  0
   -0.3921    2.7436    1.3454 C   0  0  0  0  0  0  0  0  0  0  0  0
   -1.1979    1.7159    0.9168 C   0  0  0  0  0  0  0  0  0  0  0  0
   -2.6437    2.1690    1.1000 C   0  0  0  0  0  0  0  0  0  0  0  0
   -2.7357    3.2579    0.0977 C   0  0  0  0  0  0  0  0  0  0  0  0
   -1.9627    4.5929    0.6284 C   0  0  2  0  0  0  0  0  0  0  0  0
   -0.7341    4.4487   -0.4603 C   0  0  0  0  0  0  0  0  0  0  0  0
   -1.0976    3.9333    1.8457 C   0  0  0  0  0  0  0  0  0  0  0  0
  1  2  1  0
  2  3  1  0
  3  4  2  0
  4  5  1  0
  5  6  2  0
  6  7  1  0
  7  8  2  0
  8  9  1  0
  9 10  1  0
 10 11  2  0
 10 12  1  0
 12 13  2  0
 13 14  1  0
 14 15  1  0
 15 16  2  0
 15 17  1  0
 17 18  1  0
 18 19  2  0
 19 20  1  0
 20 21  2  0
 21 22  1  0
 22 23  2  0
 13 24  1  0
 24 25  1  0
 25 26  2  0
 26 27  1  0
 27 28  1  0
 28 29  1  0
 29 30  1  6
 29 31  1  0
  8  3  1  0
 26 12  1  0
 23 18  1  0
 31 25  1  0
M  END
>  <zinc_id>  (1) 
ZINC000001081624

>  <smiles>  (1) 
COc1ccccc1NC(=O)c1c(NC(=O)Cc2ccccc2)sc2c1CC[C@H](C)C2

$$$$
