
     RDKit          3D

 19 21  0  0  0  0  0  0  0  0999 V2000
   -0.4948    0.8280   -2.0982 O   0  0  0  0  0  0  0  0  0  0  0  0
    0.0797    0.3017   -1.1403 C   0  0  0  0  0  0  0  0  0  0  0  0
   -0.6339   -0.0503    0.0107 N   0  0  0  0  0  0  0  0  0  0  0  0
   -2.0337    0.1711    0.1461 C   0  0  0  0  0  0  0  0  0  0  0  0
   -2.6737   -0.2018    1.3115 C   0  0  0  0  0  0  0  0  0  0  0  0
   -4.0328    0.0102    1.4498 C   0  0  0  0  0  0  0  0  0  0  0  0
   -4.7923    0.5927    0.4473 C   0  0  0  0  0  0  0  0  0  0  0  0
   -6.1601    0.8078    0.5824 O   0  0  0  0  0  0  0  0  0  0  0  0
   -4.1510    0.9657   -0.7190 C   0  0  0  0  0  0  0  0  0  0  0  0
   -2.7995    0.7482   -0.8409 C   0  0  0  0  0  0  0  0  0  0  0  0
    1.5406    0.0488   -1.2309 C   0  0  0  0  0  0  0  0  0  0  0  0
    2.6259    0.3762   -2.4971 S   0  0  0  0  0  0  0  0  0  0  0  0
    4.0548   -0.2135   -1.7890 C   0  0  0  0  0  0  0  0  0  0  0  0
    3.6407   -0.6570   -0.5646 C   0  0  0  0  0  0  0  0  0  0  0  0
    2.3362   -0.5243   -0.2671 C   0  0  0  0  0  0  0  0  0  0  0  0
    1.9087   -1.0301    1.1085 C   0  0  0  0  0  0  0  0  0  0  0  0
    2.8104   -0.4422    2.1527 C   0  0  0  0  0  0  0  0  0  0  0  0
    4.2627   -0.4375    1.7505 C   0  0  0  0  0  0  0  0  0  0  0  0
    4.5123   -1.2935    0.5116 C   0  0  0  0  0  0  0  0  0  0  0  0
  1  2  2  0
  2  3  1  0
  3  4  1  0
  4  5  2  0
  5  6  1  0
  6  7  2  0
  7  8  1  0
  7  9  1  0
  9 10  2  0
  2 11  1  0
 11 12  1  0
 12 13  1  0
 13 14  2  0
 14 15  1  0
 15 16  1  0
 16 17  1  0
 17 18  1  0
 18 19  1  0
 10  4  1  0
 15 11  2  0
 19 14  1  0
M  END
>  <zinc_id>  (1) 
ZINC000000092117

>  <smiles>  (1) 
O=C(Nc1ccc(O)cc1)c1scc2c1CCCC2

$$$$
