
     RDKit          3D

 32 35  0  0  0  0  0  0  0  0999 V2000
   -6.7635   -0.1216   -1.8786 C   0  0  0  0  0  0  0  0  0  0  0  0
   -5.6248   -1.0215   -2.2866 C   0  0  0  0  0  0  0  0  0  0  0  0
   -4.4138   -0.7171   -1.6438 O   0  0  0  0  0  0  0  0  0  0  0  0
   -4.3028   -0.7641   -0.2419 C   0  0  0  0  0  0  0  0  0  0  0  0
   -5.4110   -1.1168    0.4877 C   0  0  0  0  0  0  0  0  0  0  0  0
   -5.2983   -1.1615    1.8598 C   0  0  0  0  0  0  0  0  0  0  0  0
   -4.0970   -0.8561    2.4449 C   0  0  0  0  0  0  0  0  0  0  0  0
   -2.9958   -0.5054    1.7058 C   0  0  0  0  0  0  0  0  0  0  0  0
   -3.0890   -0.4552    0.3404 C   0  0  0  0  0  0  0  0  0  0  0  0
   -2.0279   -0.1138   -0.4858 N   0  0  0  0  0  0  0  0  0  0  0  0
   -0.7084    0.2175   -0.1680 C   0  0  0  0  0  0  0  0  0  0  0  0
    0.3023   -0.6757   -0.3226 C   0  0  0  0  0  0  0  0  0  0  0  0
    0.0969   -2.3272   -0.9266 S   0  0  0  0  0  0  0  0  0  0  0  0
    1.5990   -3.1988   -1.1658 C   0  0  0  0  0  0  0  0  0  0  0  0
    2.8650   -2.7680   -0.9874 C   0  0  0  0  0  0  0  0  0  0  0  0
    3.9649   -3.5524   -1.2095 C   0  0  0  0  0  0  0  0  0  0  0  0
    3.7755   -4.8631   -1.6419 C   0  0  0  0  0  0  0  0  0  0  0  0
    2.4975   -5.3409   -1.8365 C   0  0  0  0  0  0  0  0  0  0  0  0
    1.4380   -4.5319   -1.6049 C   0  0  0  0  0  0  0  0  0  0  0  0
    1.5279   -0.0158    0.0861 C   0  0  0  0  0  0  0  0  0  0  0  0
    2.7126   -0.4236    0.1244 O   0  0  0  0  0  0  0  0  0  0  0  0
    1.2461    1.3412    0.5077 N   0  0  0  0  0  0  0  0  0  0  0  0
    2.1475    2.3248    0.9806 C   0  0  0  0  0  0  0  0  0  0  0  0
    2.7781    2.1213    2.1906 C   0  0  0  0  0  0  0  0  0  0  0  0
    3.6744    3.0592    2.6911 C   0  0  0  0  0  0  0  0  0  0  0  0
    3.9523    4.2227    1.9789 C   0  0  0  0  0  0  0  0  0  0  0  0
    3.3278    4.4298    0.7743 C   0  0  0  0  0  0  0  0  0  0  0  0
    3.6300    5.6883    0.0019 C   0  0  0  0  0  0  0  0  0  0  0  0
    2.4482    3.4877    0.3047 C   0  0  0  0  0  0  0  0  0  0  0  0
    1.7590    3.6901   -1.0043 C   0  0  0  0  0  0  0  0  0  0  0  0
   -0.1522    1.4651    0.3413 C   0  0  0  0  0  0  0  0  0  0  0  0
   -0.8586    2.4829    0.5840 O   0  0  0  0  0  0  0  0  0  0  0  0
  1  2  1  0
  2  3  1  0
  3  4  1  0
  4  5  2  0
  5  6  1  0
  6  7  2  0
  7  8  1  0
  8  9  2  0
  9 10  1  0
 10 11  1  0
 11 12  2  0
 12 13  1  0
 13 14  1  0
 14 15  2  0
 15 16  1  0
 16 17  2  0
 17 18  1  0
 18 19  2  0
 12 20  1  0
 20 21  2  0
 20 22  1  0
 22 23  1  0
 23 24  2  0
 24 25  1  0
 25 26  2  0
 26 27  1  0
 27 28  1  0
 27 29  2  0
 29 30  1  0
 22 31  1  0
 31 32  2  0
  9  4  1  0
 31 11  1  0
 19 14  1  0
 29 23  1  0
M  END
>  <zinc_id>  (1) 
ZINC000001929950

>  <smiles>  (1) 
CCOc1ccccc1NC1=C(Sc2ccccc2)C(=O)N(c2cccc(C)c2C)C1=O

$$$$
