
     RDKit          3D

 31 34  0  0  0  0  0  0  0  0999 V2000
   -4.4266   -5.8114    0.4187 C   0  0  0  0  0  0  0  0  0  0  0  0
   -3.2931   -4.9122    0.1027 C   0  0  0  0  0  0  0  0  0  0  0  0
   -2.1883   -5.3946   -0.5601 C   0  0  0  0  0  0  0  0  0  0  0  0
   -1.1650   -4.5455   -0.8356 C   0  0  0  0  0  0  0  0  0  0  0  0
   -1.1930   -3.1806   -0.4657 C   0  0  0  0  0  0  0  0  0  0  0  0
    0.2065   -2.1761   -0.8834 S   0  0  0  0  0  0  0  0  0  0  0  0
    0.0227   -0.4995   -0.3563 C   0  0  0  0  0  0  0  0  0  0  0  0
    1.0061    0.4128   -0.5959 C   0  0  0  0  0  0  0  0  0  0  0  0
    2.2324    0.1219   -1.2677 N   0  0  0  0  0  0  0  0  0  0  0  0
    3.4648    0.0795   -0.5552 C   0  0  0  0  0  0  0  0  0  0  0  0
    3.5502    0.3131    0.8069 C   0  0  0  0  0  0  0  0  0  0  0  0
    4.7566    0.2671    1.4790 C   0  0  0  0  0  0  0  0  0  0  0  0
    4.7995    0.5253    2.9453 C   0  0  0  0  0  0  0  0  0  0  0  0
    5.8841   -0.0195    0.7555 C   0  0  0  0  0  0  0  0  0  0  0  0
    5.8142   -0.2515   -0.5856 C   0  0  0  0  0  0  0  0  0  0  0  0
    4.5964   -0.2030   -1.2532 C   0  0  0  0  0  0  0  0  0  0  0  0
    4.6209   -0.4716   -2.7252 C   0  0  0  0  0  0  0  0  0  0  0  0
    0.5688    1.6870   -0.0507 C   0  0  0  0  0  0  0  0  0  0  0  0
    1.2459    2.7522   -0.1016 O   0  0  0  0  0  0  0  0  0  0  0  0
   -0.7024    1.5576    0.5332 N   0  0  0  0  0  0  0  0  0  0  0  0
   -1.4852    2.5673    1.1772 C   0  0  0  0  0  0  0  0  0  0  0  0
   -2.3726    3.2816    0.2600 C   0  0  0  0  0  0  0  0  0  0  0  0
   -1.9685    4.4140   -0.3948 C   0  0  0  0  0  0  0  0  0  0  0  0
   -2.8065    5.0754   -1.2513 C   0  0  0  0  0  0  0  0  0  0  0  0
   -4.0983    4.5991   -1.4710 C   0  0  0  0  0  0  0  0  0  0  0  0
   -4.5252    3.4613   -0.8222 C   0  0  0  0  0  0  0  0  0  0  0  0
   -3.6514    2.8206    0.0348 C   0  0  0  0  0  0  0  0  0  0  0  0
   -1.0618    0.1752    0.3468 C   0  0  0  0  0  0  0  0  0  0  0  0
   -2.1574   -0.2820    0.7598 O   0  0  0  0  0  0  0  0  0  0  0  0
   -2.3158   -2.7700    0.1871 C   0  0  0  0  0  0  0  0  0  0  0  0
   -3.3581   -3.5933    0.4786 C   0  0  0  0  0  0  0  0  0  0  0  0
  1  2  1  0
  2  3  2  0
  3  4  1  0
  4  5  2  0
  5  6  1  0
  6  7  1  0
  7  8  2  0
  8  9  1  0
  9 10  1  0
 10 11  2  0
 11 12  1  0
 12 13  1  0
 12 14  2  0
 14 15  1  0
 15 16  2  0
 16 17  1  0
  8 18  1  0
 18 19  2  0
 18 20  1  0
 20 21  1  0
 21 22  1  0
 22 23  2  0
 23 24  1  0
 24 25  2  0
 25 26  1  0
 26 27  2  0
 20 28  1  0
 28 29  2  0
  5 30  1  0
 30 31  2  0
 31  2  1  0
 28  7  1  0
 16 10  1  0
 27 22  1  0
M  END
>  <zinc_id>  (1) 
ZINC000001932153

>  <smiles>  (1) 
Cc1ccc(SC2=C(Nc3cc(C)ccc3C)C(=O)N(Cc3ccccc3)C2=O)cc1

$$$$
