
     RDKit          3D

 20 22  0  0  0  0  0  0  0  0999 V2000
   -3.1134   -1.2944    1.2902 C   0  0  0  0  0  0  0  0  0  0  0  0
   -2.3249   -1.8384    2.3462 C   0  0  2  0  0  0  0  0  0  0  0  0
   -2.7389   -2.9160    3.2312 C   0  0  0  0  0  0  0  0  0  0  0  0
   -1.5715   -3.5491    3.9389 C   0  0  0  0  0  0  0  0  0  0  0  0
   -1.0172   -2.4644    4.8504 C   0  0  0  0  0  0  0  0  0  0  0  0
   -1.7348   -1.2373    4.7381 C   0  0  0  0  0  0  0  0  0  0  0  0
   -1.7604   -0.5383    3.2787 C   0  0  1  0  0  0  0  0  0  0  0  0
   -0.6725   -1.5384    2.4213 C   0  0  2  0  0  0  0  0  0  0  0  0
   -0.4322   -0.6063    1.1754 C   0  0  0  0  0  0  0  0  0  0  0  0
   -1.3635   -0.2773    0.4331 O   0  0  0  0  0  0  0  0  0  0  0  0
    0.8635   -0.1514    0.9182 N   0  0  0  0  0  0  0  0  0  0  0  0
    1.0223    0.6728   -0.1994 N   0  0  0  0  0  0  0  0  0  0  0  0
    1.5646    0.2456   -1.3017 C   0  0  0  0  0  0  0  0  0  0  0  0
    1.6941    1.1689   -2.4234 C   0  0  0  0  0  0  0  0  0  0  0  0
    1.2811    2.4844   -2.4129 C   0  0  0  0  0  0  0  0  0  0  0  0
    1.4291    3.3136   -3.5058 C   0  0  0  0  0  0  0  0  0  0  0  0
    2.0019    2.8567   -4.6655 C   0  0  0  0  0  0  0  0  0  0  0  0
    2.1840    3.6242   -5.7987 O   0  0  0  0  0  0  0  0  0  0  0  0
    2.4242    1.5512   -4.7094 C   0  0  0  0  0  0  0  0  0  0  0  0
    2.2644    0.7458   -3.6049 C   0  0  0  0  0  0  0  0  0  0  0  0
  2  1  1  6
  2  3  1  0
  3  4  1  0
  4  5  1  0
  5  6  1  0
  7  6  1  1
  7  8  1  0
  8  9  1  6
  9 10  2  0
  9 11  1  0
 11 12  1  0
 12 13  2  0
 13 14  1  0
 14 15  2  0
 15 16  1  0
 16 17  2  0
 17 18  1  0
 17 19  1  0
 19 20  2  0
  7  2  1  0
 20 14  1  0
  8  2  1  0
M  END
>  <zinc_id>  (1) 
ZINC000000222225

>  <smiles>  (1) 
C[C@]12CCCC[C@H]1[C@@H]2C(=O)N/N=C/c1ccc(O)cc1

$$$$
