
     RDKit          3D

 22 24  0  0  0  0  0  0  0  0999 V2000
    0.9767    4.8622    0.5510 C   0  0  0  0  0  0  0  0  0  0  0  0
    0.4128    3.6034    0.8668 O   0  0  0  0  0  0  0  0  0  0  0  0
    0.2547    2.5837   -0.0349 C   0  0  0  0  0  0  0  0  0  0  0  0
    0.6394    2.7874   -1.2229 O   0  0  0  0  0  0  0  0  0  0  0  0
   -0.3406    1.3144    0.3870 C   0  0  0  0  0  0  0  0  0  0  0  0
   -0.7071    1.1903    1.6226 C   0  0  0  0  0  0  0  0  0  0  0  0
   -0.4936    2.3384    2.4999 N   0  0  0  0  0  0  0  0  0  0  0  0
   -1.2840    0.0479    2.1607 O   0  0  0  0  0  0  0  0  0  0  0  0
   -1.4571   -0.9966    1.2799 C   0  0  0  0  0  0  0  0  0  0  0  0
   -1.1366   -1.0018    0.0302 C   0  0  0  0  0  0  0  0  0  0  0  0
   -1.3776   -2.1945   -0.8118 C   0  0  0  0  0  0  0  0  0  0  0  0
   -0.5466   -2.3529   -1.6918 O   0  0  0  0  0  0  0  0  0  0  0  0
   -2.5215   -3.0488   -0.5508 C   0  0  0  0  0  0  0  0  0  0  0  0
   -3.1576   -2.6955    0.8022 C   0  0  0  0  0  0  0  0  0  0  0  0
   -2.0847   -2.2926    1.7915 C   0  0  0  0  0  0  0  0  0  0  0  0
   -0.5023    0.1932   -0.6487 C   0  0  2  0  0  0  0  0  0  0  0  0
    0.9417   -0.2596   -0.9987 C   0  0  0  0  0  0  0  0  0  0  0  0
    1.5994   -0.0223   -2.1322 C   0  0  0  0  0  0  0  0  0  0  0  0
    2.9101   -0.4760   -2.3560 C   0  0  0  0  0  0  0  0  0  0  0  0
    3.4942   -1.1833   -1.3462 C   0  0  0  0  0  0  0  0  0  0  0  0
    2.8383   -1.4402   -0.1716 C   0  0  0  0  0  0  0  0  0  0  0  0
    1.5419   -0.9568   -0.0262 C   0  0  0  0  0  0  0  0  0  0  0  0
  1  2  1  0
  2  3  1  0
  3  4  2  0
  3  5  1  0
  5  6  2  0
  6  7  1  0
  6  8  1  0
  8  9  1  0
  9 10  2  0
 10 11  1  0
 11 12  2  0
 11 13  1  0
 13 14  1  0
 14 15  1  0
 10 16  1  0
 16 17  1  6
 17 18  2  0
 18 19  1  0
 19 20  2  0
 20 21  1  0
 21 22  2  0
 16  5  1  0
 22 17  1  0
 15  9  1  0
M  END
>  <zinc_id>  (1) 
ZINC000000536291

>  <smiles>  (1) 
COC(=O)C1=C(N)OC2=C(C(=O)CCC2)[C@H]1c1ccccc1

$$$$
