
     RDKit          3D

 19 20  0  0  0  0  0  0  0  0999 V2000
    0.6988   -1.9201    0.4355 O   0  0  0  0  0  0  0  0  0  0  0  0
    0.3368   -0.9359   -0.2250 C   0  0  0  0  0  0  0  0  0  0  0  0
    1.2649   -0.2778   -1.0517 N   0  0  0  0  0  0  0  0  0  0  0  0
    2.6254   -0.7735   -1.1067 C   0  0  0  0  0  0  0  0  0  0  0  0
    3.2497   -0.7239    0.2672 C   0  0  0  0  0  0  0  0  0  0  0  0
    4.6552   -1.2203    0.2894 C   0  0  0  0  0  0  0  0  0  0  0  0
    5.5514   -0.1534    0.8421 C   0  0  0  0  0  0  0  0  0  0  0  0
    5.3652    1.1527    0.0941 C   0  0  0  0  0  0  0  0  0  0  0  0
    3.9582    1.6798    0.2758 C   0  0  0  0  0  0  0  0  0  0  0  0
    3.0828    0.6262    0.9203 C   0  0  0  0  0  0  0  0  0  0  0  0
   -1.0672   -0.4823   -0.1222 C   0  0  0  0  0  0  0  0  0  0  0  0
   -1.4943    0.6126   -0.8493 C   0  0  0  0  0  0  0  0  0  0  0  0
   -2.8056    1.0277   -0.7465 C   0  0  0  0  0  0  0  0  0  0  0  0
   -3.7209    0.3892    0.0609 C   0  0  0  0  0  0  0  0  0  0  0  0
   -5.0518    0.8356    0.1454 N   0  0  0  0  0  4  0  0  0  0  0  0
   -5.4759    1.8155   -0.4914 O   0  0  0  0  0  0  0  0  0  0  0  0
   -5.9258    0.1684    0.9619 O   0  0  0  0  0  1  0  0  0  0  0  0
   -3.2781   -0.7005    0.7787 C   0  0  0  0  0  0  0  0  0  0  0  0
   -1.9688   -1.1198    0.6799 C   0  0  0  0  0  0  0  0  0  0  0  0
  1  2  2  0
  2  3  1  0
  3  4  1  0
  4  5  1  0
  5  6  1  0
  6  7  1  0
  7  8  1  0
  8  9  1  0
  9 10  1  0
  2 11  1  0
 11 12  2  0
 12 13  1  0
 13 14  2  0
 14 15  1  0
 15 16  2  0
 15 17  1  0
 14 18  1  0
 18 19  2  0
 10  5  1  0
 19 11  1  0
M  CHG  2  15   1  17  -1
M  END
>  <zinc_id>  (1) 
ZINC000003549771

>  <smiles>  (1) 
O=C(NCC1CCCCC1)c1ccc([N+](=O)[O-])cc1

$$$$
