
     RDKit          3D

 30 33  0  0  0  0  0  0  0  0999 V2000
   -5.2756    4.9337   -0.6552 C   0  0  0  0  0  0  0  0  0  0  0  0
   -4.2353    4.0410   -1.3227 C   0  0  0  0  0  0  0  0  0  0  0  0
   -3.2679    3.5203   -0.2915 C   0  0  0  0  0  0  0  0  0  0  0  0
   -3.9522    2.7077    0.7789 C   0  0  0  0  0  0  0  0  0  0  0  0
   -2.9161    2.2293    1.7605 C   0  0  0  0  0  0  0  0  0  0  0  0
   -1.9523    1.4129    1.0400 N   0  0  0  0  0  0  0  0  0  0  0  0
   -0.8274    1.8241    0.4434 C   0  0  0  0  0  0  0  0  0  0  0  0
   -0.3380    3.1648    0.3927 N   0  0  0  0  0  0  0  0  0  0  0  0
   -0.1701    0.7606   -0.1398 C   0  0  0  0  0  0  0  0  0  0  0  0
    1.0800    0.7598   -0.8835 C   0  0  0  0  0  0  0  0  0  0  0  0
    1.7056    1.8283   -1.0614 O   0  0  0  0  0  0  0  0  0  0  0  0
    1.5900   -0.4411   -1.4059 N   0  0  0  0  0  0  0  0  0  0  0  0
    2.8334   -0.5225   -2.1614 C   0  0  0  0  0  0  0  0  0  0  0  0
    3.9986   -0.4351   -1.2451 C   0  0  0  0  0  0  0  0  0  0  0  0
    5.2421   -0.4402   -1.8395 C   0  0  0  0  0  0  0  0  0  0  0  0
    6.3837   -0.3671   -1.1106 C   0  0  0  0  0  0  0  0  0  0  0  0
    6.2544   -0.2864    0.2705 C   0  0  0  0  0  0  0  0  0  0  0  0
    7.5206   -0.2063    1.0542 C   0  0  0  0  0  0  0  0  0  0  0  0
    5.0026   -0.2807    0.8861 C   0  0  0  0  0  0  0  0  0  0  0  0
    3.8618   -0.3554    0.1217 C   0  0  0  0  0  0  0  0  0  0  0  0
   -0.9771   -0.3397    0.1432 C   0  0  0  0  0  0  0  0  0  0  0  0
   -0.8104   -1.6328   -0.1888 N   0  0  0  0  0  0  0  0  0  0  0  0
   -1.6893   -2.5823    0.1644 C   0  0  0  0  0  0  0  0  0  0  0  0
   -1.5343   -3.9103   -0.1662 C   0  0  0  0  0  0  0  0  0  0  0  0
   -2.4526   -4.8686    0.2094 C   0  0  0  0  0  0  0  0  0  0  0  0
   -3.5479   -4.4498    0.9378 C   0  0  0  0  0  0  0  0  0  0  0  0
   -3.7114   -3.1194    1.2742 C   0  0  0  0  0  0  0  0  0  0  0  0
   -2.7940   -2.1644    0.8983 C   0  0  0  0  0  0  0  0  0  0  0  0
   -2.9594   -0.8521    1.2330 N   0  0  0  0  0  0  0  0  0  0  0  0
   -2.0613    0.0719    0.8635 C   0  0  0  0  0  0  0  0  0  0  0  0
  1  2  1  0
  2  3  1  0
  3  4  1  0
  4  5  1  0
  5  6  1  0
  6  7  1  0
  7  8  1  0
  7  9  2  0
  9 10  1  0
 10 11  2  0
 10 12  1  0
 12 13  1  0
 13 14  1  0
 14 15  2  0
 15 16  1  0
 16 17  2  0
 17 18  1  0
 17 19  1  0
 19 20  2  0
  9 21  1  0
 21 22  2  0
 22 23  1  0
 23 24  2  0
 24 25  1  0
 25 26  2  0
 26 27  1  0
 27 28  2  0
 28 29  1  0
 29 30  2  0
 30  6  1  0
 20 14  1  0
 30 21  1  0
 28 23  1  0
M  END
>  <zinc_id>  (1) 
ZINC000002246943

>  <smiles>  (1) 
CCCCCn1c(N)c(C(=O)NCc2ccc(C)cc2)c2nc3ccccc3nc21

$$$$
