
     RDKit          3D

 21 23  0  0  0  0  0  0  0  0999 V2000
    4.7596   -2.5065    0.6835 C   0  0  0  0  0  0  0  0  0  0  0  0
    4.7420   -1.1169    0.9342 O   0  0  0  0  0  0  0  0  0  0  0  0
    3.6234   -0.3768    0.5947 C   0  0  0  0  0  0  0  0  0  0  0  0
    2.5206   -0.9320    0.0222 C   0  0  0  0  0  0  0  0  0  0  0  0
    1.3983   -0.1993   -0.3234 C   0  0  0  0  0  0  0  0  0  0  0  0
    0.2992   -0.9192   -0.9335 C   0  0  0  0  0  0  0  0  0  0  0  0
   -0.9437   -0.6264   -0.6860 C   0  0  0  0  0  0  0  0  0  0  0  0
   -1.4096    0.4444    0.2184 C   0  0  0  0  0  0  0  0  0  0  0  0
   -2.8988    0.3803    0.1223 C   0  0  0  0  0  0  0  0  0  0  0  0
   -3.8695    1.1488    0.7389 C   0  0  0  0  0  0  0  0  0  0  0  0
   -5.1945    0.8774    0.4883 C   0  0  0  0  0  0  0  0  0  0  0  0
   -5.6089   -0.1373   -0.3583 C   0  0  0  0  0  0  0  0  0  0  0  0
   -4.6260   -0.8824   -0.9565 C   0  0  0  0  0  0  0  0  0  0  0  0
   -3.2946   -0.6279   -0.7193 C   0  0  0  0  0  0  0  0  0  0  0  0
   -2.1132   -1.3134   -1.2705 C   0  0  0  0  0  0  0  0  0  0  0  0
   -2.1001   -2.2637   -2.0583 O   0  0  0  0  0  0  0  0  0  0  0  0
    1.4299    1.1350   -0.0649 C   0  0  0  0  0  0  0  0  0  0  0  0
    2.5109    1.7748    0.5150 C   0  0  0  0  0  0  0  0  0  0  0  0
    2.4928    3.5100    0.8301 Cl  0  0  0  0  0  0  0  0  0  0  0  0
    3.6010    0.9979    0.8381 C   0  0  0  0  0  0  0  0  0  0  0  0
    4.6813    1.6329    1.4167 O   0  0  0  0  0  0  0  0  0  0  0  0
  1  2  1  0
  2  3  1  0
  3  4  2  0
  4  5  1  0
  5  6  1  0
  6  7  2  0
  7  8  1  0
  8  9  1  0
  9 10  2  0
 10 11  1  0
 11 12  2  0
 12 13  1  0
 13 14  2  0
 14 15  1  0
 15 16  2  0
  5 17  2  0
 17 18  1  0
 18 19  1  0
 18 20  2  0
 20 21  1  0
 20  3  1  0
 15  7  1  0
 14  9  1  0
M  END
>  <zinc_id>  (1) 
ZINC000003581786

>  <smiles>  (1) 
COc1cc(/C=C2\Cc3ccccc3C2=O)cc(Cl)c1O

$$$$
