
     RDKit          3D

 31 35  0  0  0  0  0  0  0  0999 V2000
   -4.2175   -4.9963   -0.1063 O   0  0  0  0  0  0  0  0  0  0  0  0
   -3.9515   -3.6361   -0.2466 C   0  0  0  0  0  0  0  0  0  0  0  0
   -2.9772   -3.0838    0.5482 C   0  0  0  0  0  0  0  0  0  0  0  0
   -2.6944   -1.7450    0.4301 C   0  0  0  0  0  0  0  0  0  0  0  0
   -3.3744   -0.9784   -0.4657 C   0  0  0  0  0  0  0  0  0  0  0  0
   -3.0566    0.4680   -0.5789 C   0  0  0  0  0  0  0  0  0  0  0  0
   -3.7520    1.6366   -1.6080 S   0  0  0  0  0  0  0  0  0  0  0  0
   -2.8545    2.9990   -1.1211 C   0  0  0  0  0  0  0  0  0  0  0  0
   -2.8358    4.3496   -1.4986 C   0  0  0  0  0  0  0  0  0  0  0  0
   -1.9762    5.2575   -0.9161 C   0  0  0  0  0  0  0  0  0  0  0  0
   -1.1447    4.7534    0.0527 C   0  0  0  0  0  0  0  0  0  0  0  0
   -1.1549    3.4627    0.4211 C   0  0  0  0  0  0  0  0  0  0  0  0
   -2.0240    2.5024   -0.1554 C   0  0  0  0  0  0  0  0  0  0  0  0
   -2.1358    1.1795    0.1217 C   0  0  0  0  0  0  0  0  0  0  0  0
   -1.3417    0.5238    1.0971 O   0  0  0  0  0  0  0  0  0  0  0  0
   -0.1158   -0.0250    0.7591 C   0  0  0  0  0  0  0  0  0  0  0  0
    0.6337   -0.6699    1.7173 C   0  0  0  0  0  0  0  0  0  0  0  0
    1.8752   -1.2326    1.4044 C   0  0  0  0  0  0  0  0  0  0  0  0
    2.3934   -1.1638    0.1323 C   0  0  0  0  0  0  0  0  0  0  0  0
    3.6344   -1.7191   -0.2058 O   0  0  0  0  0  0  0  0  0  0  0  0
    4.4336   -2.3887    0.7486 C   0  0  0  0  0  0  0  0  0  0  0  0
    4.7325   -1.3651    1.8432 C   0  0  0  0  0  0  0  0  0  0  0  0
    5.4356   -0.2132    1.3402 N   0  0  0  0  0  0  0  0  0  0  0  0
    4.6630    0.6102    0.4654 C   0  0  0  0  0  0  0  0  0  0  0  0
    5.2874    0.4961   -0.9107 C   0  0  0  0  0  0  0  0  0  0  0  0
    6.7562    0.3128   -0.5549 C   0  0  0  0  0  0  0  0  0  0  0  0
    6.6855   -0.5052    0.7123 C   0  0  0  0  0  0  0  0  0  0  0  0
    1.6475   -0.5197   -0.8304 C   0  0  0  0  0  0  0  0  0  0  0  0
    0.4096    0.0403   -0.5147 C   0  0  0  0  0  0  0  0  0  0  0  0
   -4.3467   -1.5042   -1.2667 C   0  0  0  0  0  0  0  0  0  0  0  0
   -4.6336   -2.8461   -1.1515 C   0  0  0  0  0  0  0  0  0  0  0  0
  1  2  1  0
  2  3  2  0
  3  4  1  0
  4  5  2  0
  5  6  1  0
  6  7  1  0
  7  8  1  0
  8  9  2  0
  9 10  1  0
 10 11  2  0
 11 12  1  0
 12 13  2  0
 13 14  1  0
 14 15  1  0
 15 16  1  0
 16 17  2  0
 17 18  1  0
 18 19  2  0
 19 20  1  0
 20 21  1  0
 21 22  1  0
 22 23  1  0
 23 24  1  0
 24 25  1  0
 25 26  1  0
 26 27  1  0
 19 28  1  0
 28 29  2  0
  5 30  1  0
 30 31  2  0
 31  2  1  0
 14  6  2  0
 29 16  1  0
 13  8  1  0
 27 23  1  0
M  END
>  <zinc_id>  (1) 
ZINC000001543910

>  <smiles>  (1) 
Oc1ccc(-c2sc3ccccc3c2Oc2ccc(OCCN3CCCC3)cc2)cc1

$$$$
