
     RDKit          3D

 19 21  0  0  0  0  0  0  0  0999 V2000
    0.8781    0.5580    1.2496 O   0  0  0  0  0  0  0  0  0  0  0  0
    0.2217    0.5192    0.1535 C   0  0  0  0  0  0  0  0  0  0  0  0
    0.9685    0.8779   -1.0026 N   0  0  0  0  0  0  0  0  0  0  0  0
    2.3471    1.2556   -0.9642 C   0  0  0  0  0  0  0  0  0  0  0  0
    3.2607    0.2064   -0.4209 C   0  0  0  0  0  0  0  0  0  0  0  0
    3.2660   -1.0698   -1.1739 C   0  0  0  0  0  0  0  0  0  0  0  0
    4.0550   -2.0779   -0.4067 C   0  0  0  0  0  0  0  0  0  0  0  0
    5.4779   -1.6295   -0.2817 C   0  0  0  0  0  0  0  0  0  0  0  0
    5.6820   -0.2357    0.1198 C   0  0  0  0  0  0  0  0  0  0  0  0
    4.5511    0.6874    0.0814 C   0  0  0  0  0  0  0  0  0  0  0  0
   -1.1743    0.1372    0.1111 C   0  0  0  0  0  0  0  0  0  0  0  0
   -1.8174    0.1171   -1.1002 C   0  0  0  0  0  0  0  0  0  0  0  0
   -3.1169   -0.2194   -1.2856 C   0  0  0  0  0  0  0  0  0  0  0  0
   -3.9021   -0.5836   -0.1676 C   0  0  0  0  0  0  0  0  0  0  0  0
   -5.1581   -0.9288   -0.1945 N   0  0  0  0  0  0  0  0  0  0  0  0
   -5.7804   -1.2482    0.9264 C   0  0  0  0  0  0  0  0  0  0  0  0
   -4.5473   -1.0585    2.0934 S   0  0  0  0  0  0  0  0  0  0  0  0
   -3.2825   -0.5716    1.0556 C   0  0  0  0  0  0  0  0  0  0  0  0
   -1.9292   -0.2157    1.2070 C   0  0  0  0  0  0  0  0  0  0  0  0
  1  2  2  0
  2  3  1  0
  3  4  1  0
  4  5  1  0
  5  6  1  0
  6  7  1  0
  7  8  1  0
  8  9  1  0
  9 10  1  0
  2 11  1  0
 11 12  2  0
 12 13  1  0
 13 14  2  0
 14 15  1  0
 15 16  2  0
 16 17  1  0
 17 18  1  0
 18 19  2  0
 10  5  1  0
 19 11  1  0
 18 14  1  0
M  END
>  <zinc_id>  (1) 
ZINC000002630798

>  <smiles>  (1) 
O=C(NCC1CCCCC1)c1ccc2ncsc2c1

$$$$
