
     RDKit          3D

 19 20  0  0  0  0  0  0  0  0999 V2000
    5.1851    2.0766    0.6009 C   0  0  0  0  0  0  0  0  0  0  0  0
    4.4417    1.4000   -0.3794 O   0  0  0  0  0  0  0  0  0  0  0  0
    3.2367    0.7528   -0.0395 C   0  0  0  0  0  0  0  0  0  0  0  0
    2.7687    0.7731    1.2574 C   0  0  0  0  0  0  0  0  0  0  0  0
    1.5837    0.1297    1.5615 C   0  0  0  0  0  0  0  0  0  0  0  0
    0.8617   -0.5355    0.5750 C   0  0  0  0  0  0  0  0  0  0  0  0
    1.3187   -0.5634   -0.7259 C   0  0  0  0  0  0  0  0  0  0  0  0
    0.5611   -1.2710   -1.8020 C   0  0  0  0  0  0  0  0  0  0  0  0
   -0.6336   -1.8805   -1.3273 N   0  0  0  0  0  0  0  0  0  0  0  0
   -1.7211   -1.2390   -0.7199 C   0  0  0  0  0  0  0  0  0  0  0  0
   -2.8019   -2.0176   -0.3237 C   0  0  0  0  0  0  0  0  0  0  0  0
   -3.8818   -1.4109    0.2749 C   0  0  0  0  0  0  0  0  0  0  0  0
   -3.8891   -0.0353    0.4798 C   0  0  0  0  0  0  0  0  0  0  0  0
   -5.0807    0.6072    1.1365 C   0  0  0  0  0  0  0  0  0  0  0  0
   -2.8233    0.7300    0.0887 C   0  0  0  0  0  0  0  0  0  0  0  0
   -2.8830    2.1977    0.3318 C   0  0  0  0  0  0  0  0  0  0  0  0
   -1.7425    0.1171   -0.5113 C   0  0  0  0  0  0  0  0  0  0  0  0
    2.5022    0.0871   -0.9956 C   0  0  0  0  0  0  0  0  0  0  0  0
    2.9975    0.0819   -2.2982 O   0  0  0  0  0  0  0  0  0  0  0  0
  1  2  1  0
  2  3  1  0
  3  4  2  0
  4  5  1  0
  5  6  2  0
  6  7  1  0
  7  8  1  0
  8  9  1  0
  9 10  1  0
 10 11  2  0
 11 12  1  0
 12 13  2  0
 13 14  1  0
 13 15  1  0
 15 16  1  0
 15 17  2  0
  7 18  2  0
 18 19  1  0
 18  3  1  0
 17 10  1  0
M  END
>  <zinc_id>  (1) 
ZINC000000398617

>  <smiles>  (1) 
COc1cccc(CNc2ccc(C)c(C)c2)c1O

$$$$
