
     RDKit          3D

 22 24  0  0  0  0  0  0  0  0999 V2000
    5.2920    0.0400    0.7260 C   0  0  0  0  0  0  0  0  0  0  0  0
    5.4489   -0.3702   -0.7323 C   0  0  0  0  0  0  0  0  0  0  0  0
    4.7254    0.4620   -1.5882 O   0  0  0  0  0  0  0  0  0  0  0  0
    3.3273    0.6051   -1.4960 C   0  0  0  0  0  0  0  0  0  0  0  0
    2.6352    1.4298   -2.3489 C   0  0  0  0  0  0  0  0  0  0  0  0
    1.2603    1.5891   -2.2802 C   0  0  0  0  0  0  0  0  0  0  0  0
    0.5409    0.8861   -1.3070 C   0  0  0  0  0  0  0  0  0  0  0  0
   -0.7941    1.0183   -1.2136 N   0  0  0  0  0  0  0  0  0  0  0  0
   -1.5171    0.3517   -0.2830 C   0  0  0  0  0  0  0  0  0  0  0  0
   -2.8861    0.4883   -0.1885 C   0  0  0  0  0  0  0  0  0  0  0  0
   -3.6240   -0.1895    0.7581 C   0  0  0  0  0  0  0  0  0  0  0  0
   -5.0244   -0.0601    0.8672 N   0  0  0  0  0  4  0  0  0  0  0  0
   -5.6463   -0.6855    1.7296 O   0  0  0  0  0  0  0  0  0  0  0  0
   -5.6965    0.7612    0.0146 O   0  0  0  0  0  1  0  0  0  0  0  0
   -2.9060   -1.0187    1.6115 C   0  0  0  0  0  0  0  0  0  0  0  0
   -1.5411   -1.1798    1.5469 C   0  0  0  0  0  0  0  0  0  0  0  0
   -0.8306   -0.4823    0.5819 C   0  0  0  0  0  0  0  0  0  0  0  0
    0.5445   -0.6292    0.4985 C   0  0  0  0  0  0  0  0  0  0  0  0
    1.1841   -1.5057    1.4230 N   0  0  0  0  0  0  0  0  0  0  0  0
    1.6451   -0.9648    2.6786 C   0  0  0  0  0  0  0  0  0  0  0  0
    1.2419    0.0611   -0.4554 C   0  0  0  0  0  0  0  0  0  0  0  0
    2.6206   -0.0831   -0.5427 C   0  0  0  0  0  0  0  0  0  0  0  0
  1  2  1  0
  2  3  1  0
  3  4  1  0
  4  5  2  0
  5  6  1  0
  6  7  2  0
  7  8  1  0
  8  9  2  0
  9 10  1  0
 10 11  2  0
 11 12  1  0
 12 13  2  0
 12 14  1  0
 11 15  1  0
 15 16  2  0
 16 17  1  0
 17 18  2  0
 18 19  1  0
 19 20  1  0
 18 21  1  0
 21 22  2  0
 22  4  1  0
 21  7  1  0
 17  9  1  0
M  CHG  2  12   1  14  -1
M  END
>  <zinc_id>  (1) 
ZINC000003898183

>  <smiles>  (1) 
CCOc1ccc2nc3cc([N+](=O)[O-])ccc3c(NC)c2c1

$$$$
