
     RDKit          3D

 32 35  0  0  0  0  0  0  0  0999 V2000
    5.5144    4.3237    1.8431 C   0  0  0  0  0  0  0  0  0  0  0  0
    6.4154    3.1197    1.7969 C   0  0  0  0  0  0  0  0  0  0  0  0
    6.0932    2.3444    0.6864 O   0  0  0  0  0  0  0  0  0  0  0  0
    4.8506    1.7750    0.4689 C   0  0  0  0  0  0  0  0  0  0  0  0
    4.5534    1.0129   -0.6342 C   0  0  0  0  0  0  0  0  0  0  0  0
    3.2755    0.4687   -0.7885 C   0  0  0  0  0  0  0  0  0  0  0  0
    2.2885    0.6705    0.1369 C   0  0  0  0  0  0  0  0  0  0  0  0
    0.9433    0.1030   -0.0164 C   0  0  0  0  0  0  0  0  0  0  0  0
   -0.1710    0.8590    0.2217 C   0  0  0  0  0  0  0  0  0  0  0  0
   -1.4603    0.3436    0.0832 C   0  0  0  0  0  0  0  0  0  0  0  0
   -2.6173    1.1937    0.3499 C   0  0  0  0  0  0  0  0  0  0  0  0
   -2.5346    2.3774    0.7018 O   0  0  0  0  0  0  0  0  0  0  0  0
   -3.9069    0.6295    0.1965 N   0  0  0  0  0  0  0  0  0  0  0  0
   -5.1056    1.3581    0.4274 C   0  0  0  0  0  0  0  0  0  0  0  0
   -5.1470    2.6688    0.8184 C   0  0  0  0  0  0  0  0  0  0  0  0
   -6.3448    3.3286    1.0288 C   0  0  0  0  0  0  0  0  0  0  0  0
   -7.5351    2.6665    0.8454 C   0  0  0  0  0  0  0  0  0  0  0  0
   -7.5235    1.3473    0.4522 C   0  0  0  0  0  0  0  0  0  0  0  0
   -6.3054    0.7010    0.2455 C   0  0  0  0  0  0  0  0  0  0  0  0
   -1.5938   -0.9627   -0.3043 C   0  0  0  0  0  0  0  0  0  0  0  0
   -0.4752   -1.7529   -0.5527 C   0  0  0  0  0  0  0  0  0  0  0  0
   -0.6713   -3.0615   -0.9401 C   0  0  0  0  0  0  0  0  0  0  0  0
    0.4483   -3.8279   -1.1814 C   0  0  0  0  0  0  0  0  0  0  0  0
    0.2756   -5.1583   -1.5756 O   0  0  0  0  0  0  0  0  0  0  0  0
   -1.0173   -5.7123   -1.7255 C   0  0  0  0  0  0  0  0  0  0  0  0
    1.7134   -3.2988   -1.0385 C   0  0  0  0  0  0  0  0  0  0  0  0
    2.7832   -4.1359   -1.3003 O   0  0  0  0  0  0  0  0  0  0  0  0
    4.0905   -3.6251   -1.1634 C   0  0  0  0  0  0  0  0  0  0  0  0
    1.9103   -1.9703   -0.6452 C   0  0  0  0  0  0  0  0  0  0  0  0
    0.7924   -1.2086   -0.4053 C   0  0  0  0  0  0  0  0  0  0  0  0
    2.5938    1.4377    1.2436 C   0  0  0  0  0  0  0  0  0  0  0  0
    3.8672    1.9852    1.4062 C   0  0  0  0  0  0  0  0  0  0  0  0
  1  2  1  0
  2  3  1  0
  3  4  1  0
  4  5  2  0
  5  6  1  0
  6  7  2  0
  7  8  1  0
  8  9  2  0
  9 10  1  0
 10 11  1  0
 11 12  2  0
 11 13  1  0
 13 14  1  0
 14 15  2  0
 15 16  1  0
 16 17  2  0
 17 18  1  0
 18 19  2  0
 10 20  2  0
 20 21  1  0
 21 22  2  0
 22 23  1  0
 23 24  1  0
 24 25  1  0
 23 26  2  0
 26 27  1  0
 27 28  1  0
 26 29  1  0
 29 30  2  0
  7 31  1  0
 31 32  2  0
 32  4  1  0
 30  8  1  0
 19 14  1  0
 30 21  1  0
M  END
>  <zinc_id>  (1) 
ZINC000001464592

>  <smiles>  (1) 
CCOc1ccc(-c2cc(C(=O)Nc3ccccc3)cc3cc(OC)c(OC)cc23)cc1

$$$$
