
     RDKit          3D

 30 33  0  0  0  0  0  0  0  0999 V2000
   -3.6206   -1.6848   -1.7288 C   0  0  0  0  0  0  0  0  0  0  0  0
   -4.1081   -0.3393   -1.3265 C   0  0  0  0  0  0  0  0  0  0  0  0
   -5.0109    0.2093   -1.8981 O   0  0  0  0  0  0  0  0  0  0  0  0
   -3.4046    0.2917   -0.1619 C   0  0  0  0  0  0  0  0  0  0  0  0
   -3.9927    1.6183    0.1561 C   0  0  0  0  0  0  0  0  0  0  0  0
   -5.3819    1.7504    0.1921 C   0  0  0  0  0  0  0  0  0  0  0  0
   -5.9290    2.9808    0.4877 C   0  0  0  0  0  0  0  0  0  0  0  0
   -5.1811    4.0870    0.7493 C   0  0  0  0  0  0  0  0  0  0  0  0
   -3.8152    3.9766    0.7183 C   0  0  0  0  0  0  0  0  0  0  0  0
   -3.2507    2.7414    0.4216 C   0  0  0  0  0  0  0  0  0  0  0  0
   -1.9827    0.5223   -0.6229 C   0  0  0  0  0  0  0  0  0  0  0  0
   -1.0771    0.2577    0.5574 C   0  0  0  0  0  0  0  0  0  0  0  0
   -1.0446   -1.1724    0.7740 N   0  0  0  0  0  0  0  0  0  0  0  0
   -0.2333   -1.7546   -0.2757 C   0  0  0  0  0  0  0  0  0  0  0  0
    1.2066   -1.2898   -0.0259 C   0  0  0  0  0  0  0  0  0  0  0  0
    1.5681   -1.8012    1.3644 C   0  0  0  0  0  0  0  0  0  0  0  0
    1.4612   -3.2963    1.4123 C   0  0  0  0  0  0  0  0  0  0  0  0
    2.3815   -4.0065    0.4617 C   0  0  0  0  0  0  0  0  0  0  0  0
    4.0871   -3.6068    0.8741 S   0  0  0  0  0  0  0  0  0  0  0  0
    4.3597   -1.8667    0.4969 C   0  0  0  0  0  0  0  0  0  0  0  0
    4.8248   -1.5088   -0.7217 N   0  0  0  0  0  0  0  0  0  0  0  0
    4.9357   -0.1745   -0.7037 C   0  0  0  0  0  0  0  0  0  0  0  0
    5.3521    0.7375   -1.6427 C   0  0  0  0  0  0  0  0  0  0  0  0
    5.3733    2.0652   -1.3688 C   0  0  0  0  0  0  0  0  0  0  0  0
    4.9776    2.5333   -0.1439 C   0  0  0  0  0  0  0  0  0  0  0  0
    4.5591    1.6195    0.8016 C   0  0  0  0  0  0  0  0  0  0  0  0
    4.5326    0.2738    0.5397 C   0  0  0  0  0  0  0  0  0  0  0  0
    4.1807   -0.8070    1.2627 N   0  0  0  0  0  0  0  0  0  0  0  0
   -2.3764   -1.7390    0.7730 C   0  0  0  0  0  0  0  0  0  0  0  0
   -3.3911   -0.6170    1.0239 C   0  0  0  0  0  0  0  0  0  0  0  0
  1  2  1  0
  2  3  2  0
  2  4  1  0
  4  5  1  0
  5  6  2  0
  6  7  1  0
  7  8  2  0
  8  9  1  0
  9 10  2  0
  4 11  1  0
 11 12  1  0
 12 13  1  0
 13 14  1  0
 14 15  1  0
 15 16  1  0
 16 17  1  0
 17 18  1  0
 18 19  1  0
 19 20  1  0
 20 21  2  0
 21 22  1  0
 22 23  2  0
 23 24  1  0
 24 25  2  0
 25 26  1  0
 26 27  2  0
 27 28  1  0
 13 29  1  0
 29 30  1  0
 30  4  1  0
 10  5  1  0
 28 20  1  0
 27 22  1  0
M  END
>  <zinc_id>  (1) 
ZINC000003927703

>  <smiles>  (1) 
CC(=O)C1(c2ccccc2)CCN(CCCCCSc2nc3ccccc3[nH]2)CC1

$$$$
