
     RDKit          3D

 30 33  0  0  0  0  0  0  0  0999 V2000
   -4.8822    3.1503   -1.8550 C   0  0  0  0  0  0  0  0  0  0  0  0
   -4.2131    3.6100   -0.7252 O   0  0  0  0  0  0  0  0  0  0  0  0
   -4.9455    3.2386    0.4208 C   0  0  0  0  0  0  0  0  0  0  0  0
   -4.9167    1.5825    0.2196 C   0  0  2  0  0  0  0  0  0  0  0  0
   -5.0455    1.3127    1.8704 C   0  0  0  0  0  0  0  0  0  0  0  0
   -3.3663    1.5274    0.2650 O   0  0  0  0  0  0  0  0  0  0  0  0
   -2.8860    0.2455    0.1247 C   0  0  0  0  0  0  0  0  0  0  0  0
   -3.7157   -0.7173   -0.0207 O   0  0  0  0  0  0  0  0  0  0  0  0
   -1.4568   -0.0424    0.1376 C   0  0  0  0  0  0  0  0  0  0  0  0
   -0.4574    0.8622    0.2816 C   0  0  0  0  0  0  0  0  0  0  0  0
   -0.6330    2.2694    0.4475 N   0  0  0  0  0  0  0  0  0  0  0  0
    0.7258    0.1783    0.2380 N   0  0  0  0  0  0  0  0  0  0  0  0
    1.9828    0.8732    0.3650 C   0  0  0  0  0  0  0  0  0  0  0  0
    2.5361    1.3217   -0.9622 C   0  0  0  0  0  0  0  0  0  0  0  0
    3.8307    2.0214   -0.6763 C   0  0  0  0  0  0  0  0  0  0  0  0
    3.8841    3.3796   -0.4327 C   0  0  0  0  0  0  0  0  0  0  0  0
    5.0737    4.0257   -0.1694 C   0  0  0  0  0  0  0  0  0  0  0  0
    6.2593    3.3377   -0.1392 C   0  0  0  0  0  0  0  0  0  0  0  0
    6.2243    1.9803   -0.3803 C   0  0  0  0  0  0  0  0  0  0  0  0
    5.0305    1.3402   -0.6431 C   0  0  0  0  0  0  0  0  0  0  0  0
    0.4849   -1.1323    0.0699 C   0  0  0  0  0  0  0  0  0  0  0  0
    1.3052   -2.1868   -0.0313 N   0  0  0  0  0  0  0  0  0  0  0  0
    0.7912   -3.4408   -0.2016 C   0  0  0  0  0  0  0  0  0  0  0  0
    1.5893   -4.5523   -0.3105 C   0  0  0  0  0  0  0  0  0  0  0  0
    1.0512   -5.8290   -0.4844 C   0  0  0  0  0  0  0  0  0  0  0  0
   -0.3055   -5.9972   -0.5505 C   0  0  0  0  0  0  0  0  0  0  0  0
   -1.1131   -4.8987   -0.4436 C   0  0  0  0  0  0  0  0  0  0  0  0
   -0.5748   -3.6248   -0.2700 C   0  0  0  0  0  0  0  0  0  0  0  0
   -1.3671   -2.5446   -0.1648 N   0  0  0  0  0  0  0  0  0  0  0  0
   -0.8902   -1.2906    0.0043 C   0  0  0  0  0  0  0  0  0  0  0  0
  1  2  1  0
  2  3  1  0
  3  4  1  0
  4  5  1  1
  4  6  1  0
  6  7  1  0
  7  8  2  0
  7  9  1  0
  9 10  2  0
 10 11  1  0
 10 12  1  0
 12 13  1  0
 13 14  1  0
 14 15  1  0
 15 16  2  0
 16 17  1  0
 17 18  2  0
 18 19  1  0
 19 20  2  0
 12 21  1  0
 21 22  2  0
 22 23  1  0
 23 24  2  0
 24 25  1  0
 25 26  2  0
 26 27  1  0
 27 28  2  0
 28 29  1  0
 29 30  2  0
 30  9  1  0
 20 15  1  0
 30 21  1  0
 28 23  1  0
M  END
>  <zinc_id>  (1) 
ZINC000002318662

>  <smiles>  (1) 
COC[C@H](C)OC(=O)c1c(N)n(CCc2ccccc2)c2nc3ccccc3nc12

$$$$
