
     RDKit          3D

 19 20  0  0  0  0  0  0  0  0999 V2000
    5.6132    1.2771    0.1951 C   0  0  0  0  0  0  0  0  0  0  0  0
    4.8308    0.5578    1.1274 O   0  0  0  0  0  0  0  0  0  0  0  0
    3.6322    0.0127    0.6637 C   0  0  0  0  0  0  0  0  0  0  0  0
    2.7969   -0.7094    1.5035 C   0  0  0  0  0  0  0  0  0  0  0  0
    1.6186   -1.2397    1.0288 C   0  0  0  0  0  0  0  0  0  0  0  0
    1.2162   -1.0833   -0.2800 C   0  0  0  0  0  0  0  0  0  0  0  0
   -0.0480   -1.6686   -0.7338 C   0  0  0  0  0  0  0  0  0  0  0  0
   -1.1451   -0.7151   -0.5510 N   0  0  0  0  0  0  0  0  0  0  0  0
   -1.6103    0.2033   -1.3845 C   0  0  0  0  0  0  0  0  0  0  0  0
   -1.0916    0.4773   -2.7551 C   0  0  0  0  0  0  0  0  0  0  0  0
   -2.6619    0.9007   -0.8257 C   0  0  0  0  0  0  0  0  0  0  0  0
   -3.4762    2.0048   -1.3929 C   0  0  0  0  0  0  0  0  0  0  0  0
   -2.8378    0.3584    0.4352 C   0  0  0  0  0  0  0  0  0  0  0  0
   -3.8320    0.7815    1.3821 C   0  0  0  0  0  0  0  0  0  0  0  0
   -4.6270    1.1280    2.1651 N   0  0  0  0  0  0  0  0  0  0  0  0
   -1.8817   -0.6405    0.5736 C   0  0  0  0  0  0  0  0  0  0  0  0
   -1.7504   -1.4379    1.7625 N   0  0  0  0  0  0  0  0  0  0  0  0
    2.0380   -0.3677   -1.1236 C   0  0  0  0  0  0  0  0  0  0  0  0
    3.2162    0.1606   -0.6424 C   0  0  0  0  0  0  0  0  0  0  0  0
  1  2  1  0
  2  3  1  0
  3  4  2  0
  4  5  1  0
  5  6  2  0
  6  7  1  0
  7  8  1  0
  8  9  1  0
  9 10  1  0
  9 11  2  0
 11 12  1  0
 11 13  1  0
 13 14  1  0
 14 15  3  0
 13 16  2  0
 16 17  1  0
  6 18  1  0
 18 19  2  0
 19  3  1  0
 16  8  1  0
M  END
>  <zinc_id>  (1) 
ZINC000000169221

>  <smiles>  (1) 
COc1ccc(Cn2c(C)c(C)c(C#N)c2N)cc1

$$$$
