
     RDKit          3D

 20 21  0  0  0  0  0  0  0  0999 V2000
    1.6257    1.3018   -0.8005 O   0  0  0  0  0  0  0  0  0  0  0  0
    2.5340    0.7478   -0.1017 C   0  0  0  0  0  0  0  0  0  0  0  0
    2.1510   -0.2847    0.7669 N   0  0  0  0  0  0  0  0  0  0  0  0
    0.8147   -0.7376    0.9036 C   0  0  0  0  0  0  0  0  0  0  0  0
    0.5132   -1.9464    1.9512 S   0  0  0  0  0  0  0  0  0  0  0  0
   -0.2352   -0.1611    0.1545 N   0  0  0  0  0  0  0  0  0  0  0  0
   -1.5701   -0.5801    0.2604 C   0  0  0  0  0  0  0  0  0  0  0  0
   -1.9565   -1.5891    1.1067 C   0  0  0  0  0  0  0  0  0  0  0  0
   -3.2681   -1.9969    1.2072 C   0  0  0  0  0  0  0  0  0  0  0  0
   -4.1995   -1.3598    0.4272 C   0  0  0  0  0  0  0  0  0  0  0  0
   -3.8860   -0.3499   -0.4351 C   0  0  0  0  0  0  0  0  0  0  0  0
   -4.8709    0.2929   -1.2315 N   0  0  0  0  0  4  0  0  0  0  0  0
   -6.0422   -0.0755   -1.1379 O   0  0  0  0  0  0  0  0  0  0  0  0
   -4.4863    1.2942   -2.0710 O   0  0  0  0  0  1  0  0  0  0  0  0
   -2.5457    0.0267   -0.5009 C   0  0  0  0  0  0  0  0  0  0  0  0
    3.9114    1.2461   -0.2716 C   0  0  0  0  0  0  0  0  0  0  0  0
    4.8704    0.2053   -0.7397 C   0  0  0  0  0  0  0  0  0  0  0  0
    6.1832    0.4933   -0.0835 C   0  0  0  0  0  0  0  0  0  0  0  0
    5.9724    1.6134    0.8954 C   0  0  0  0  0  0  0  0  0  0  0  0
    4.4844    1.8596    0.9607 C   0  0  0  0  0  0  0  0  0  0  0  0
  1  2  2  0
  2  3  1  0
  3  4  1  0
  4  5  2  0
  4  6  1  0
  6  7  1  0
  7  8  2  0
  8  9  1  0
  9 10  2  0
 10 11  1  0
 11 12  1  0
 12 13  2  0
 12 14  1  0
 11 15  2  0
  2 16  1  0
 16 17  1  0
 17 18  1  0
 18 19  1  0
 19 20  1  0
 15  7  1  0
 20 16  1  0
M  CHG  2  12   1  14  -1
M  END
>  <zinc_id>  (1) 
ZINC000000528832

>  <smiles>  (1) 
O=C(NC(=S)Nc1cccc([N+](=O)[O-])c1)C1CCCC1

$$$$
