
     RDKit          3D

 21 22  0  0  0  0  0  0  0  0999 V2000
    5.5820    0.6627    1.3078 C   0  0  0  0  0  0  0  0  0  0  0  0
    5.6001    0.4550   -0.2059 C   0  0  0  0  0  0  0  0  0  0  0  0
    6.2587   -0.8837   -0.4597 C   0  0  0  0  0  0  0  0  0  0  0  0
    6.3855    1.5616   -0.8830 C   0  0  0  0  0  0  0  0  0  0  0  0
    4.2047    0.4645   -0.6973 C   0  0  0  0  0  0  0  0  0  0  0  0
    3.0422    0.0525   -0.0894 C   0  0  0  0  0  0  0  0  0  0  0  0
    1.9734    0.2559   -0.9371 C   0  0  0  0  0  0  0  0  0  0  0  0
    0.5576   -0.0196   -0.7291 C   0  0  0  0  0  0  0  0  0  0  0  0
   -0.2684    0.2296   -1.6134 O   0  0  0  0  0  0  0  0  0  0  0  0
    0.1202   -0.5744    0.4903 N   0  0  0  0  0  0  0  0  0  0  0  0
   -1.2373   -0.8539    0.7457 N   0  0  0  0  0  0  0  0  0  0  0  0
   -2.0343    0.1301    0.4908 C   0  0  0  0  0  0  0  0  0  0  0  0
   -3.4552    0.0328    0.6895 C   0  0  0  0  0  0  0  0  0  0  0  0
   -4.0044   -1.1315    1.1625 C   0  0  0  0  0  0  0  0  0  0  0  0
   -5.3897   -1.2280    1.3564 C   0  0  0  0  0  0  0  0  0  0  0  0
   -6.1964   -0.1532    1.0715 C   0  0  0  0  0  0  0  0  0  0  0  0
   -7.5413   -0.2505    1.2610 F   0  0  0  0  0  0  0  0  0  0  0  0
   -5.6597    1.0200    0.5971 C   0  0  0  0  0  0  0  0  0  0  0  0
   -4.2776    1.0963    0.4107 C   0  0  0  0  0  0  0  0  0  0  0  0
    2.5188    0.7987   -2.0660 N   0  0  0  0  0  0  0  0  0  0  0  0
    3.8211    0.9111   -1.9026 N   0  0  0  0  0  0  0  0  0  0  0  0
  1  2  1  0
  2  3  1  0
  2  4  1  0
  2  5  1  0
  5  6  1  0
  6  7  2  0
  7  8  1  0
  8  9  2  0
  8 10  1  0
 10 11  1  0
 11 12  2  3
 12 13  1  0
 13 14  2  0
 14 15  1  0
 15 16  2  0
 16 17  1  0
 16 18  1  0
 18 19  2  0
  7 20  1  0
 20 21  1  0
 21  5  2  0
 19 13  1  0
M  END
>  <zinc_id>  (1) 
ZINC000000342644

>  <smiles>  (1) 
CC(C)(C)c1cc(C(=O)NN=Cc2ccc(F)cc2)[nH]n1

$$$$
