
     RDKit          3D

 19 20  0  0  0  0  0  0  0  0999 V2000
   -0.2722   -1.4535   -1.3645 O   0  0  0  0  0  0  0  0  0  0  0  0
   -0.7961   -0.4581   -0.8049 C   0  0  0  0  0  0  0  0  0  0  0  0
    0.0197    0.6826   -0.6284 N   0  0  0  0  0  0  0  0  0  0  0  0
    1.3556    0.7576   -1.0377 N   0  0  0  0  0  0  0  0  0  0  0  0
    2.2693   -0.0324   -0.6159 C   0  0  0  0  0  0  0  0  0  0  0  0
    1.8577   -1.0640    0.3516 C   0  0  0  0  0  0  0  0  0  0  0  0
    3.0013   -1.2958    1.3177 C   0  0  0  0  0  0  0  0  0  0  0  0
    4.0447   -0.2039    1.2311 C   0  0  0  0  0  0  0  0  0  0  0  0
    3.4894    1.1131    1.7604 C   0  0  0  0  0  0  0  0  0  0  0  0
    3.2446    1.9856    0.5267 C   0  0  0  0  0  0  0  0  0  0  0  0
    4.1339    1.5547   -0.6226 C   0  0  0  0  0  0  0  0  0  0  0  0
    3.5756    0.3037   -1.2354 C   0  0  0  0  0  0  0  0  0  0  0  0
   -2.1968   -0.4956   -0.3597 C   0  0  0  0  0  0  0  0  0  0  0  0
   -2.9224   -1.6462   -0.5694 C   0  0  0  0  0  0  0  0  0  0  0  0
   -4.2536   -1.7415   -0.1696 C   0  0  0  0  0  0  0  0  0  0  0  0
   -4.8498   -0.6474    0.4520 C   0  0  0  0  0  0  0  0  0  0  0  0
   -4.1290    0.5158    0.6682 C   0  0  0  0  0  0  0  0  0  0  0  0
   -4.7582    1.5750    1.2870 O   0  0  0  0  0  0  0  0  0  0  0  0
   -2.8135    0.5505    0.2499 C   0  0  0  0  0  0  0  0  0  0  0  0
  1  2  2  0
  2  3  1  0
  3  4  1  0
  4  5  2  3
  5  6  1  0
  6  7  1  0
  7  8  1  0
  8  9  1  0
  9 10  1  0
 10 11  1  0
 11 12  1  0
  2 13  1  0
 13 14  2  0
 14 15  1  0
 15 16  2  0
 16 17  1  0
 17 18  1  0
 17 19  2  0
 12  5  1  0
 19 13  1  0
M  END
>  <zinc_id>  (1) 
ZINC000000245828

>  <smiles>  (1) 
O=C(NN=C1CCCCCCC1)c1cccc(O)c1

$$$$
