
     RDKit          3D

 20 22  0  0  0  0  0  0  0  0999 V2000
    4.0681    1.2755    2.0254 C   0  0  0  0  0  0  0  0  0  0  0  0
    4.4703    0.3423    1.0357 O   0  0  0  0  0  0  0  0  0  0  0  0
    3.4753   -0.1925    0.2176 C   0  0  0  0  0  0  0  0  0  0  0  0
    3.8899   -1.0975   -0.7372 C   0  0  0  0  0  0  0  0  0  0  0  0
    2.9263   -1.6400   -1.5577 C   0  0  0  0  0  0  0  0  0  0  0  0
    1.6035   -1.2868   -1.4230 C   0  0  0  0  0  0  0  0  0  0  0  0
    1.1633   -0.3841   -0.4761 C   0  0  0  0  0  0  0  0  0  0  0  0
   -0.2116   -0.0352   -0.3570 N   0  0  0  0  0  0  0  0  0  0  0  0
   -0.6974    1.1593   -0.7550 C   0  0  0  0  0  0  0  0  0  0  0  0
    0.0470    2.2233   -1.3342 N   0  0  0  0  0  0  0  0  0  0  0  0
   -2.0617    1.1752   -0.5012 C   0  0  0  0  0  0  0  0  0  0  0  0
   -2.9658    2.2454   -0.7683 C   0  0  0  0  0  0  0  0  0  0  0  0
   -3.7060    3.1177   -0.9669 N   0  0  0  0  0  0  0  0  0  0  0  0
   -2.4035   -0.0301    0.0591 C   0  0  0  0  0  0  0  0  0  0  0  0
   -1.2312   -0.7537    0.1327 C   0  0  0  0  0  0  0  0  0  0  0  0
   -1.3059   -2.1115    0.7044 C   0  0  0  0  0  0  0  0  0  0  0  0
   -2.2256   -2.2401    1.8723 C   0  0  0  0  0  0  0  0  0  0  0  0
   -3.3386   -1.2470    1.9224 C   0  0  0  0  0  0  0  0  0  0  0  0
   -3.6381   -0.6773    0.5609 C   0  0  0  0  0  0  0  0  0  0  0  0
    2.1418    0.1571    0.3460 C   0  0  0  0  0  0  0  0  0  0  0  0
  1  2  1  0
  2  3  1  0
  3  4  2  0
  4  5  1  0
  5  6  2  0
  6  7  1  0
  7  8  1  0
  8  9  1  0
  9 10  1  0
  9 11  2  0
 11 12  1  0
 12 13  3  0
 11 14  1  0
 14 15  2  0
 15 16  1  0
 16 17  1  0
 17 18  1  0
 18 19  1  0
  7 20  2  0
 20  3  1  0
 15  8  1  0
 19 14  1  0
M  END
>  <zinc_id>  (1) 
ZINC000001663678

>  <smiles>  (1) 
COc1cccc(-n2c(N)c(C#N)c3c2CCCC3)c1

$$$$
