
     RDKit          3D

 20 21  0  0  0  0  0  0  0  0999 V2000
   -6.2893   -0.0301   -1.2710 C   0  0  0  0  0  0  0  0  0  0  0  0
   -5.8459   -0.5475    0.0582 C   0  0  0  0  0  0  0  0  0  0  0  0
   -6.2643   -1.9570    0.3415 C   0  0  0  0  0  0  0  0  0  0  0  0
   -4.3840   -0.3276    0.2617 C   0  0  0  0  0  0  0  0  0  0  0  0
   -3.5754   -0.0116   -0.8202 C   0  0  0  0  0  0  0  0  0  0  0  0
   -2.2327    0.1852   -0.6014 C   0  0  0  0  0  0  0  0  0  0  0  0
   -1.6373    0.0901    0.6161 C   0  0  0  0  0  0  0  0  0  0  0  0
   -0.2159    0.2954    0.8670 C   0  0  0  0  0  0  0  0  0  0  0  0
    0.5915    0.5909   -0.0903 N   0  0  0  0  0  0  0  0  0  0  0  0
    1.9797    0.8019    0.0897 C   0  0  0  0  0  0  0  0  0  0  0  0
    2.4966    1.8463    0.8267 C   0  0  0  0  0  0  0  0  0  0  0  0
    3.8836    1.9576    0.9376 C   0  0  0  0  0  0  0  0  0  0  0  0
    4.7189    1.0461    0.3256 C   0  0  0  0  0  0  0  0  0  0  0  0
    4.2141   -0.0137   -0.4217 C   0  0  0  0  0  0  0  0  0  0  0  0
    5.0975   -0.9752   -1.0672 C   0  0  0  0  0  0  0  0  0  0  0  0
    4.5398   -2.0404   -1.8197 N   0  0  0  0  0  0  0  0  0  0  0  0
    6.3379   -0.8334   -0.9386 O   0  0  0  0  0  0  0  0  0  0  0  0
    2.8372   -0.0959   -0.5122 C   0  0  0  0  0  0  0  0  0  0  0  0
   -2.4474   -0.2280    1.7094 C   0  0  0  0  0  0  0  0  0  0  0  0
   -3.8045   -0.4303    1.5087 C   0  0  0  0  0  0  0  0  0  0  0  0
  1  2  1  0
  2  3  1  0
  2  4  1  0
  4  5  2  0
  5  6  1  0
  6  7  2  0
  7  8  1  0
  8  9  2  0
  9 10  1  0
 10 11  2  0
 11 12  1  0
 12 13  2  0
 13 14  1  0
 14 15  1  0
 15 16  1  0
 15 17  2  0
 14 18  2  0
  7 19  1  0
 19 20  2  0
 20  4  1  0
 18 10  1  0
M  END
>  <zinc_id>  (1) 
ZINC000000561361

>  <smiles>  (1) 
CC(C)c1ccc(/C=N/c2cccc(C(N)=O)c2)cc1

$$$$
