
     RDKit          3D

 21 23  0  0  0  0  0  0  0  0999 V2000
    5.6459   -0.8943    0.7769 C   0  0  0  0  0  0  0  0  0  0  0  0
    4.7515    0.3228    0.8760 C   0  0  0  0  0  0  0  0  0  0  0  0
    5.3707    1.5597    0.3174 C   0  0  0  0  0  0  0  0  0  0  0  0
    3.4027    0.0498    0.2991 C   0  0  0  0  0  0  0  0  0  0  0  0
    2.8446   -1.2112    0.3345 C   0  0  0  0  0  0  0  0  0  0  0  0
    1.5941   -1.4447   -0.2051 C   0  0  0  0  0  0  0  0  0  0  0  0
    0.8502   -0.4454   -0.7978 C   0  0  0  0  0  0  0  0  0  0  0  0
   -0.4984   -0.6777   -1.3843 C   0  0  0  0  0  0  0  0  0  0  0  0
   -1.5367   -0.4735   -0.3953 N   0  0  0  0  0  0  0  0  0  0  0  0
   -2.0223   -1.4345    0.4089 C   0  0  0  0  0  0  0  0  0  0  0  0
   -1.5520   -2.8654    0.3937 C   0  0  0  0  0  0  0  0  0  0  0  0
   -2.3057   -3.6083   -0.5004 O   0  0  0  0  0  0  0  0  0  0  0  0
   -2.9707   -0.9000    1.1998 N   0  0  0  0  0  0  0  0  0  0  0  0
   -3.0647    0.4093    0.8719 C   0  0  0  0  0  0  0  0  0  0  0  0
   -3.8528    1.4429    1.3385 C   0  0  0  0  0  0  0  0  0  0  0  0
   -3.7171    2.6963    0.7953 C   0  0  0  0  0  0  0  0  0  0  0  0
   -2.8205    2.9661   -0.2030 C   0  0  0  0  0  0  0  0  0  0  0  0
   -2.0215    1.9525   -0.6872 C   0  0  0  0  0  0  0  0  0  0  0  0
   -2.1656    0.6878   -0.1317 C   0  0  0  0  0  0  0  0  0  0  0  0
    1.4094    0.8183   -0.8334 C   0  0  0  0  0  0  0  0  0  0  0  0
    2.6589    1.0495   -0.2937 C   0  0  0  0  0  0  0  0  0  0  0  0
  1  2  1  0
  2  3  1  0
  2  4  1  0
  4  5  2  0
  5  6  1  0
  6  7  2  0
  7  8  1  0
  8  9  1  0
  9 10  1  0
 10 11  1  0
 11 12  1  0
 10 13  2  0
 13 14  1  0
 14 15  2  0
 15 16  1  0
 16 17  2  0
 17 18  1  0
 18 19  2  0
  7 20  1  0
 20 21  2  0
 21  4  1  0
 19  9  1  0
 19 14  1  0
M  END
>  <zinc_id>  (1) 
ZINC000000210209

>  <smiles>  (1) 
CC(C)c1ccc(Cn2c(CO)nc3ccccc32)cc1

$$$$
