
     RDKit          3D

 21 22  0  0  0  0  0  0  0  0999 V2000
    3.0497    0.2270   -2.4793 C   0  0  0  0  0  0  0  0  0  0  0  0
    3.6749    0.2361   -1.1361 C   0  0  0  0  0  0  0  0  0  0  0  0
    4.7910    1.0088   -0.8606 C   0  0  0  0  0  0  0  0  0  0  0  0
    5.3881    1.0286    0.3911 C   0  0  0  0  0  0  0  0  0  0  0  0
    4.8134    0.2339    1.3627 C   0  0  0  0  0  0  0  0  0  0  0  0
    3.7028   -0.5397    1.1017 C   0  0  0  0  0  0  0  0  0  0  0  0
    3.1005   -1.3864    2.1589 C   0  0  0  0  0  0  0  0  0  0  0  0
    3.1334   -0.5385   -0.1482 C   0  0  0  0  0  0  0  0  0  0  0  0
    1.9902   -1.3550   -0.3600 N   0  0  0  0  0  0  0  0  0  0  0  0
    0.6666   -0.8865   -0.1504 C   0  0  0  0  0  0  0  0  0  0  0  0
    0.5316    0.2919    0.2347 O   0  0  0  0  0  0  0  0  0  0  0  0
   -0.5312   -1.7392   -0.3715 C   0  0  0  0  0  0  0  0  0  0  0  0
   -1.7552   -0.9585   -0.0659 C   0  0  0  0  0  0  0  0  0  0  0  0
   -2.3410   -0.9016    1.1719 C   0  0  0  0  0  0  0  0  0  0  0  0
   -3.4744   -0.1714    1.4304 C   0  0  0  0  0  0  0  0  0  0  0  0
   -4.0805    0.5561    0.4071 C   0  0  0  0  0  0  0  0  0  0  0  0
   -5.2466    1.3179    0.6362 N   0  0  0  0  0  4  0  0  0  0  0  0
   -5.7494    1.9472   -0.3013 O   0  0  0  0  0  0  0  0  0  0  0  0
   -5.8270    1.3725    1.8687 O   0  0  0  0  0  1  0  0  0  0  0  0
   -3.4913    0.4991   -0.8390 C   0  0  0  0  0  0  0  0  0  0  0  0
   -2.3455   -0.2422   -1.0891 C   0  0  0  0  0  0  0  0  0  0  0  0
  1  2  1  0
  2  3  2  0
  3  4  1  0
  4  5  2  0
  5  6  1  0
  6  7  1  0
  6  8  2  0
  8  9  1  0
  9 10  1  0
 10 11  2  0
 10 12  1  0
 12 13  1  0
 13 14  2  0
 14 15  1  0
 15 16  2  0
 16 17  1  0
 17 18  2  0
 17 19  1  0
 16 20  1  0
 20 21  2  0
  8  2  1  0
 21 13  1  0
M  CHG  2  17   1  19  -1
M  END
>  <zinc_id>  (1) 
ZINC000000075320

>  <smiles>  (1) 
Cc1cccc(C)c1NC(=O)Cc1ccc([N+](=O)[O-])cc1

$$$$
