
     RDKit          3D

 30 33  0  0  0  0  0  0  0  0999 V2000
    8.0644   -2.7219    0.2489 C   0  0  0  0  0  0  0  0  0  0  0  0
    6.8099   -2.0403   -0.2000 C   0  0  0  0  0  0  0  0  0  0  0  0
    5.9707   -2.6263   -1.1247 C   0  0  0  0  0  0  0  0  0  0  0  0
    4.8135   -2.0021   -1.5410 C   0  0  0  0  0  0  0  0  0  0  0  0
    4.4369   -0.7670   -1.0578 C   0  0  0  0  0  0  0  0  0  0  0  0
    2.9669    0.0319   -1.5813 S   0  0  0  0  0  0  0  0  0  0  0  0
    2.6335   -0.4240   -2.9781 O   0  0  0  0  0  0  0  0  0  0  0  0
    3.1080    1.5275   -1.5656 O   0  0  0  0  0  0  0  0  0  0  0  0
    1.6324   -0.3863   -0.5772 N   0  0  0  0  0  0  0  0  0  0  0  0
    1.8467    0.0244    0.7982 C   0  0  0  0  0  0  0  0  0  0  0  0
    0.6561   -0.3590    1.6478 C   0  0  0  0  0  0  0  0  0  0  0  0
   -0.5842    0.2914    1.1607 C   0  0  0  0  0  0  0  0  0  0  0  0
   -1.3769   -0.0039    0.0735 C   0  0  0  0  0  0  0  0  0  0  0  0
   -1.1322   -1.1006   -0.8917 C   0  0  0  0  0  0  0  0  0  0  0  0
   -2.4053    0.8563    0.0227 N   0  0  0  0  0  0  0  0  0  0  0  0
   -3.4595    0.8822   -0.9653 C   0  0  0  0  0  0  0  0  0  0  0  0
   -4.6106    0.0391   -0.5665 C   0  0  0  0  0  0  0  0  0  0  0  0
   -4.6538   -1.2833   -0.9509 C   0  0  0  0  0  0  0  0  0  0  0  0
   -5.7058   -2.1305   -0.6091 C   0  0  0  0  0  0  0  0  0  0  0  0
   -6.7575   -1.6259    0.1509 C   0  0  0  0  0  0  0  0  0  0  0  0
   -6.6895   -0.3024    0.5213 C   0  0  0  0  0  0  0  0  0  0  0  0
   -5.6498    0.5352    0.1837 C   0  0  0  0  0  0  0  0  0  0  0  0
   -2.2690    1.6913    1.0676 C   0  0  0  0  0  0  0  0  0  0  0  0
   -3.0594    2.7533    1.4656 C   0  0  0  0  0  0  0  0  0  0  0  0
   -2.7303    3.4846    2.5814 C   0  0  0  0  0  0  0  0  0  0  0  0
   -1.6143    3.1565    3.2987 C   0  0  0  0  0  0  0  0  0  0  0  0
   -0.8231    2.1101    2.9185 C   0  0  0  0  0  0  0  0  0  0  0  0
   -1.1478    1.3766    1.8043 C   0  0  0  0  0  0  0  0  0  0  0  0
    5.2866   -0.1813   -0.1262 C   0  0  0  0  0  0  0  0  0  0  0  0
    6.4434   -0.8055    0.2901 C   0  0  0  0  0  0  0  0  0  0  0  0
  1  2  1  0
  2  3  2  0
  3  4  1  0
  4  5  2  0
  5  6  1  0
  6  7  2  0
  6  8  2  0
  6  9  1  0
  9 10  1  0
 10 11  1  0
 11 12  1  0
 12 13  2  0
 13 14  1  0
 13 15  1  0
 15 16  1  0
 16 17  1  0
 17 18  2  0
 18 19  1  0
 19 20  2  0
 20 21  1  0
 21 22  2  0
 15 23  1  0
 23 24  2  0
 24 25  1  0
 25 26  2  0
 26 27  1  0
 27 28  2  0
  5 29  1  0
 29 30  2  0
 30  2  1  0
 28 12  1  0
 22 17  1  0
 28 23  1  0
M  END
>  <zinc_id>  (1) 
ZINC000002939682

>  <smiles>  (1) 
Cc1ccc(S(=O)(=O)NCCc2c(C)n(Cc3ccccc3)c3ccccc23)cc1

$$$$
