
     RDKit          3D

 20 21  0  0  0  0  0  0  0  0999 V2000
    3.2170    2.7805   -0.9518 C   0  0  0  0  0  0  0  0  0  0  0  0
    1.9145    2.0517   -1.0016 C   0  0  0  0  0  0  0  0  0  0  0  0
    1.9394    1.2191    0.4082 C   0  0  1  0  0  0  0  0  0  0  0  0
    0.5432    0.5363    0.1911 C   0  0  0  0  0  0  0  0  0  0  0  0
    0.4696   -0.6081   -0.2700 O   0  0  0  0  0  0  0  0  0  0  0  0
   -0.6293    1.1966    0.5092 N   0  0  0  0  0  0  0  0  0  0  0  0
   -1.9619    0.7090    0.3686 C   0  0  0  0  0  0  0  0  0  0  0  0
   -3.0694    1.4494    0.7165 C   0  0  0  0  0  0  0  0  0  0  0  0
   -4.3740    1.0326    0.6034 C   0  0  0  0  0  0  0  0  0  0  0  0
   -4.6056   -0.2279    0.1019 C   0  0  0  0  0  0  0  0  0  0  0  0
   -5.9955   -0.7115   -0.0347 C   0  0  0  0  0  0  0  0  0  0  0  0
   -3.5388   -1.0261   -0.2678 C   0  0  0  0  0  0  0  0  0  0  0  0
   -3.8476   -2.2876   -0.7663 O   0  0  0  0  0  0  0  0  0  0  0  0
   -2.2649   -0.5437   -0.1267 C   0  0  0  0  0  0  0  0  0  0  0  0
    2.8708    0.0456   -0.1078 C   0  0  0  0  0  0  0  0  0  0  0  0
    4.0023   -0.1649    0.6558 C   0  0  0  0  0  0  0  0  0  0  0  0
    4.8521   -1.1936    0.2331 C   0  0  0  0  0  0  0  0  0  0  0  0
    4.5402   -1.9305   -0.8873 C   0  0  0  0  0  0  0  0  0  0  0  0
    3.3861   -1.6724   -1.6166 C   0  0  0  0  0  0  0  0  0  0  0  0
    2.5516   -0.6545   -1.1926 C   0  0  0  0  0  0  0  0  0  0  0  0
  1  2  1  0
  3  2  1  6
  3  4  1  0
  4  5  2  0
  4  6  1  0
  6  7  1  0
  7  8  2  0
  8  9  1  0
  9 10  2  0
 10 11  1  0
 10 12  1  0
 12 13  1  0
 12 14  2  0
  3 15  1  0
 15 16  2  0
 16 17  1  0
 17 18  2  0
 18 19  1  0
 19 20  2  0
 14  7  1  0
 20 15  1  0
M  END
>  <zinc_id>  (1) 
ZINC000000365447

>  <smiles>  (1) 
CC[C@@H](C(=O)Nc1ccc(C)c(O)c1)c1ccccc1

$$$$
