
     RDKit          3D

 22 23  0  0  0  0  0  0  0  0999 V2000
   -4.5029   -2.3278    0.1272 C   0  0  0  0  0  0  0  0  0  0  0  0
   -4.5010   -1.0324    0.0230 C   0  0  0  0  0  0  0  0  0  0  0  0
   -4.0662   -0.1727    1.1242 C   0  0  0  0  0  0  0  0  0  0  0  0
   -2.9114    0.6729    0.7428 N   0  0  0  0  0  0  0  0  0  0  0  0
   -3.2888    1.9192    0.1956 C   0  0  0  0  0  0  0  0  0  0  0  0
   -4.4782    2.2936    0.0372 O   0  0  0  0  0  0  0  0  0  0  0  0
   -2.2562    2.7969   -0.1967 N   0  0  0  0  0  0  0  0  0  0  0  0
   -0.9381    2.4133   -0.0314 C   0  0  0  0  0  0  0  0  0  0  0  0
    0.0006    2.9553   -0.6797 O   0  0  0  0  0  0  0  0  0  0  0  0
   -0.4620    1.3138    0.9385 C   0  0  2  0  0  0  0  0  0  0  0  0
    0.5054    0.5552   -0.0331 C   0  0  0  0  0  0  0  0  0  0  0  0
    0.9254    1.0585   -1.1489 C   0  0  0  0  0  0  0  0  0  0  0  0
    0.9171   -0.7410    0.3650 N   0  0  0  0  0  0  0  0  0  0  0  0
    2.2717   -1.1470    0.2858 C   0  0  0  0  0  0  0  0  0  0  0  0
    2.7167   -2.3899    0.6594 C   0  0  0  0  0  0  0  0  0  0  0  0
    4.0446   -2.7487    0.5677 C   0  0  0  0  0  0  0  0  0  0  0  0
    4.9458   -1.8135    0.0809 C   0  0  0  0  0  0  0  0  0  0  0  0
    6.2538   -2.1623   -0.0111 F   0  0  0  0  0  0  0  0  0  0  0  0
    4.5382   -0.5572   -0.3036 C   0  0  0  0  0  0  0  0  0  0  0  0
    3.1963   -0.2505   -0.1909 C   0  0  0  0  0  0  0  0  0  0  0  0
   -1.5998    0.2865    0.9030 C   0  0  0  0  0  0  0  0  0  0  0  0
   -1.3109   -0.9222    1.0247 O   0  0  0  0  0  0  0  0  0  0  0  0
  1  2  2  0
  2  3  1  0
  3  4  1  0
  4  5  1  0
  5  6  2  0
  5  7  1  0
  7  8  1  0
  8  9  2  0
  8 10  1  0
 10 11  1  6
 11 12  2  0
 11 13  1  0
 13 14  1  0
 14 15  2  0
 15 16  1  0
 16 17  2  0
 17 18  1  0
 17 19  1  0
 19 20  2  0
 10 21  1  0
 21 22  2  0
 21  4  1  0
 20 14  1  0
M  END
>  <zinc_id>  (1) 
ZINC000002263982

>  <smiles>  (1) 
C=CCN1C(=O)NC(=O)[C@H](C(=C)Nc2ccc(F)cc2)C1=O

$$$$
