
     RDKit          3D

 32 36  0  0  0  0  0  0  0  0999 V2000
   -6.8402    2.6356   -0.3526 C   0  0  0  0  0  0  0  0  0  0  0  0
   -6.7542    1.3175   -0.8385 O   0  0  0  0  0  0  0  0  0  0  0  0
   -5.7301    0.4552   -0.4782 C   0  0  0  0  0  0  0  0  0  0  0  0
   -4.7701    0.9044    0.3825 C   0  0  0  0  0  0  0  0  0  0  0  0
   -3.7510    0.0533    0.7446 C   0  0  0  0  0  0  0  0  0  0  0  0
   -2.6770    0.6635    1.7510 C   0  0  1  0  0  0  0  0  0  0  0  0
   -2.3250   -0.6911    2.4431 N   0  0  0  0  0  0  0  0  0  0  0  0
   -1.3769   -0.2161    3.4695 C   0  0  0  0  0  0  0  0  0  0  0  0
   -0.0400    0.1032    2.7966 C   0  0  0  0  0  0  0  0  0  0  0  0
   -0.2338    0.4314    1.3806 C   0  0  0  0  0  0  0  0  0  0  0  0
   -1.4433    0.7067    0.8018 C   0  0  0  0  0  0  0  0  0  0  0  0
   -1.2987    0.9643   -0.4883 N   0  0  0  0  0  0  0  0  0  0  0  0
    0.0273    0.8701   -0.8242 C   0  0  0  0  0  0  0  0  0  0  0  0
    0.7473    1.0288   -1.9862 C   0  0  0  0  0  0  0  0  0  0  0  0
    2.1275    0.8580   -1.9930 C   0  0  0  0  0  0  0  0  0  0  0  0
    2.7974    0.5291   -0.8458 C   0  0  0  0  0  0  0  0  0  0  0  0
    4.1584    0.3457   -0.7811 O   0  0  0  0  0  0  0  0  0  0  0  0
    4.8418    0.0083    0.3980 C   0  0  0  0  0  0  0  0  0  0  0  0
    6.2973   -0.1157    0.1302 C   0  0  0  0  0  0  0  0  0  0  0  0
    6.7533   -1.3771   -0.2329 C   0  0  0  0  0  0  0  0  0  0  0  0
    8.1193   -1.4775   -0.4808 C   0  0  0  0  0  0  0  0  0  0  0  0
    8.9829   -0.4378   -0.3858 C   0  0  0  0  0  0  0  0  0  0  0  0
    8.4953    0.7998   -0.0230 C   0  0  0  0  0  0  0  0  0  0  0  0
    7.1602    0.9724    0.2364 C   0  0  0  0  0  0  0  0  0  0  0  0
    2.0608    0.3741    0.3084 C   0  0  0  0  0  0  0  0  0  0  0  0
    0.7007    0.5321    0.3623 C   0  0  0  0  0  0  0  0  0  0  0  0
   -3.6725   -1.1909    0.2829 C   0  0  0  0  0  0  0  0  0  0  0  0
   -2.6200   -2.0218    0.6775 O   0  0  0  0  0  0  0  0  0  0  0  0
   -2.6158   -3.3242    0.1398 C   0  0  0  0  0  0  0  0  0  0  0  0
   -4.6555   -1.6223   -0.5868 C   0  0  0  0  0  0  0  0  0  0  0  0
   -5.7015   -0.8254   -0.9902 C   0  0  0  0  0  0  0  0  0  0  0  0
   -6.7638   -1.2536   -1.9144 C   0  0  0  0  0  0  0  0  0  0  0  0
  1  2  1  0
  2  3  1  0
  3  4  2  0
  4  5  1  0
  6  5  1  6
  6  7  1  0
  7  8  1  0
  8  9  1  0
  9 10  1  0
 10 11  2  0
 11 12  1  0
 12 13  1  0
 13 14  2  0
 14 15  1  0
 15 16  2  0
 16 17  1  0
 17 18  1  0
 18 19  1  0
 19 20  2  0
 20 21  1  0
 21 22  2  0
 22 23  1  0
 23 24  2  0
 16 25  1  0
 25 26  2  0
  5 27  2  0
 27 28  1  0
 28 29  1  0
 27 30  1  0
 30 31  2  0
 31 32  1  0
 31  3  1  0
 11  6  1  0
 26 13  1  0
 26 10  1  0
 24 19  1  0
M  END
>  <zinc_id>  (1) 
ZINC000003737273

>  <smiles>  (1) 
COc1cc([C@H]2NCCc3c2[nH]c2ccc(OCc4ccccc4)cc32)c(OC)cc1C

$$$$
