
     RDKit          3D

 20 23  0  0  0  0  0  0  0  0999 V2000
    3.9947   -2.3878    0.3148 C   0  0  0  0  0  0  0  0  0  0  0  0
    5.0542   -1.5370    0.2049 C   0  0  0  0  0  0  0  0  0  0  0  0
    4.2804   -0.0311    0.0058 S   0  0  0  0  0  0  0  0  0  0  0  0
    2.6523   -0.5284    0.0684 C   0  0  0  0  0  0  0  0  0  0  0  0
    1.4435    0.2903   -0.0411 C   0  0  0  0  0  0  0  0  0  0  0  0
    1.4372    1.6177   -0.2153 N   0  0  0  0  0  0  0  0  0  0  0  0
    0.1470    2.0596   -0.2755 C   0  0  0  0  0  0  0  0  0  0  0  0
   -0.3294    3.3071   -0.4398 N   0  0  0  0  0  0  0  0  0  0  0  0
   -1.6495    3.5467   -0.4733 C   0  0  0  0  0  0  0  0  0  0  0  0
   -2.5273    2.4923   -0.3364 C   0  0  0  0  0  0  0  0  0  0  0  0
   -1.9969    1.2295   -0.1700 C   0  0  0  0  0  0  0  0  0  0  0  0
   -0.6758    0.9844   -0.1358 N   0  0  0  0  0  0  0  0  0  0  0  0
    0.1219   -0.0890    0.0064 C   0  0  0  0  0  0  0  0  0  0  0  0
   -0.3239   -1.4199    0.1810 N   0  0  0  0  0  0  0  0  0  0  0  0
   -1.6647   -1.8814    0.2376 C   0  0  0  0  0  0  0  0  0  0  0  0
   -2.4871   -1.6092   -1.0031 C   0  0  0  0  0  0  0  0  0  0  0  0
   -3.9228   -1.5394   -0.5241 C   0  0  0  0  0  0  0  0  0  0  0  0
   -3.8891   -1.3563    0.9643 C   0  0  0  0  0  0  0  0  0  0  0  0
   -2.4355   -1.2683    1.3853 C   0  0  0  0  0  0  0  0  0  0  0  0
    2.7709   -1.8794    0.2460 C   0  0  0  0  0  0  0  0  0  0  0  0
  1  2  2  0
  2  3  1  0
  3  4  1  0
  4  5  1  0
  5  6  1  0
  6  7  2  0
  7  8  1  0
  8  9  2  0
  9 10  1  0
 10 11  2  0
 11 12  1  0
 12 13  1  0
 13 14  1  0
 14 15  1  0
 15 16  1  0
 16 17  1  0
 17 18  1  0
 18 19  1  0
  4 20  2  0
 20  1  1  0
 13  5  2  0
 19 15  1  0
 12  7  1  0
M  END
>  <zinc_id>  (1) 
ZINC000000428762

>  <smiles>  (1) 
c1csc(-c2nc3ncccn3c2NC2CCCC2)c1

$$$$
