
     RDKit          3D

 32 35  0  0  0  0  0  0  0  0999 V2000
    6.8412    1.8455    1.2725 C   0  0  0  0  0  0  0  0  0  0  0  0
    7.6021    0.6145    1.7607 C   0  0  0  0  0  0  0  0  0  0  0  0
    6.8070   -0.5796    1.6313 N   0  0  0  0  0  0  0  0  0  0  0  0
    7.3601   -1.8378    2.0527 C   0  0  0  0  0  0  0  0  0  0  0  0
    7.5130   -1.8236    3.5582 C   0  0  0  0  0  0  0  0  0  0  0  0
    5.4999   -0.5504    1.0906 C   0  0  0  0  0  0  0  0  0  0  0  0
    4.3801   -0.2887    1.8749 C   0  0  0  0  0  0  0  0  0  0  0  0
    3.1548   -0.2809    1.2829 C   0  0  0  0  0  0  0  0  0  0  0  0
    3.0100   -0.5236   -0.0579 C   0  0  0  0  0  0  0  0  0  0  0  0
    1.7075   -0.4919   -0.6195 N   0  0  0  0  0  0  0  0  0  0  0  0
    0.5484   -0.1328    0.0893 C   0  0  0  0  0  0  0  0  0  0  0  0
    0.6461    0.1869    1.3026 O   0  0  0  0  0  0  0  0  0  0  0  0
   -0.7543   -0.1333   -0.5882 C   0  0  0  0  0  0  0  0  0  0  0  0
   -1.9147    0.2853    0.0731 C   0  0  0  0  0  0  0  0  0  0  0  0
   -3.1340    0.2880   -0.5764 C   0  0  0  0  0  0  0  0  0  0  0  0
   -4.3399    0.7242    0.1134 C   0  0  0  0  0  0  0  0  0  0  0  0
   -5.5669    0.7036   -0.5267 C   0  0  0  0  0  0  0  0  0  0  0  0
   -6.7311    1.1189    0.0875 C   0  0  0  0  0  0  0  0  0  0  0  0
   -6.7234    1.5870    1.4056 C   0  0  0  0  0  0  0  0  0  0  0  0
   -7.8918    2.0057    2.0276 O   0  0  0  0  0  0  0  0  0  0  0  0
   -9.1324    1.9675    1.3284 C   0  0  0  0  0  0  0  0  0  0  0  0
   -5.5045    1.6050    2.0359 C   0  0  0  0  0  0  0  0  0  0  0  0
   -4.3386    1.1851    1.4112 C   0  0  0  0  0  0  0  0  0  0  0  0
   -3.1448   -0.1259   -1.8553 N   0  0  0  0  0  0  0  0  0  0  0  0
   -2.0506   -0.5349   -2.5238 C   0  0  0  0  0  0  0  0  0  0  0  0
   -2.0948   -0.9568   -3.8354 C   0  0  0  0  0  0  0  0  0  0  0  0
   -0.9747   -1.3806   -4.5211 C   0  0  0  0  0  0  0  0  0  0  0  0
    0.2350   -1.3789   -3.8623 C   0  0  0  0  0  0  0  0  0  0  0  0
    0.3371   -0.9668   -2.5509 C   0  0  0  0  0  0  0  0  0  0  0  0
   -0.8158   -0.5483   -1.8973 C   0  0  0  0  0  0  0  0  0  0  0  0
    4.1216   -0.7875   -0.8570 C   0  0  0  0  0  0  0  0  0  0  0  0
    5.3484   -0.7951   -0.2626 C   0  0  0  0  0  0  0  0  0  0  0  0
  1  2  1  0
  2  3  1  0
  3  4  1  0
  4  5  1  0
  3  6  1  0
  6  7  2  0
  7  8  1  0
  8  9  2  0
  9 10  1  0
 10 11  1  0
 11 12  2  0
 11 13  1  0
 13 14  2  0
 14 15  1  0
 15 16  1  0
 16 17  2  0
 17 18  1  0
 18 19  2  0
 19 20  1  0
 20 21  1  0
 19 22  1  0
 22 23  2  0
 15 24  2  0
 24 25  1  0
 25 26  2  0
 26 27  1  0
 27 28  2  0
 28 29  1  0
 29 30  2  0
  9 31  1  0
 31 32  2  0
 32  6  1  0
 30 13  1  0
 23 16  1  0
 30 25  1  0
M  END
>  <zinc_id>  (1) 
ZINC000002736952

>  <smiles>  (1) 
CCN(CC)c1ccc(NC(=O)c2cc(-c3ccc(OC)cc3)nc3ccccc23)cc1

$$$$
