
     RDKit          3D

 30 32  0  0  0  0  0  0  0  0999 V2000
   -4.1629   -5.6280    2.0101 C   0  0  0  0  0  0  0  0  0  0  0  0
   -3.8831   -4.1531    1.8790 C   0  0  0  0  0  0  0  0  0  0  0  0
   -2.5599   -3.8040    1.7688 C   0  0  0  0  0  0  0  0  0  0  0  0
   -2.2944   -2.4432    1.6475 C   0  0  0  0  0  0  0  0  0  0  0  0
   -3.2611   -1.4792    1.6344 C   0  0  0  0  0  0  0  0  0  0  0  0
   -2.8333   -0.1629    1.5048 N   0  0  0  0  0  0  0  0  0  0  0  0
   -1.5071    0.1690    1.3932 C   0  0  0  0  0  0  0  0  0  0  0  0
   -0.7082   -0.7422    1.4126 O   0  0  0  0  0  0  0  0  0  0  0  0
   -0.9510    1.6208    1.2436 C   0  0  2  0  0  0  0  0  0  0  0  0
   -1.1991    1.8611   -0.3620 C   0  0  0  0  0  0  0  0  0  0  0  0
   -0.7138    3.2323   -0.6300 C   0  0  0  0  0  0  0  0  0  0  0  0
   -1.5308    4.3344   -0.5360 C   0  0  0  0  0  0  0  0  0  0  0  0
   -1.0523    5.6154   -0.7940 C   0  0  0  0  0  0  0  0  0  0  0  0
    0.2741    5.7469   -1.1488 C   0  0  0  0  0  0  0  0  0  0  0  0
    1.1311    4.6799   -1.2567 C   0  0  0  0  0  0  0  0  0  0  0  0
    0.5965    3.4197   -0.9865 C   0  0  0  0  0  0  0  0  0  0  0  0
    0.5625    1.3362    1.1029 N   0  0  0  0  0  0  0  0  0  0  0  0
    1.0493    0.6062    0.0132 C   0  0  0  0  0  0  0  0  0  0  0  0
    0.1661    0.2376   -0.7917 O   0  0  0  0  0  0  0  0  0  0  0  0
    2.4131    0.3257   -0.1386 O   0  0  0  0  0  0  0  0  0  0  0  0
    2.7467   -0.4260   -1.2940 C   0  0  0  0  0  0  0  0  0  0  0  0
    4.2270   -0.6532   -1.3305 C   0  0  0  0  0  0  0  0  0  0  0  0
    4.7373   -1.7508   -0.6712 C   0  0  0  0  0  0  0  0  0  0  0  0
    6.0815   -2.0494   -0.6469 C   0  0  0  0  0  0  0  0  0  0  0  0
    6.9325   -1.1975   -1.3193 C   0  0  0  0  0  0  0  0  0  0  0  0
    6.4304   -0.0965   -1.9819 C   0  0  0  0  0  0  0  0  0  0  0  0
    5.0793    0.1942   -1.9998 C   0  0  0  0  0  0  0  0  0  0  0  0
   -4.5765   -1.8764    1.7478 C   0  0  0  0  0  0  0  0  0  0  0  0
   -4.8982   -3.2219    1.8714 C   0  0  0  0  0  0  0  0  0  0  0  0
   -6.2955   -3.6950    1.9948 C   0  0  0  0  0  0  0  0  0  0  0  0
  1  2  1  0
  2  3  2  0
  3  4  1  0
  4  5  2  0
  5  6  1  0
  6  7  1  0
  7  8  2  0
  7  9  1  0
  9 10  1  6
 10 11  1  0
 11 12  2  0
 12 13  1  0
 13 14  2  0
 14 15  1  0
 15 16  2  0
  9 17  1  0
 17 18  1  0
 18 19  2  0
 18 20  1  0
 20 21  1  0
 21 22  1  0
 22 23  2  0
 23 24  1  0
 24 25  2  0
 25 26  1  0
 26 27  2  0
  5 28  1  0
 28 29  2  0
 29 30  1  0
 29  2  1  0
 16 11  1  0
 27 22  1  0
M  END
>  <zinc_id>  (1) 
ZINC000000788081

>  <smiles>  (1) 
Cc1ccc(NC(=O)[C@H](Cc2ccccc2)NC(=O)OCc2ccccc2)cc1C

$$$$
