
     RDKit          3D

 33 37  0  0  0  0  0  0  0  0999 V2000
    2.0807    1.8909    3.6927 C   0  0  0  0  0  0  0  0  0  0  0  0
    2.1100    1.7572    2.2890 O   0  0  0  0  0  0  0  0  0  0  0  0
    1.2878    0.8185    1.6255 C   0  0  0  0  0  0  0  0  0  0  0  0
    0.4351    0.0081    2.3316 C   0  0  0  0  0  0  0  0  0  0  0  0
   -0.3702   -0.9133    1.6665 C   0  0  0  0  0  0  0  0  0  0  0  0
   -0.3440   -1.0405    0.3481 C   0  0  0  0  0  0  0  0  0  0  0  0
   -1.1773   -2.0706   -0.4928 C   0  0  2  0  0  0  0  0  0  0  0  0
   -1.7331   -0.9995   -1.6120 C   0  0  0  0  0  0  0  0  0  0  0  0
   -2.5134    0.0199   -0.9455 C   0  0  0  0  0  0  0  0  0  0  0  0
   -3.8926   -0.0604   -0.7191 C   0  0  0  0  0  0  0  0  0  0  0  0
   -4.6159    0.9026   -0.1012 C   0  0  0  0  0  0  0  0  0  0  0  0
   -4.0190    2.0104    0.3337 N   0  0  0  0  0  0  0  0  0  0  0  0
   -2.6788    2.1712    0.1548 C   0  0  0  0  0  0  0  0  0  0  0  0
   -1.9493    1.1842   -0.4762 C   0  0  0  0  0  0  0  0  0  0  0  0
   -2.5043   -2.1905    0.3152 C   0  0  0  0  0  0  0  0  0  0  0  0
   -2.6820   -1.6043    1.5195 C   0  0  0  0  0  0  0  0  0  0  0  0
   -3.8982   -1.7640    2.2163 C   0  0  0  0  0  0  0  0  0  0  0  0
   -4.9012   -2.5210    1.6599 C   0  0  0  0  0  0  0  0  0  0  0  0
   -6.1558   -2.6907    2.3705 N   0  0  0  0  0  0  0  0  0  0  0  0
   -4.7171   -3.1160    0.4344 C   0  0  0  0  0  0  0  0  0  0  0  0
   -3.4874   -2.9384   -0.2415 C   0  0  0  0  0  0  0  0  0  0  0  0
    0.4959   -0.2468   -0.3881 C   0  0  0  0  0  0  0  0  0  0  0  0
    1.3246    0.6967    0.2573 C   0  0  0  0  0  0  0  0  0  0  0  0
    2.1811    1.5076   -0.4787 O   0  0  0  0  0  0  0  0  0  0  0  0
    2.2170    1.3789   -1.8972 C   0  0  0  0  0  0  0  0  0  0  0  0
    3.2311    2.3819   -2.4018 C   0  0  0  0  0  0  0  0  0  0  0  0
    4.5093    1.7260   -2.0705 C   0  0  0  0  0  0  0  0  0  0  0  0
    5.7624    2.2334   -1.8337 C   0  0  0  0  0  0  0  0  0  0  0  0
    6.8466    1.4230   -1.5355 C   0  0  0  0  0  0  0  0  0  0  0  0
    6.6317    0.0674   -1.4814 C   0  0  0  0  0  0  0  0  0  0  0  0
    5.3563   -0.4435   -1.7229 C   0  0  0  0  0  0  0  0  0  0  0  0
    4.2928    0.3675   -2.0165 C   0  0  0  0  0  0  0  0  0  0  0  0
    2.8771    0.0541   -2.3014 C   0  0  0  0  0  0  0  0  0  0  0  0
  1  2  1  0
  2  3  1  0
  3  4  2  0
  4  5  1  0
  5  6  2  0
  6  7  1  0
  7  8  1  6
  8  9  1  0
  9 10  2  0
 10 11  1  0
 11 12  2  0
 12 13  1  0
 13 14  2  0
  7 15  1  0
 15 16  2  0
 16 17  1  0
 17 18  2  0
 18 19  1  0
 18 20  1  0
 20 21  2  0
  6 22  1  0
 22 23  2  0
 23 24  1  0
 24 25  1  0
 25 26  1  0
 26 27  1  0
 27 28  2  0
 28 29  1  0
 29 30  2  0
 30 31  1  0
 31 32  2  0
 32 33  1  0
 23  3  1  0
 33 25  1  0
 14  9  1  0
 21 15  1  0
 32 27  1  0
M  END
>  <zinc_id>  (1) 
ZINC000000585720

>  <smiles>  (1) 
COc1ccc([C@H](Cc2ccncc2)c2ccc(N)cc2)cc1OC1Cc2ccccc2C1

$$$$
