
     RDKit          3D

 31 34  0  0  0  0  0  0  0  0999 V2000
    2.8067    1.4047   -2.7861 C   0  0  0  0  0  0  0  0  0  0  0  0
    1.9837    0.6408   -2.0922 C   0  0  0  0  0  0  0  0  0  0  0  0
    2.2740   -0.7148   -1.8402 N   0  0  0  0  0  0  0  0  0  0  0  0
    3.4013   -1.1172   -1.1906 O   0  0  0  0  0  0  0  0  0  0  0  0
    4.0909   -0.0293   -0.6584 C   0  0  0  0  0  0  0  0  0  0  0  0
    5.3142   -0.5723    0.0346 C   0  0  0  0  0  0  0  0  0  0  0  0
    6.1865    0.2779    0.6556 C   0  0  0  0  0  0  0  0  0  0  0  0
    7.3121   -0.1743    1.2973 C   0  0  0  0  0  0  0  0  0  0  0  0
    7.5771   -1.5236    1.3202 C   0  0  0  0  0  0  0  0  0  0  0  0
    6.6968   -2.3970    0.6918 C   0  0  0  0  0  0  0  0  0  0  0  0
    5.5732   -1.9237    0.0536 C   0  0  0  0  0  0  0  0  0  0  0  0
    0.7412    1.2461   -1.5813 C   0  0  0  0  0  0  0  0  0  0  0  0
    0.4410    2.5669   -1.8285 C   0  0  0  0  0  0  0  0  0  0  0  0
   -0.7114    3.1296   -1.3515 C   0  0  0  0  0  0  0  0  0  0  0  0
   -1.5764    2.3740   -0.6207 C   0  0  0  0  0  0  0  0  0  0  0  0
   -1.3469    1.0558   -0.3335 C   0  0  0  0  0  0  0  0  0  0  0  0
   -0.1591    0.5283   -0.8422 C   0  0  0  0  0  0  0  0  0  0  0  0
   -2.2113    0.2105    0.4430 N   0  0  0  0  0  0  0  0  0  0  0  0
   -1.7425   -1.1397    0.6348 C   0  0  0  0  0  0  0  0  0  0  0  0
   -2.8274   -2.0688    0.9885 C   0  0  0  0  0  0  0  0  0  0  0  0
   -3.8962   -2.2340   -0.0720 C   0  0  0  0  0  0  0  0  0  0  0  0
   -3.4193   -2.7273   -1.3173 N   0  0  0  0  0  0  0  0  0  0  0  0
   -2.5706   -1.8335   -2.0466 C   0  0  0  0  0  0  0  0  0  0  0  0
   -3.0143   -4.0956   -1.3332 C   0  0  0  0  0  0  0  0  0  0  0  0
   -3.4231    0.6260    1.0222 C   0  0  0  0  0  0  0  0  0  0  0  0
   -4.1759   -0.2466    1.7855 C   0  0  0  0  0  0  0  0  0  0  0  0
   -5.3493    0.0916    2.4049 C   0  0  0  0  0  0  0  0  0  0  0  0
   -5.8496    1.3707    2.2878 C   0  0  0  0  0  0  0  0  0  0  0  0
   -5.0965    2.2369    1.5266 C   0  0  0  0  0  0  0  0  0  0  0  0
   -3.9320    1.8937    0.9146 C   0  0  0  0  0  0  0  0  0  0  0  0
   -3.0968    3.1444   -0.0172 S   0  0  0  0  0  0  0  0  0  0  0  0
  1  2  2  0
  2  3  1  0
  3  4  1  0
  4  5  1  0
  5  6  1  0
  6  7  2  0
  7  8  1  0
  8  9  2  0
  9 10  1  0
 10 11  2  0
  2 12  1  0
 12 13  2  0
 13 14  1  0
 14 15  2  0
 15 16  1  0
 16 17  2  0
 16 18  1  0
 18 19  1  0
 19 20  1  0
 20 21  1  0
 21 22  1  0
 22 23  1  0
 22 24  1  0
 18 25  1  0
 25 26  2  0
 26 27  1  0
 27 28  2  0
 28 29  1  0
 29 30  2  0
 30 31  1  0
 11  6  1  0
 17 12  1  0
 30 25  1  0
 31 15  1  0
M  END
>  <zinc_id>  (1) 
ZINC000001546089

>  <smiles>  (1) 
C=C(NOCc1ccccc1)c1ccc2c(c1)N(CCCN(C)C)c1ccccc1S2

$$$$
