
     RDKit          3D

 33 36  0  0  0  0  0  0  0  0999 V2000
   -6.5255    1.5062   -4.4126 C   0  0  0  0  0  0  0  0  0  0  0  0
   -5.2886    1.2802   -3.7699 O   0  0  0  0  0  0  0  0  0  0  0  0
   -5.2348    1.0310   -2.3838 C   0  0  0  0  0  0  0  0  0  0  0  0
   -6.3790    0.9984   -1.6192 C   0  0  0  0  0  0  0  0  0  0  0  0
   -6.3480    0.7565   -0.2620 C   0  0  0  0  0  0  0  0  0  0  0  0
   -5.1136    0.5395    0.3447 C   0  0  0  0  0  0  0  0  0  0  0  0
   -4.9986    0.2869    1.7157 O   0  0  0  0  0  0  0  0  0  0  0  0
   -6.1386    0.2380    2.5649 C   0  0  0  0  0  0  0  0  0  0  0  0
   -3.9487    0.5657   -0.3919 C   0  0  0  0  0  0  0  0  0  0  0  0
   -2.6677    0.3378    0.2806 C   0  0  0  0  0  0  0  0  0  0  0  0
   -1.4705    0.3677   -0.4025 C   0  0  0  0  0  0  0  0  0  0  0  0
   -0.2593    0.1594    0.2160 C   0  0  0  0  0  0  0  0  0  0  0  0
    1.0109    0.1912   -0.4724 C   0  0  0  0  0  0  0  0  0  0  0  0
    0.9820    0.4189   -1.7255 O   0  0  0  0  0  0  0  0  0  0  0  0
    2.2433   -0.0111    0.1571 N   0  0  0  0  0  0  0  0  0  0  0  0
    3.5040    0.0731   -0.8060 C   0  0  1  0  0  0  0  0  0  0  0  0
    3.2263    1.6978   -1.1334 C   0  0  0  0  0  0  0  0  0  0  0  0
    4.5348    0.4447    0.4390 C   0  0  0  0  0  0  0  0  0  0  0  0
    5.8911    0.6022   -0.1662 C   0  0  0  0  0  0  0  0  0  0  0  0
    6.3958   -0.6005   -0.8508 C   0  0  0  0  0  0  0  0  0  0  0  0
    7.1328   -1.5628   -0.1922 C   0  0  0  0  0  0  0  0  0  0  0  0
    7.5957   -2.6782   -0.8631 C   0  0  0  0  0  0  0  0  0  0  0  0
    7.3213   -2.8298   -2.1904 C   0  0  0  0  0  0  0  0  0  0  0  0
    6.5820   -1.8818   -2.8874 C   0  0  0  0  0  0  0  0  0  0  0  0
    6.1481   -0.8003   -2.1823 C   0  0  0  0  0  0  0  0  0  0  0  0
   -0.2780   -0.0886    1.5850 C   0  0  0  0  0  0  0  0  0  0  0  0
    0.9147   -0.3078    2.2694 C   0  0  0  0  0  0  0  0  0  0  0  0
    0.9359   -0.5577    3.6312 C   0  0  0  0  0  0  0  0  0  0  0  0
   -0.2548   -0.5894    4.3223 C   0  0  0  0  0  0  0  0  0  0  0  0
   -1.4180   -0.3706    3.6279 C   0  0  0  0  0  0  0  0  0  0  0  0
   -1.4621   -0.1201    2.2712 C   0  0  0  0  0  0  0  0  0  0  0  0
   -2.5956    0.0919    1.6002 N   0  0  0  0  0  0  0  0  0  0  0  0
   -4.0372    0.8115   -1.7422 C   0  0  0  0  0  0  0  0  0  0  0  0
  1  2  1  0
  2  3  1  0
  3  4  2  0
  4  5  1  0
  5  6  2  0
  6  7  1  0
  7  8  1  0
  6  9  1  0
  9 10  1  0
 10 11  2  0
 11 12  1  0
 12 13  1  0
 13 14  2  0
 13 15  1  0
 15 16  1  0
 16 17  1  6
 16 18  1  0
 18 19  1  0
 19 20  1  0
 20 21  2  0
 21 22  1  0
 22 23  2  0
 23 24  1  0
 24 25  2  0
 12 26  2  0
 26 27  1  0
 27 28  2  0
 28 29  1  0
 29 30  2  0
 30 31  1  0
 31 32  2  0
  9 33  2  0
 33  3  1  0
 32 10  1  0
 25 20  1  0
 31 26  1  0
M  END
>  <zinc_id>  (1) 
ZINC000002867724

>  <smiles>  (1) 
COc1ccc(OC)c(-c2cc(C(=O)N[C@@H](C)CCc3ccccc3)c3ccccc3n2)c1

$$$$
