
     RDKit          3D

 31 34  0  0  0  0  0  0  0  0999 V2000
    2.7808   -3.8287   -1.7171 C   0  0  0  0  0  0  0  0  0  0  0  0
    3.0195   -2.5406   -1.2351 O   0  0  0  0  0  0  0  0  0  0  0  0
    2.0883   -1.8505   -0.4684 C   0  0  0  0  0  0  0  0  0  0  0  0
    0.8934   -2.5050   -0.1980 C   0  0  0  0  0  0  0  0  0  0  0  0
   -0.0639   -1.8407    0.5692 C   0  0  0  0  0  0  0  0  0  0  0  0
    0.1493   -0.6158    1.0345 C   0  0  0  0  0  0  0  0  0  0  0  0
    1.3377    0.0203    0.7585 C   0  0  0  0  0  0  0  0  0  0  0  0
    2.3305   -0.5827    0.0025 C   0  0  0  0  0  0  0  0  0  0  0  0
    3.5457   -0.0019   -0.3120 O   0  0  0  0  0  0  0  0  0  0  0  0
    3.7995    1.3000    0.1691 C   0  0  0  0  0  0  0  0  0  0  0  0
    5.1388    1.7538   -0.2638 C   0  0  0  0  0  0  0  0  0  0  0  0
    5.9013    0.9018   -1.0248 C   0  0  0  0  0  0  0  0  0  0  0  0
    7.1435    1.3082   -1.4329 C   0  0  0  0  0  0  0  0  0  0  0  0
    7.6606    2.5467   -1.1074 C   0  0  0  0  0  0  0  0  0  0  0  0
    6.8548    3.3714   -0.3383 C   0  0  0  0  0  0  0  0  0  0  0  0
    5.6091    3.0213    0.0977 C   0  0  0  0  0  0  0  0  0  0  0  0
   -0.8864    0.1840    1.9121 C   0  0  1  0  0  0  0  0  0  0  0  0
   -2.1111    0.1563    0.9567 C   0  0  0  0  0  0  0  0  0  0  0  0
   -1.9214    0.3363   -0.3803 C   0  0  0  0  0  0  0  0  0  0  0  0
   -3.0036    0.3174   -1.2728 C   0  0  0  0  0  0  0  0  0  0  0  0
   -4.3057    0.1112   -0.7958 C   0  0  0  0  0  0  0  0  0  0  0  0
   -5.3453    0.0990   -1.7136 O   0  0  0  0  0  0  0  0  0  0  0  0
   -6.6980   -0.0758   -1.5077 C   0  0  0  0  0  0  0  0  0  0  0  0
   -7.2848    0.9689   -0.6475 C   0  0  0  0  0  0  0  0  0  0  0  0
   -7.1645    2.3760   -1.1326 C   0  0  0  0  0  0  0  0  0  0  0  0
   -7.1007    0.8772    0.8100 C   0  0  0  0  0  0  0  0  0  0  0  0
   -4.4654   -0.0650    0.5384 C   0  0  0  0  0  0  0  0  0  0  0  0
   -3.3845   -0.0420    1.3950 C   0  0  0  0  0  0  0  0  0  0  0  0
   -1.2698   -1.0894    2.7767 N   0  0  0  0  0  0  0  0  0  0  0  0
   -1.9369   -2.0299    2.0485 C   0  0  0  0  0  0  0  0  0  0  0  0
   -1.3109   -2.5818    0.8156 C   0  0  0  0  0  0  0  0  0  0  0  0
  1  2  1  0
  2  3  1  0
  3  4  2  0
  4  5  1  0
  5  6  2  0
  6  7  1  0
  7  8  2  0
  8  9  1  0
  9 10  1  0
 10 11  1  0
 11 12  2  0
 12 13  1  0
 13 14  2  0
 14 15  1  0
 15 16  2  0
  6 17  1  0
 17 18  1  6
 18 19  2  0
 19 20  1  0
 20 21  2  0
 21 22  1  0
 22 23  1  0
 23 24  1  0
 24 25  1  0
 24 26  1  0
 21 27  1  0
 27 28  2  0
 17 29  1  0
 29 30  1  0
 30 31  1  0
  8  3  1  0
 16 11  1  0
 28 18  1  0
 31  5  1  0
M  END
>  <zinc_id>  (1) 
ZINC000003702267

>  <smiles>  (1) 
COc1cc2c(cc1OCc1ccccc1)[C@@H](c1ccc(OCC(C)C)cc1)NCC2

$$$$
