
     RDKit          3D

 19 21  0  0  0  0  0  0  0  0999 V2000
    3.0593   -1.2926   -1.0665 C   0  0  0  0  0  0  0  0  0  0  0  0
    3.1017    0.3350   -0.9634 C   0  0  2  0  0  0  0  0  0  0  0  0
    4.7388    0.3356   -0.8510 C   0  0  0  0  0  0  0  0  0  0  0  0
    5.1061    1.6708   -0.2638 C   0  0  0  0  0  0  0  0  0  0  0  0
    3.8837    2.5253   -0.1263 C   0  0  0  0  0  0  0  0  0  0  0  0
    2.9350    1.9651    0.8417 C   0  0  0  0  0  0  0  0  0  0  0  0
    2.8850    0.3342    0.7173 C   0  0  1  0  0  0  0  0  0  0  0  0
    1.3387    0.3515    0.6285 N   0  0  0  0  0  0  0  0  0  0  0  0
    0.5941   -0.7910    0.6097 C   0  0  0  0  0  0  0  0  0  0  0  0
    1.1028   -1.9288    0.6590 O   0  0  0  0  0  0  0  0  0  0  0  0
   -0.8534   -0.7065    0.5277 C   0  0  0  0  0  0  0  0  0  0  0  0
   -1.7717   -1.6734    0.4869 N   0  0  0  0  0  0  0  0  0  0  0  0
   -3.0147   -1.1292    0.4069 C   0  0  0  0  0  0  0  0  0  0  0  0
   -4.2882   -1.6203    0.3346 C   0  0  0  0  0  0  0  0  0  0  0  0
   -5.3718   -0.7690    0.2546 C   0  0  0  0  0  0  0  0  0  0  0  0
   -5.1646    0.5842    0.2483 C   0  0  0  0  0  0  0  0  0  0  0  0
   -3.8915    1.1326    0.3201 C   0  0  0  0  0  0  0  0  0  0  0  0
   -2.8539    0.2256    0.3975 C   0  0  0  0  0  0  0  0  0  0  0  0
   -1.5354    0.4510    0.4719 N   0  0  0  0  0  0  0  0  0  0  0  0
  2  1  1  6
  2  3  1  0
  3  4  1  0
  4  5  1  0
  5  6  1  0
  6  7  1  0
  7  8  1  6
  8  9  1  0
  9 10  2  0
  9 11  1  0
 11 12  2  0
 12 13  1  0
 13 14  2  0
 14 15  1  0
 15 16  2  0
 16 17  1  0
 17 18  2  0
 18 19  1  0
  7  2  1  0
 19 11  1  0
 18 13  1  0
M  END
>  <zinc_id>  (1) 
ZINC000001446485

>  <smiles>  (1) 
C[C@@H]1CCCC[C@H]1NC(=O)c1nc2ccccc2[nH]1

$$$$
