
     RDKit          3D

 32 35  0  0  0  0  0  0  0  0999 V2000
    7.5517    2.0326   -1.0821 C   0  0  0  0  0  0  0  0  0  0  0  0
    7.3173    2.5964    0.3034 C   0  0  0  0  0  0  0  0  0  0  0  0
    6.5712    1.6720    1.0778 O   0  0  0  0  0  0  0  0  0  0  0  0
    5.3038    1.2517    0.7009 C   0  0  0  0  0  0  0  0  0  0  0  0
    4.6501    0.3525    1.5115 C   0  0  0  0  0  0  0  0  0  0  0  0
    3.3906   -0.0988    1.1863 C   0  0  0  0  0  0  0  0  0  0  0  0
    2.7180    0.3242    0.0348 C   0  0  0  0  0  0  0  0  0  0  0  0
    1.4172   -0.1620   -0.2731 N   0  0  0  0  0  0  0  0  0  0  0  0
    0.9986   -1.4395   -0.7176 C   0  0  0  0  0  0  0  0  0  0  0  0
    1.8107   -2.3954   -0.9158 O   0  0  0  0  0  0  0  0  0  0  0  0
   -0.4355   -1.4682   -0.8979 C   0  0  0  0  0  0  0  0  0  0  0  0
   -1.2271   -2.5553   -1.3290 N   0  0  0  0  0  0  0  0  0  0  0  0
   -2.0287   -3.3703   -0.5182 C   0  0  0  0  0  0  0  0  0  0  0  0
   -2.1427   -3.1888    0.8468 C   0  0  0  0  0  0  0  0  0  0  0  0
   -2.9502   -4.0318    1.5782 C   0  0  0  0  0  0  0  0  0  0  0  0
   -3.6498   -5.0551    0.9808 C   0  0  0  0  0  0  0  0  0  0  0  0
   -3.5396   -5.2394   -0.3764 C   0  0  0  0  0  0  0  0  0  0  0  0
   -2.7316   -4.3963   -1.1087 C   0  0  0  0  0  0  0  0  0  0  0  0
   -2.6173   -4.6057   -2.5964 C   0  0  0  0  0  0  0  0  0  0  0  0
   -0.9373   -0.2541   -0.5828 C   0  0  0  0  0  0  0  0  0  0  0  0
   -2.6659    0.1272   -0.6718 S   0  0  0  0  0  0  0  0  0  0  0  0
   -3.0826    1.7916   -0.2599 C   0  0  0  0  0  0  0  0  0  0  0  0
   -4.4305    2.1960   -0.2763 C   0  0  0  0  0  0  0  0  0  0  0  0
   -4.7887    3.4782    0.0331 C   0  0  0  0  0  0  0  0  0  0  0  0
   -3.8877    4.4578    0.3780 C   0  0  0  0  0  0  0  0  0  0  0  0
   -4.2667    5.8508    0.7158 C   0  0  0  0  0  0  0  0  0  0  0  0
   -2.5577    4.0726    0.3978 C   0  0  0  0  0  0  0  0  0  0  0  0
   -2.2014    2.7785    0.0852 C   0  0  0  0  0  0  0  0  0  0  0  0
    0.1816    0.5874   -0.1895 C   0  0  0  0  0  0  0  0  0  0  0  0
    0.1796    1.7881    0.1813 O   0  0  0  0  0  0  0  0  0  0  0  0
    3.3908    1.2215   -0.7577 C   0  0  0  0  0  0  0  0  0  0  0  0
    4.6598    1.6818   -0.4385 C   0  0  0  0  0  0  0  0  0  0  0  0
  1  2  1  0
  2  3  1  0
  3  4  1  0
  4  5  2  0
  5  6  1  0
  6  7  2  0
  7  8  1  0
  8  9  1  0
  9 10  2  0
  9 11  1  0
 11 12  1  0
 12 13  1  0
 13 14  2  0
 14 15  1  0
 15 16  2  0
 16 17  1  0
 17 18  2  0
 18 19  1  0
 11 20  2  0
 20 21  1  0
 21 22  1  0
 22 23  2  0
 23 24  1  0
 24 25  2  0
 25 26  1  0
 25 27  1  0
 27 28  2  0
 20 29  1  0
 29 30  2  0
  7 31  1  0
 31 32  2  0
 32  4  1  0
 29  8  1  0
 18 13  1  0
 28 22  1  0
M  END
>  <zinc_id>  (1) 
ZINC000001928687

>  <smiles>  (1) 
CCOc1ccc(N2C(=O)C(Nc3ccccc3C)=C(Sc3ccc(C)cc3)C2=O)cc1

$$$$
