
     RDKit          3D

 20 21  0  0  0  0  0  0  0  0999 V2000
    4.1121    2.5412   -1.5402 C   0  0  0  0  0  0  0  0  0  0  0  0
    3.9966    2.2830   -0.0533 C   0  0  0  0  0  0  0  0  0  0  0  0
    2.8827    1.4818    0.1766 O   0  0  0  0  0  0  0  0  0  0  0  0
    2.7104    0.2096   -0.3544 C   0  0  0  0  0  0  0  0  0  0  0  0
    3.5928   -0.2626   -1.0828 O   0  0  0  0  0  0  0  0  0  0  0  0
    1.4673   -0.5734   -0.0430 C   0  0  0  0  0  0  0  0  0  0  0  0
    0.5645   -0.0950    0.7000 C   0  0  0  0  0  0  0  0  0  0  0  0
    0.7928    1.3063    1.2634 C   0  0  0  0  0  0  0  0  0  0  0  0
   -0.7538   -0.7424    1.1207 C   0  0  1  0  0  0  0  0  0  0  0  0
   -1.8364    0.0190    0.1997 C   0  0  0  0  0  0  0  0  0  0  0  0
   -1.6960    0.2564   -1.0804 C   0  0  0  0  0  0  0  0  0  0  0  0
   -2.7247    0.9318   -1.7556 C   0  0  0  0  0  0  0  0  0  0  0  0
   -3.8364    1.3224   -1.0727 C   0  0  0  0  0  0  0  0  0  0  0  0
   -3.9814    1.0737    0.2642 C   0  0  0  0  0  0  0  0  0  0  0  0
   -2.9396    0.3991    0.9088 C   0  0  0  0  0  0  0  0  0  0  0  0
   -3.1186    0.1708    2.2316 F   0  0  0  0  0  0  0  0  0  0  0  0
   -0.8227   -2.0860    0.4960 N   0  0  0  0  0  0  0  0  0  0  0  0
    0.1666   -2.5935   -0.3099 C   0  0  0  0  0  0  0  0  0  0  0  0
    0.0626   -3.7738   -0.8341 O   0  0  0  0  0  0  0  0  0  0  0  0
    1.3611   -1.8686   -0.6227 N   0  0  0  0  0  0  0  0  0  0  0  0
  1  2  1  0
  2  3  1  0
  3  4  1  0
  4  5  2  0
  4  6  1  0
  6  7  2  0
  7  8  1  0
  7  9  1  0
  9 10  1  6
 10 11  2  0
 11 12  1  0
 12 13  2  0
 13 14  1  0
 14 15  2  0
 15 16  1  0
  9 17  1  0
 17 18  1  0
 18 19  2  0
 18 20  1  0
 20  6  1  0
 15 10  1  0
M  END
>  <zinc_id>  (1) 
ZINC000000339978

>  <smiles>  (1) 
CCOC(=O)C1=C(C)[C@@H](c2ccccc2F)NC(=O)N1

$$$$
