
     RDKit          3D

 32 35  0  0  0  0  0  0  0  0999 V2000
   -2.0845   -4.4467    1.9568 C   0  0  0  0  0  0  0  0  0  0  0  0
   -3.2503   -4.4440    1.1857 O   0  0  0  0  0  0  0  0  0  0  0  0
   -3.6113   -3.5153    0.2490 C   0  0  0  0  0  0  0  0  0  0  0  0
   -4.8230   -3.7048   -0.4083 C   0  0  0  0  0  0  0  0  0  0  0  0
   -5.2540   -2.8118   -1.3655 C   0  0  0  0  0  0  0  0  0  0  0  0
   -4.4692   -1.7209   -1.6691 C   0  0  0  0  0  0  0  0  0  0  0  0
   -3.2439   -1.4885   -1.0348 C   0  0  0  0  0  0  0  0  0  0  0  0
   -2.5398   -0.3479   -1.4296 N   0  0  0  0  0  0  0  0  0  0  0  0
   -1.2978    0.1003   -0.9496 C   0  0  0  0  0  0  0  0  0  0  0  0
   -0.9770    1.3004   -0.4141 C   0  0  0  0  0  0  0  0  0  0  0  0
   -2.2062    2.5528   -0.2454 S   0  0  0  0  0  0  0  0  0  0  0  0
   -1.6557    4.0685    0.4571 C   0  0  0  0  0  0  0  0  0  0  0  0
   -0.3912    4.3559    0.8732 C   0  0  0  0  0  0  0  0  0  0  0  0
   -0.0213    5.5581    1.4135 C   0  0  0  0  0  0  0  0  0  0  0  0
   -0.9183    6.5916    1.5819 C   0  0  0  0  0  0  0  0  0  0  0  0
   -2.2169    6.3082    1.1587 C   0  0  0  0  0  0  0  0  0  0  0  0
   -2.5867    5.1100    0.6199 C   0  0  0  0  0  0  0  0  0  0  0  0
    0.4411    1.2960   -0.0645 C   0  0  0  0  0  0  0  0  0  0  0  0
    1.1093    2.2327    0.4571 O   0  0  0  0  0  0  0  0  0  0  0  0
    0.9935    0.0249   -0.4106 N   0  0  0  0  0  0  0  0  0  0  0  0
    2.3245   -0.4269   -0.2561 C   0  0  0  0  0  0  0  0  0  0  0  0
    2.7374   -1.1715    0.8289 C   0  0  0  0  0  0  0  0  0  0  0  0
    4.0454   -1.6064    0.9659 C   0  0  0  0  0  0  0  0  0  0  0  0
    5.0046   -1.3148    0.0190 C   0  0  0  0  0  0  0  0  0  0  0  0
    6.4083   -1.7919    0.1829 C   0  0  0  0  0  0  0  0  0  0  0  0
    6.3232   -3.1763    0.8073 C   0  0  0  0  0  0  0  0  0  0  0  0
    7.1517   -1.8169   -1.1184 C   0  0  0  0  0  0  0  0  0  0  0  0
    4.6075   -0.5702   -1.0731 C   0  0  0  0  0  0  0  0  0  0  0  0
    3.3053   -0.1381   -1.2081 C   0  0  0  0  0  0  0  0  0  0  0  0
   -0.0897   -0.7008   -0.9545 C   0  0  0  0  0  0  0  0  0  0  0  0
    0.0452   -1.8994   -1.3765 O   0  0  0  0  0  0  0  0  0  0  0  0
   -2.8598   -2.4066   -0.0895 C   0  0  0  0  0  0  0  0  0  0  0  0
  1  2  1  0
  2  3  1  0
  3  4  2  0
  4  5  1  0
  5  6  2  0
  6  7  1  0
  7  8  1  0
  8  9  1  0
  9 10  2  0
 10 11  1  0
 11 12  1  0
 12 13  2  0
 13 14  1  0
 14 15  2  0
 15 16  1  0
 16 17  2  0
 10 18  1  0
 18 19  2  0
 18 20  1  0
 20 21  1  0
 21 22  2  0
 22 23  1  0
 23 24  2  0
 24 25  1  0
 25 26  1  0
 25 27  1  0
 24 28  1  0
 28 29  2  0
 20 30  1  0
 30 31  2  0
  7 32  2  0
 32  3  1  0
 30  9  1  0
 17 12  1  0
 29 21  1  0
M  END
>  <zinc_id>  (1) 
ZINC000001954931

>  <smiles>  (1) 
COc1cccc(NC2=C(Sc3ccccc3)C(=O)N(c3ccc(C(C)C)cc3)C2=O)c1

$$$$
