
     RDKit          3D

 17 17  0  0  0  0  0  0  0  0999 V2000
    2.9829    1.4599   -0.5154 C   0  0  0  0  0  0  0  0  0  0  0  0
    2.6100    0.2105   -0.5807 C   0  0  0  0  0  0  0  0  0  0  0  0
    3.2024   -0.8492    0.1832 C   0  0  0  0  0  0  0  0  0  0  0  0
    4.2474   -0.6409    1.1563 C   0  0  0  0  0  0  0  0  0  0  0  0
    4.0456    0.1758    2.3547 C   0  0  0  0  0  0  0  0  0  0  0  0
    3.6982    1.5984    2.1492 C   0  0  0  0  0  0  0  0  0  0  0  0
    1.5469   -0.1049   -1.4745 N   0  0  0  0  0  0  0  0  0  0  0  0
    0.2506    0.1366   -1.0087 N   0  0  0  0  0  0  0  0  0  0  0  0
   -0.6908   -0.9085   -0.9327 C   0  0  0  0  0  0  0  0  0  0  0  0
   -0.3168   -2.0583   -1.2984 O   0  0  0  0  0  0  0  0  0  0  0  0
   -2.0519   -0.7069   -0.4558 C   0  0  0  0  0  0  0  0  0  0  0  0
   -2.9351   -1.7544   -0.4628 C   0  0  0  0  0  0  0  0  0  0  0  0
   -4.2414   -1.6213   -0.0291 C   0  0  0  0  0  0  0  0  0  0  0  0
   -4.7060   -0.3982    0.4359 C   0  0  0  0  0  0  0  0  0  0  0  0
   -3.8257    0.6601    0.4475 C   0  0  0  0  0  0  0  0  0  0  0  0
   -2.5079    0.5080    0.0052 C   0  0  0  0  0  0  0  0  0  0  0  0
   -1.3084    1.9634    0.0262 Br  0  0  0  0  0  0  0  0  0  0  0  0
  1  2  2  0
  2  3  1  0
  3  4  1  0
  4  5  1  0
  5  6  1  0
  2  7  1  0
  7  8  1  0
  8  9  1  0
  9 10  2  0
  9 11  1  0
 11 12  2  0
 12 13  1  0
 13 14  2  0
 14 15  1  0
 15 16  2  0
 16 17  1  0
 16 11  1  0
M  END
>  <zinc_id>  (1) 
ZINC000003233630

>  <smiles>  (1) 
C=C(CCCC)NNC(=O)c1ccccc1Br

$$$$
