
     RDKit          3D

 31 34  0  0  0  0  0  0  0  0999 V2000
   -4.0631    1.7565    4.6545 C   0  0  0  0  0  0  0  0  0  0  0  0
   -5.1341    1.1395    3.7787 C   0  0  0  0  0  0  0  0  0  0  0  0
   -4.7735    1.1801    2.4087 O   0  0  0  0  0  0  0  0  0  0  0  0
   -3.6204    0.5353    2.0019 C   0  0  0  0  0  0  0  0  0  0  0  0
   -2.9029   -0.0819    2.8563 O   0  0  0  0  0  0  0  0  0  0  0  0
   -3.2283    0.5624    0.5997 C   0  0  0  0  0  0  0  0  0  0  0  0
   -2.4197    1.4955   -0.0533 C   0  0  0  0  0  0  0  0  0  0  0  0
   -1.7856    2.6787    0.5812 C   0  0  0  0  0  0  0  0  0  0  0  0
   -2.3126    1.1493   -1.3327 N   0  0  0  0  0  0  0  0  0  0  0  0
   -1.5598    1.8625   -2.3275 C   0  0  0  0  0  0  0  0  0  0  0  0
   -0.1504    1.2664   -2.3055 C   0  0  0  0  0  0  0  0  0  0  0  0
    0.4330    1.4252   -1.0285 O   0  0  0  0  0  0  0  0  0  0  0  0
    1.7093    0.9736   -0.7277 C   0  0  0  0  0  0  0  0  0  0  0  0
    2.2440    1.1512    0.5431 C   0  0  0  0  0  0  0  0  0  0  0  0
    3.5127    0.7011    0.8394 C   0  0  0  0  0  0  0  0  0  0  0  0
    4.3093    0.0615   -0.0892 C   0  0  0  0  0  0  0  0  0  0  0  0
    5.6487   -0.4091    0.2378 C   0  0  0  0  0  0  0  0  0  0  0  0
    6.6284   -0.4428   -0.7245 C   0  0  0  0  0  0  0  0  0  0  0  0
    7.8949   -0.8803   -0.4422 C   0  0  0  0  0  0  0  0  0  0  0  0
    8.2023   -1.2956    0.8236 C   0  0  0  0  0  0  0  0  0  0  0  0
    7.2325   -1.2671    1.7947 C   0  0  0  0  0  0  0  0  0  0  0  0
    5.9511   -0.8290    1.5272 C   0  0  0  0  0  0  0  0  0  0  0  0
    3.7847   -0.1204   -1.3601 C   0  0  0  0  0  0  0  0  0  0  0  0
    2.5155    0.3333   -1.6454 C   0  0  0  0  0  0  0  0  0  0  0  0
   -3.0148    0.0291   -1.5534 C   0  0  0  0  0  0  0  0  0  0  0  0
   -3.2003   -0.6978   -2.7057 C   0  0  0  0  0  0  0  0  0  0  0  0
   -3.9886   -1.8516   -2.6885 C   0  0  0  0  0  0  0  0  0  0  0  0
   -4.5706   -2.2408   -1.5013 C   0  0  0  0  0  0  0  0  0  0  0  0
   -5.3562   -3.3775   -1.4505 O   0  0  0  0  0  0  0  0  0  0  0  0
   -4.3852   -1.5139   -0.3485 C   0  0  0  0  0  0  0  0  0  0  0  0
   -3.6003   -0.3638   -0.3625 C   0  0  0  0  0  0  0  0  0  0  0  0
  1  2  1  0
  2  3  1  0
  3  4  1  0
  4  5  2  0
  4  6  1  0
  6  7  2  0
  7  8  1  0
  7  9  1  0
  9 10  1  0
 10 11  1  0
 11 12  1  0
 12 13  1  0
 13 14  2  0
 14 15  1  0
 15 16  2  0
 16 17  1  0
 17 18  2  0
 18 19  1  0
 19 20  2  0
 20 21  1  0
 21 22  2  0
 16 23  1  0
 23 24  2  0
  9 25  1  0
 25 26  2  0
 26 27  1  0
 27 28  2  0
 28 29  1  0
 28 30  1  0
 30 31  2  0
 31  6  1  0
 24 13  1  0
 31 25  1  0
 22 17  1  0
M  END
>  <zinc_id>  (1) 
ZINC000000706428

>  <smiles>  (1) 
CCOC(=O)c1c(C)n(CCOc2ccc(-c3ccccc3)cc2)c2ccc(O)cc12

$$$$
