
     RDKit          3D

 22 24  0  0  0  0  0  0  0  0999 V2000
    3.3755   -2.8980   -0.3443 C   0  0  0  0  0  0  0  0  0  0  0  0
    3.1193   -1.4767   -0.0888 C   0  0  0  0  0  0  0  0  0  0  0  0
    4.1553   -0.6402    0.0548 C   0  0  0  0  0  0  0  0  0  0  0  0
    3.9348    0.7217    0.2954 C   0  0  0  0  0  0  0  0  0  0  0  0
    2.6387    1.1457    0.3674 C   0  0  0  0  0  0  0  0  0  0  0  0
    1.5904    0.2342    0.2061 N   0  0  0  0  0  0  0  0  0  0  0  0
    0.2554    0.4196    0.2730 C   0  0  0  0  0  0  0  0  0  0  0  0
   -0.4458    1.6353    0.3228 N   0  0  0  0  0  0  0  0  0  0  0  0
    0.0145    2.9682    0.2442 C   0  0  0  0  0  0  0  0  0  0  0  0
    0.8307    3.4776    1.3827 C   0  0  0  0  0  0  0  0  0  0  0  0
   -1.1689    3.8603   -0.1040 C   0  0  0  0  0  0  0  0  0  0  0  0
    0.8924    3.0095   -1.0452 C   0  0  0  0  0  0  0  0  0  0  0  0
   -0.3858   -0.7634    0.0925 C   0  0  0  0  0  0  0  0  0  0  0  0
   -1.8242   -1.0154    0.0205 C   0  0  0  0  0  0  0  0  0  0  0  0
   -2.3590   -1.6756    1.1417 C   0  0  0  0  0  0  0  0  0  0  0  0
   -3.6789   -2.1439    1.2699 C   0  0  0  0  0  0  0  0  0  0  0  0
   -4.4726   -1.8884    0.1242 C   0  0  0  0  0  0  0  0  0  0  0  0
   -3.9780   -1.2492   -0.9582 C   0  0  0  0  0  0  0  0  0  0  0  0
   -2.6649   -0.8216   -1.0065 C   0  0  0  0  0  0  0  0  0  0  0  0
   -2.2340   -0.1828   -2.1366 O   0  0  0  0  0  0  0  0  0  0  0  0
    0.5905   -1.6835   -0.0977 N   0  0  0  0  0  0  0  0  0  0  0  0
    1.8149   -1.0335   -0.0139 C   0  0  0  0  0  0  0  0  0  0  0  0
  1  2  1  0
  2  3  2  0
  3  4  1  0
  4  5  2  0
  5  6  1  0
  6  7  1  0
  7  8  1  0
  8  9  1  0
  9 10  1  0
  9 11  1  0
  9 12  1  0
  7 13  2  0
 13 14  1  0
 14 15  2  0
 15 16  1  0
 16 17  2  0
 17 18  1  0
 18 19  2  0
 19 20  1  0
 13 21  1  0
 21 22  2  0
 22  2  1  0
 22  6  1  0
 19 14  1  0
M  END
>  <zinc_id>  (1) 
ZINC000000416285

>  <smiles>  (1) 
Cc1cccn2c(NC(C)(C)C)c(-c3ccccc3O)nc12

$$$$
