
     RDKit          3D

 20 23  0  0  0  0  0  0  0  0999 V2000
    0.4927   -3.2580    2.1959 N   0  0  0  0  0  0  0  0  0  0  0  0
   -0.2418   -2.2769    1.4372 C   0  0  0  0  0  0  0  0  0  0  0  0
   -1.4963   -1.9516    1.7297 N   0  0  0  0  0  0  0  0  0  0  0  0
   -2.1971   -1.0288    1.0215 C   0  0  0  0  0  0  0  0  0  0  0  0
   -3.5251   -0.6700    1.3142 N   0  0  0  0  0  0  0  0  0  0  0  0
   -4.4904    0.4240    1.6991 C   0  0  0  0  0  0  0  0  0  0  0  0
   -4.9163   -0.9138    1.4928 C   0  0  0  0  0  0  0  0  0  0  0  0
   -1.5008   -0.4460   -0.0387 C   0  0  0  0  0  0  0  0  0  0  0  0
   -1.9112    0.4870   -0.9151 N   0  0  0  0  0  0  0  0  0  0  0  0
   -0.8702    0.7103   -1.7380 C   0  0  0  0  0  0  0  0  0  0  0  0
    0.1807   -0.0530   -1.4058 N   0  0  0  0  0  0  0  0  0  0  0  0
    1.4426   -0.0654   -2.0703 C   0  0  0  0  0  0  0  0  0  0  0  0
    2.3169    0.9538   -1.4142 C   0  0  0  0  0  0  0  0  0  0  0  0
    2.3384    2.2616   -1.8637 C   0  0  0  0  0  0  0  0  0  0  0  0
    3.1450    3.2045   -1.2594 C   0  0  0  0  0  0  0  0  0  0  0  0
    3.9611    2.8858   -0.1858 C   0  0  0  0  0  0  0  0  0  0  0  0
    3.9461    1.5777    0.2714 C   0  0  0  0  0  0  0  0  0  0  0  0
    3.1307    0.6430   -0.3462 C   0  0  0  0  0  0  0  0  0  0  0  0
   -0.2044   -0.7788   -0.3449 C   0  0  0  0  0  0  0  0  0  0  0  0
    0.3994   -1.7056    0.4203 N   0  0  0  0  0  0  0  0  0  0  0  0
  1  2  1  0
  2  3  2  0
  3  4  1  0
  4  5  1  0
  5  6  1  0
  6  7  1  0
  4  8  2  0
  8  9  1  0
  9 10  2  0
 10 11  1  0
 11 12  1  0
 12 13  1  0
 13 14  2  0
 14 15  1  0
 15 16  2  0
 16 17  1  0
 17 18  2  0
 11 19  1  0
 19 20  2  0
 20  2  1  0
  7  5  1  0
 19  8  1  0
 18 13  1  0
M  END
>  <zinc_id>  (1) 
ZINC000001676880

>  <smiles>  (1) 
Nc1nc(N2CC2)c2ncn(Cc3ccccc3)c2n1

$$$$
