
     RDKit          3D

 19 20  0  0  0  0  0  0  0  0999 V2000
   -5.3087    1.4435   -1.3002 C   0  0  0  0  0  0  0  0  0  0  0  0
   -4.1171    0.7166   -0.7886 C   0  0  0  0  0  0  0  0  0  0  0  0
   -2.8559    0.9626   -1.2899 C   0  0  0  0  0  0  0  0  0  0  0  0
   -1.7253    0.2965   -0.8287 C   0  0  0  0  0  0  0  0  0  0  0  0
   -1.8537   -0.6370    0.1554 C   0  0  0  0  0  0  0  0  0  0  0  0
   -0.7820   -1.3836    0.7110 N   0  0  0  0  0  0  0  0  0  0  0  0
    0.5547   -1.1873    0.2461 C   0  0  0  0  0  0  0  0  0  0  0  0
    0.8304   -0.3515   -0.6666 O   0  0  0  0  0  0  0  0  0  0  0  0
    1.6260   -1.9017    0.7687 O   0  0  0  0  0  0  0  0  0  0  0  0
    2.9004   -1.6891    0.2994 N   0  0  0  0  0  0  0  0  0  0  0  0
    3.4154   -0.3414    0.3544 C   0  0  0  0  0  0  0  0  0  0  0  0
    2.8064    0.5858    1.0656 C   0  0  0  0  0  0  0  0  0  0  0  0
    3.2915    1.9837    1.1569 C   0  0  0  0  0  0  0  0  0  0  0  0
    4.7814    1.9664    0.8961 C   0  0  0  0  0  0  0  0  0  0  0  0
    4.9354    1.3805   -0.5134 C   0  0  0  0  0  0  0  0  0  0  0  0
    4.6485   -0.1022   -0.4332 C   0  0  0  0  0  0  0  0  0  0  0  0
   -3.1229   -0.8895    0.6650 C   0  0  0  0  0  0  0  0  0  0  0  0
   -4.2347   -0.2325    0.2095 C   0  0  0  0  0  0  0  0  0  0  0  0
   -5.7897   -0.6199    0.9140 Cl  0  0  0  0  0  0  0  0  0  0  0  0
  1  2  1  0
  2  3  2  0
  3  4  1  0
  4  5  2  0
  5  6  1  0
  6  7  1  0
  7  8  2  0
  7  9  1  0
  9 10  1  0
 10 11  1  0
 11 12  2  0
 12 13  1  0
 13 14  1  0
 14 15  1  0
 15 16  1  0
  5 17  1  0
 17 18  2  0
 18 19  1  0
 18  2  1  0
 16 11  1  0
M  END
>  <zinc_id>  (1) 
ZINC000002162373

>  <smiles>  (1) 
Cc1ccc(NC(=O)ONC2=CCCCC2)cc1Cl

$$$$
