
     RDKit          3D

 21 22  0  0  0  0  0  0  0  0999 V2000
    1.4680    2.2103   -1.3346 C   0  0  0  0  0  0  0  0  0  0  0  0
    2.5193    1.2491   -0.8793 C   0  0  0  0  0  0  0  0  0  0  0  0
    3.8505    1.4322   -1.3085 C   0  0  0  0  0  0  0  0  0  0  0  0
    4.8115    0.5500   -0.8980 C   0  0  0  0  0  0  0  0  0  0  0  0
    4.4223   -0.4953   -0.0662 C   0  0  0  0  0  0  0  0  0  0  0  0
    3.1305   -0.6738    0.3503 C   0  0  0  0  0  0  0  0  0  0  0  0
    2.7822   -1.8223    1.2275 C   0  0  0  0  0  0  0  0  0  0  0  0
    2.1437    0.2149   -0.0588 C   0  0  0  0  0  0  0  0  0  0  0  0
    0.7814    0.0767    0.3392 N   0  0  0  0  0  0  0  0  0  0  0  0
   -0.0909   -0.9058   -0.1868 C   0  0  0  0  0  0  0  0  0  0  0  0
    0.3770   -1.6806   -1.0487 O   0  0  0  0  0  0  0  0  0  0  0  0
   -1.4659   -0.9824    0.2821 C   0  0  0  0  0  0  0  0  0  0  0  0
   -1.9499   -2.1549    0.8568 C   0  0  0  0  0  0  0  0  0  0  0  0
   -3.2316   -2.2485    1.4031 C   0  0  0  0  0  0  0  0  0  0  0  0
   -4.0252   -1.0993    1.3538 C   0  0  0  0  0  0  0  0  0  0  0  0
   -3.5841    0.0533    0.8035 C   0  0  0  0  0  0  0  0  0  0  0  0
   -4.4077    1.2676    0.7327 C   0  0  0  0  0  0  0  0  0  0  0  0
   -2.2884    0.0943    0.2647 C   0  0  0  0  0  0  0  0  0  0  0  0
   -1.8608    1.3172   -0.3745 N   0  0  0  0  0  4  0  0  0  0  0  0
   -1.4904    2.2698    0.3171 O   0  0  0  0  0  0  0  0  0  0  0  0
   -1.8914    1.3275   -1.7755 O   0  0  0  0  0  1  0  0  0  0  0  0
  1  2  1  0
  2  3  2  0
  3  4  1  0
  4  5  2  0
  5  6  1  0
  6  7  1  0
  6  8  2  0
  8  9  1  0
  9 10  1  0
 10 11  2  0
 10 12  1  0
 12 13  2  0
 13 14  1  0
 14 15  2  0
 15 16  1  0
 16 17  1  0
 16 18  2  0
 18 19  1  0
 19 20  2  0
 19 21  1  0
  8  2  1  0
 18 12  1  0
M  CHG  2  19   1  21  -1
M  END
>  <zinc_id>  (1) 
ZINC000000464494

>  <smiles>  (1) 
Cc1cccc(C)c1NC(=O)c1cccc(C)c1[N+](=O)[O-]

$$$$
