
     RDKit          3D

 22 24  0  0  0  0  0  0  0  0999 V2000
   -0.1716   -2.5104   -1.3718 C   0  0  0  0  0  0  0  0  0  0  0  0
   -1.2029   -1.6507   -0.7166 C   0  0  0  0  0  0  0  0  0  0  0  0
   -2.0789   -1.9911    0.2445 N   0  0  0  0  0  0  0  0  0  0  0  0
   -2.8665   -0.9333    0.5327 C   0  0  0  0  0  0  0  0  0  0  0  0
   -3.9102   -0.7513    1.4285 C   0  0  0  0  0  0  0  0  0  0  0  0
   -4.5358    0.4752    1.4933 C   0  0  0  0  0  0  0  0  0  0  0  0
   -4.1736    1.5393    0.7068 C   0  0  0  0  0  0  0  0  0  0  0  0
   -3.1362    1.3709   -0.1886 C   0  0  0  0  0  0  0  0  0  0  0  0
   -2.5132    0.1405   -0.2496 C   0  0  0  0  0  0  0  0  0  0  0  0
   -1.4522   -0.3224   -1.0427 C   0  0  0  0  0  0  0  0  0  0  0  0
   -0.7426    0.5273   -2.0034 C   0  0  0  0  0  0  0  0  0  0  0  0
    0.4378    1.1936   -1.4914 C   0  0  0  0  0  0  0  0  0  0  0  0
    1.5254    0.4984   -0.9388 N   0  0  0  0  0  0  0  0  0  0  0  0
    2.6631   -0.0502   -1.6378 C   0  0  0  0  0  0  0  0  0  0  0  0
    2.5938   -0.4677   -2.8285 O   0  0  0  0  0  0  0  0  0  0  0  0
    3.7625   -0.0179   -0.7756 O   0  0  0  0  0  0  0  0  0  0  0  0
    3.3476    0.6899    0.4028 C   0  0  0  0  0  0  0  0  0  0  0  0
    3.3557    2.1713    0.2217 C   0  0  0  0  0  0  0  0  0  0  0  0
    4.1074    0.2249    1.6120 C   0  0  0  0  0  0  0  0  0  0  0  0
    1.8774    0.1972    0.4646 C   0  0  2  0  0  0  0  0  0  0  0  0
    1.9763   -1.2621    0.7568 C   0  0  0  0  0  0  0  0  0  0  0  0
    1.1366    0.9285    1.3580 O   0  0  0  0  0  0  0  0  0  0  0  0
  1  2  1  0
  2  3  1  0
  3  4  1  0
  4  5  2  0
  5  6  1  0
  6  7  2  0
  7  8  1  0
  8  9  2  0
  9 10  1  0
 10 11  1  0
 11 12  1  0
 12 13  1  0
 13 14  1  0
 14 15  2  0
 14 16  1  0
 16 17  1  0
 17 18  1  0
 17 19  1  0
 17 20  1  0
 20 21  1  1
 20 22  1  0
 10  2  2  0
 20 13  1  0
  9  4  1  0
M  END
>  <zinc_id>  (1) 
ZINC000000140318

>  <smiles>  (1) 
Cc1[nH]c2ccccc2c1CCN1C(=O)OC(C)(C)[C@@]1(C)O

$$$$
