
     RDKit          3D

 20 22  0  0  0  0  0  0  0  0999 V2000
   -5.7948    1.6809   -0.4239 C   0  0  0  0  0  0  0  0  0  0  0  0
   -4.5445    0.9577   -0.0762 C   0  0  0  0  0  0  0  0  0  0  0  0
   -3.3618    1.4226   -0.6084 C   0  0  0  0  0  0  0  0  0  0  0  0
   -2.1785    0.8059   -0.3302 C   0  0  0  0  0  0  0  0  0  0  0  0
   -0.8817    0.9654   -0.6512 N   0  0  0  0  0  0  0  0  0  0  0  0
   -0.1377    0.0431   -0.0758 N   0  0  0  0  0  0  0  0  0  0  0  0
    1.2742   -0.1001   -0.1879 C   0  0  0  0  0  0  0  0  0  0  0  0
    1.8615   -1.3398   -0.0558 C   0  0  0  0  0  0  0  0  0  0  0  0
    3.2256   -1.5297   -0.1564 C   0  0  0  0  0  0  0  0  0  0  0  0
    4.0732   -0.4689   -0.3974 C   0  0  0  0  0  0  0  0  0  0  0  0
    5.5418   -0.6118   -0.5149 C   0  0  0  0  0  0  0  0  0  0  0  0
    6.0876   -1.6917    0.3928 C   0  0  0  0  0  0  0  0  0  0  0  0
    6.2647    0.6665   -0.1780 C   0  0  0  0  0  0  0  0  0  0  0  0
    3.4823    0.7717   -0.5292 C   0  0  0  0  0  0  0  0  0  0  0  0
    2.1186    0.9628   -0.4289 C   0  0  0  0  0  0  0  0  0  0  0  0
   -0.9615   -0.7201    0.6241 N   0  0  0  0  0  0  0  0  0  0  0  0
   -2.2314   -0.2958    0.5035 C   0  0  0  0  0  0  0  0  0  0  0  0
   -3.4021   -0.7662    1.0379 C   0  0  0  0  0  0  0  0  0  0  0  0
   -4.5978   -0.1421    0.7561 C   0  0  0  0  0  0  0  0  0  0  0  0
   -5.8377   -0.6103    1.2997 N   0  0  0  0  0  0  0  0  0  0  0  0
  1  2  1  0
  2  3  2  0
  3  4  1  0
  4  5  2  0
  5  6  1  0
  6  7  1  0
  7  8  2  0
  8  9  1  0
  9 10  2  0
 10 11  1  0
 11 12  1  0
 11 13  1  0
 10 14  1  0
 14 15  2  0
  6 16  1  0
 16 17  2  0
 17 18  1  0
 18 19  2  0
 19 20  1  0
 19  2  1  0
 17  4  1  0
 15  7  1  0
M  END
>  <zinc_id>  (1) 
ZINC000000279679

>  <smiles>  (1) 
Cc1cc2nn(-c3ccc(C(C)C)cc3)nc2cc1N

$$$$
