
     RDKit          3D

 34 38  0  0  0  0  0  0  0  0999 V2000
   -2.7902    2.3372   -3.2766 O   0  0  0  0  0  0  0  0  0  0  0  0
   -2.1463    1.5014   -2.5662 C   0  0  0  0  0  0  0  0  0  0  0  0
   -0.9697    1.8632   -1.8604 N   0  0  0  0  0  0  0  0  0  0  0  0
   -0.2884    1.0432   -1.1281 C   0  0  0  0  0  0  0  0  0  0  0  0
    0.8540    1.4212   -0.4545 O   0  0  0  0  0  0  0  0  0  0  0  0
   -0.7585   -0.3259   -1.0253 C   0  0  0  0  0  0  0  0  0  0  0  0
   -0.1613   -1.1903   -0.2711 C   0  0  0  0  0  0  0  0  0  0  0  0
    0.9914   -0.9488    0.5489 C   0  0  0  0  0  0  0  0  0  0  0  0
    2.2357   -1.5034    0.3691 C   0  0  0  0  0  0  0  0  0  0  0  0
    3.0727   -1.1286    1.3536 N   0  0  0  0  0  0  0  0  0  0  0  0
    4.4754   -1.5121    1.5109 C   0  0  0  0  0  0  0  0  0  0  0  0
    5.3877   -0.5810    0.8461 C   0  0  0  0  0  0  0  0  0  0  0  0
    5.8706    0.5048    1.5292 C   0  0  0  0  0  0  0  0  0  0  0  0
    6.7351    1.4030    0.9290 C   0  0  0  0  0  0  0  0  0  0  0  0
    7.1047    1.1873   -0.3730 C   0  0  0  0  0  0  0  0  0  0  0  0
    6.6458    0.1123   -1.0977 C   0  0  0  0  0  0  0  0  0  0  0  0
    5.7793   -0.7662   -0.4586 C   0  0  0  0  0  0  0  0  0  0  0  0
    2.3865   -0.3167    2.2016 C   0  0  0  0  0  0  0  0  0  0  0  0
    2.8342    0.2887    3.3552 C   0  0  0  0  0  0  0  0  0  0  0  0
    1.9140    1.0521    4.0424 C   0  0  0  0  0  0  0  0  0  0  0  0
    0.6193    1.2030    3.6035 C   0  0  0  0  0  0  0  0  0  0  0  0
    0.2195    0.5821    2.4501 C   0  0  0  0  0  0  0  0  0  0  0  0
    1.0983   -0.1913    1.7247 C   0  0  0  0  0  0  0  0  0  0  0  0
   -1.9792   -0.7567   -1.7430 C   0  0  0  0  0  0  0  0  0  0  0  0
   -2.3546   -1.9666   -1.6301 O   0  0  0  0  0  0  0  0  0  0  0  0
   -2.6892    0.1868   -2.5329 N   0  0  0  0  0  0  0  0  0  0  0  0
   -3.8576   -0.2012   -3.2471 C   0  0  0  0  0  0  0  0  0  0  0  0
   -5.1628   -0.0065   -2.6005 C   0  0  0  0  0  0  0  0  0  0  0  0
   -5.3751   -0.6865   -1.3077 C   0  0  0  0  0  0  0  0  0  0  0  0
   -6.3295   -1.6263   -1.2259 C   0  0  0  0  0  0  0  0  0  0  0  0
   -6.5728   -2.3419    0.0837 C   0  0  0  0  0  0  0  0  0  0  0  0
   -6.6992   -1.2473    1.1282 C   0  0  0  0  0  0  0  0  0  0  0  0
   -5.4559   -0.4050    1.1814 C   0  0  0  0  0  0  0  0  0  0  0  0
   -4.6342   -0.4100   -0.0588 C   0  0  0  0  0  0  0  0  0  0  0  0
  1  2  2  0
  2  3  1  0
  3  4  2  0
  4  5  1  0
  4  6  1  0
  6  7  2  0
  7  8  1  0
  8  9  2  0
  9 10  1  0
 10 11  1  0
 11 12  1  0
 12 13  2  0
 13 14  1  0
 14 15  2  0
 15 16  1  0
 16 17  2  0
 10 18  1  0
 18 19  2  0
 19 20  1  0
 20 21  2  0
 21 22  1  0
 22 23  2  0
  6 24  1  0
 24 25  2  0
 24 26  1  0
 26 27  1  0
 27 28  1  0
 28 29  1  0
 29 30  2  0
 30 31  1  0
 31 32  1  0
 32 33  1  0
 33 34  1  0
 26  2  1  0
 34 29  1  0
 23  8  1  0
 17 12  1  0
 23 18  1  0
M  END
>  <zinc_id>  (1) 
ZINC000002377700

>  <smiles>  (1) 
O=C1N=C(O)/C(=C\c2cn(Cc3ccccc3)c3ccccc23)C(=O)N1CCC1=CCCCC1

$$$$
