
     RDKit          3D

 22 24  0  0  0  0  0  0  0  0999 V2000
    4.3968    1.2138   -0.7589 C   0  0  0  0  0  0  0  0  0  0  0  0
    2.9754    0.8138   -0.8613 N   0  0  0  0  0  0  0  0  0  0  0  0
    2.3377    0.3103   -2.0183 C   0  0  0  0  0  0  0  0  0  0  0  0
    2.8941    0.1241   -3.1476 O   0  0  0  0  0  0  0  0  0  0  0  0
    0.9467    0.0451   -1.6936 C   0  0  0  0  0  0  0  0  0  0  0  0
   -0.1338   -0.4479   -2.4256 C   0  0  0  0  0  0  0  0  0  0  0  0
   -1.3900   -0.6140   -1.8834 C   0  0  0  0  0  0  0  0  0  0  0  0
   -1.6082   -0.2832   -0.5583 C   0  0  0  0  0  0  0  0  0  0  0  0
   -2.9271   -0.4460    0.0495 C   0  0  0  0  0  0  0  0  0  0  0  0
   -3.0502   -0.7450    1.3889 C   0  0  0  0  0  0  0  0  0  0  0  0
   -4.2887   -0.9052    1.9963 C   0  0  0  0  0  0  0  0  0  0  0  0
   -5.4269   -0.7599    1.2321 C   0  0  0  0  0  0  0  0  0  0  0  0
   -5.3536   -0.4608   -0.1126 C   0  0  0  0  0  0  0  0  0  0  0  0
   -4.0948   -0.3114   -0.6689 C   0  0  0  0  0  0  0  0  0  0  0  0
   -0.5436    0.2025    0.1630 C   0  0  0  0  0  0  0  0  0  0  0  0
    0.7379    0.3746   -0.3810 C   0  0  0  0  0  0  0  0  0  0  0  0
    2.0023    0.8685    0.1933 C   0  0  2  0  0  0  0  0  0  0  0  0
    1.8343    2.1692    0.6821 O   0  0  0  0  0  0  0  0  0  0  0  0
    2.5157   -0.0516    1.2914 C   0  0  0  0  0  0  0  0  0  0  0  0
    3.8576    0.4478    1.7568 C   0  0  0  0  0  0  0  0  0  0  0  0
    2.7203   -1.4156    0.6249 C   0  0  0  0  0  0  0  0  0  0  0  0
    1.5980   -0.1290    2.4684 C   0  0  0  0  0  0  0  0  0  0  0  0
  1  2  1  0
  2  3  1  0
  3  4  2  0
  3  5  1  0
  5  6  2  0
  6  7  1  0
  7  8  2  0
  8  9  1  0
  9 10  2  0
 10 11  1  0
 11 12  2  0
 12 13  1  0
 13 14  2  0
  8 15  1  0
 15 16  2  0
 16 17  1  0
 17 18  1  1
 17 19  1  0
 19 20  1  0
 19 21  1  0
 19 22  1  0
 17  2  1  0
 16  5  1  0
 14  9  1  0
M  END
>  <zinc_id>  (1) 
ZINC000000398505

>  <smiles>  (1) 
CN1C(=O)c2ccc(-c3ccccc3)cc2[C@@]1(O)C(C)(C)C

$$$$
