
     RDKit          3D

 21 22  0  0  0  0  0  0  0  0999 V2000
    6.1552    0.0866    2.5731 C   0  0  0  0  0  0  0  0  0  0  0  0
    5.0210   -0.2964    1.6711 C   0  0  0  0  0  0  0  0  0  0  0  0
    4.6919    0.4860    0.6169 C   0  0  0  0  0  0  0  0  0  0  0  0
    3.6335    0.1242   -0.2300 C   0  0  0  0  0  0  0  0  0  0  0  0
    2.9224   -1.0319    0.0121 C   0  0  0  0  0  0  0  0  0  0  0  0
    1.8220   -1.3804   -0.8896 C   0  0  0  0  0  0  0  0  0  0  0  0
    0.4893   -0.9199   -0.4737 C   0  0  0  0  0  0  0  0  0  0  0  0
   -0.0064   -1.4377    0.5588 O   0  0  0  0  0  0  0  0  0  0  0  0
   -0.2687    0.0597   -1.1474 N   0  0  0  0  0  0  0  0  0  0  0  0
   -1.5648    0.5070   -0.7515 C   0  0  0  0  0  0  0  0  0  0  0  0
   -2.2889   -0.0291    0.2745 C   0  0  0  0  0  0  0  0  0  0  0  0
   -3.5559    0.4617    0.5772 C   0  0  0  0  0  0  0  0  0  0  0  0
   -4.3397   -0.0701    1.6263 N   0  0  0  0  0  4  0  0  0  0  0  0
   -3.9076   -1.0059    2.3143 O   0  0  0  0  0  0  0  0  0  0  0  0
   -5.5732    0.4371    1.8909 O   0  0  0  0  0  1  0  0  0  0  0  0
   -4.0659    1.5063   -0.1845 C   0  0  0  0  0  0  0  0  0  0  0  0
   -3.3496    2.0709   -1.2351 C   0  0  0  0  0  0  0  0  0  0  0  0
   -2.0985    1.5571   -1.5038 C   0  0  0  0  0  0  0  0  0  0  0  0
   -1.2982    2.1397   -2.6175 C   0  0  0  0  0  0  0  0  0  0  0  0
    3.2641   -1.8093    1.0777 C   0  0  0  0  0  0  0  0  0  0  0  0
    4.3180   -1.4557    1.9246 C   0  0  0  0  0  0  0  0  0  0  0  0
  1  2  1  0
  2  3  2  0
  3  4  1  0
  4  5  2  0
  5  6  1  0
  6  7  1  0
  7  8  2  0
  7  9  1  0
  9 10  1  0
 10 11  2  0
 11 12  1  0
 12 13  1  0
 13 14  2  0
 13 15  1  0
 12 16  2  0
 16 17  1  0
 17 18  2  0
 18 19  1  0
  5 20  1  0
 20 21  2  0
 21  2  1  0
 18 10  1  0
M  CHG  2  13   1  15  -1
M  END
>  <zinc_id>  (1) 
ZINC000000578005

>  <smiles>  (1) 
Cc1ccc(CC(=O)Nc2cc([N+](=O)[O-])ccc2C)cc1

$$$$
