
     RDKit          3D

 19 21  0  0  0  0  0  0  0  0999 V2000
    4.5706    1.4082    2.0380 C   0  0  0  0  0  0  0  0  0  0  0  0
    4.9013    0.6220    0.7894 C   0  0  0  0  0  0  0  0  0  0  0  0
    4.9162    1.4999   -0.4312 C   0  0  0  0  0  0  0  0  0  0  0  0
    3.9596   -0.5281    0.6125 C   0  0  0  0  0  0  0  0  0  0  0  0
    2.6114   -0.0618    0.4997 N   0  0  0  0  0  0  0  0  0  0  0  0
    1.4826   -0.8868    0.3244 C   0  0  0  0  0  0  0  0  0  0  0  0
    1.4931   -2.2112    0.2373 N   0  0  0  0  0  0  0  0  0  0  0  0
    0.4007   -2.9776    0.0698 C   0  0  0  0  0  0  0  0  0  0  0  0
   -0.7935   -2.3652   -0.0168 N   0  0  0  0  0  0  0  0  0  0  0  0
   -0.8934   -1.0337    0.0611 C   0  0  0  0  0  0  0  0  0  0  0  0
    0.2394   -0.2606    0.2334 C   0  0  0  0  0  0  0  0  0  0  0  0
   -0.1243    1.0344    0.2808 N   0  0  0  0  0  0  0  0  0  0  0  0
   -1.4544    1.1566    0.1471 C   0  0  0  0  0  0  0  0  0  0  0  0
   -2.3491    2.2050    0.1214 C   0  0  0  0  0  0  0  0  0  0  0  0
   -3.6915    1.9330   -0.0399 C   0  0  0  0  0  0  0  0  0  0  0  0
   -4.1591    0.6488   -0.1753 C   0  0  0  0  0  0  0  0  0  0  0  0
   -5.8849    0.3434   -0.3797 Cl  0  0  0  0  0  0  0  0  0  0  0  0
   -3.2821   -0.4026   -0.1517 C   0  0  0  0  0  0  0  0  0  0  0  0
   -1.9424   -0.1236    0.0098 C   0  0  0  0  0  0  0  0  0  0  0  0
  1  2  1  0
  2  3  1  0
  2  4  1  0
  4  5  1  0
  5  6  1  0
  6  7  2  0
  7  8  1  0
  8  9  2  0
  9 10  1  0
 10 11  2  0
 11 12  1  0
 12 13  1  0
 13 14  2  0
 14 15  1  0
 15 16  2  0
 16 17  1  0
 16 18  1  0
 18 19  2  0
 11  6  1  0
 19 13  1  0
 19 10  1  0
M  END
>  <zinc_id>  (1) 
ZINC000000542920

>  <smiles>  (1) 
CC(C)CNc1ncnc2c1[nH]c1ccc(Cl)cc12

$$$$
