
     RDKit          3D

 21 25  0  0  0  0  0  0  0  0999 V2000
   -2.9516    2.5955    0.4730 O   0  0  0  0  0  0  0  0  0  0  0  0
   -3.6552    1.4235    0.2422 C   0  0  0  0  0  0  0  0  0  0  0  0
   -5.0115    1.3630    0.0652 C   0  0  0  0  0  0  0  0  0  0  0  0
   -5.7041    0.1947   -0.1638 C   0  0  0  0  0  0  0  0  0  0  0  0
   -4.9720   -0.9985   -0.2177 C   0  0  0  0  0  0  0  0  0  0  0  0
   -3.6111   -0.9447   -0.0410 C   0  0  0  0  0  0  0  0  0  0  0  0
   -2.9396    0.2287    0.1860 C   0  0  0  0  0  0  0  0  0  0  0  0
   -1.4925    0.2571    0.3703 C   0  0  0  0  0  0  0  0  0  0  0  0
   -0.6862    1.1996    0.5860 N   0  0  0  0  0  0  0  0  0  0  0  0
    0.6332    0.9139    0.7162 N   0  0  0  0  0  0  0  0  0  0  0  0
    1.1002   -0.3541    0.5428 C   0  0  2  0  0  0  0  0  0  0  0  0
    1.7486   -1.2041    1.4573 C   0  0  0  0  0  0  0  0  0  0  0  0
    3.2316   -1.3901    0.7854 C   0  0  1  0  0  0  0  0  0  0  0  0
    2.5418   -1.8704   -0.5754 C   0  0  0  0  0  0  0  0  0  0  0  0
    1.6388   -0.6171   -0.9637 C   0  0  2  0  0  0  0  0  0  0  0  0
    2.9853    0.3906   -1.0178 C   0  0  2  0  0  0  0  0  0  0  0  0
    4.1158   -0.5928   -1.5768 C   0  0  0  0  0  0  0  0  0  0  0  0
    5.2621    0.0393   -0.9613 C   0  0  0  0  0  0  0  0  0  0  0  0
    4.9426    0.3391    0.4155 C   0  0  0  0  0  0  0  0  0  0  0  0
    3.3466    0.2693    0.5679 C   0  0  2  0  0  0  0  0  0  0  0  0
   -0.5228   -1.2427    0.3085 S   0  0  0  0  0  0  0  0  0  0  0  0
  1  2  1  0
  2  3  2  0
  3  4  1  0
  4  5  2  0
  5  6  1  0
  6  7  2  0
  7  8  1  0
  8  9  2  0
  9 10  1  0
 10 11  1  0
 11 12  1  1
 13 12  1  1
 13 14  1  0
 15 14  1  1
 15 16  1  0
 16 17  1  6
 17 18  1  0
 18 19  1  0
 20 19  1  6
 11 21  1  0
  7  2  1  0
 21  8  1  0
 15 11  1  0
 20 16  1  0
 20 13  1  0
M  END
>  <zinc_id>  (1) 
ZINC000000225461

>  <smiles>  (1) 
Oc1ccccc1C1=NN[C@@]2(C[C@H]3C[C@@H]2[C@@H]2CCC[C@H]32)S1

$$$$
