
     RDKit          3D

 19 21  0  0  0  0  0  0  0  0999 V2000
    1.7539   -0.0100   -1.3999 C   0  0  0  0  0  0  0  0  0  0  0  0
    2.0088   -0.2115    0.0921 C   0  0  0  0  0  0  0  0  0  0  0  0
    3.2539   -0.6005    0.4658 C   0  0  0  0  0  0  0  0  0  0  0  0
    3.4825   -0.7775    1.7906 C   0  0  0  0  0  0  0  0  0  0  0  0
    1.9751   -0.4036    2.4914 S   0  0  0  0  0  0  0  0  0  0  0  0
    1.1145   -0.0399    1.1041 C   0  0  0  0  0  0  0  0  0  0  0  0
   -0.3591    0.4005    0.8701 C   0  0  1  0  0  0  0  0  0  0  0  0
   -0.2547    1.5177   -0.1256 C   0  0  0  0  0  0  0  0  0  0  0  0
    0.4025    2.7754    0.2418 C   0  0  0  0  0  0  0  0  0  0  0  0
    0.9280    3.7615    0.5579 N   0  0  0  0  0  0  0  0  0  0  0  0
   -0.7332    1.4150   -1.3278 C   0  0  0  0  0  0  0  0  0  0  0  0
   -0.5559    2.5881   -2.1755 N   0  0  0  0  0  0  0  0  0  0  0  0
   -1.3797    0.3005   -1.8511 O   0  0  0  0  0  0  0  0  0  0  0  0
   -1.4842   -0.7492   -0.9600 C   0  0  0  0  0  0  0  0  0  0  0  0
   -1.0460   -0.7620    0.2658 C   0  0  0  0  0  0  0  0  0  0  0  0
   -1.2441   -2.0138    1.1103 C   0  0  0  0  0  0  0  0  0  0  0  0
   -2.5564   -2.6563    0.8774 C   0  0  0  0  0  0  0  0  0  0  0  0
   -3.1160   -2.5530   -0.5022 C   0  0  0  0  0  0  0  0  0  0  0  0
   -2.1899   -1.9814   -1.5253 C   0  0  0  0  0  0  0  0  0  0  0  0
  1  2  1  0
  2  3  1  0
  3  4  2  0
  4  5  1  0
  5  6  1  0
  7  6  1  1
  7  8  1  0
  8  9  1  0
  9 10  3  0
  8 11  2  0
 11 12  1  0
 11 13  1  0
 13 14  1  0
 14 15  2  0
 15 16  1  0
 16 17  1  0
 17 18  1  0
 18 19  1  0
  6  2  2  0
 15  7  1  0
 19 14  1  0
M  END
>  <zinc_id>  (1) 
ZINC000000293942

>  <smiles>  (1) 
Cc1ccsc1[C@@H]1C(C#N)=C(N)OC2=C1CCCC2

$$$$
