
     RDKit          3D

 22 24  0  0  0  0  0  0  0  0999 V2000
    4.0538   -0.4196   -1.7830 C   0  0  0  0  0  0  0  0  0  0  0  0
    4.8001   -0.1569   -0.5187 C   0  0  0  0  0  0  0  0  0  0  0  0
    6.2234   -0.6353   -0.5250 C   0  0  0  0  0  0  0  0  0  0  0  0
    4.0597   -0.5680    0.7284 C   0  0  0  0  0  0  0  0  0  0  0  0
    2.7689    0.1408    0.8778 C   0  0  0  0  0  0  0  0  0  0  0  0
    1.6479   -0.4326    0.3214 C   0  0  0  0  0  0  0  0  0  0  0  0
    0.4007    0.1605    0.4129 C   0  0  0  0  0  0  0  0  0  0  0  0
   -0.7325   -0.5213   -0.2085 C   0  0  0  0  0  0  0  0  0  0  0  0
   -0.5646   -1.7164   -0.8647 C   0  0  0  0  0  0  0  0  0  0  0  0
   -1.6255   -2.3855   -1.4643 C   0  0  0  0  0  0  0  0  0  0  0  0
   -2.8991   -1.8633   -1.4189 C   0  0  0  0  0  0  0  0  0  0  0  0
   -3.9629   -2.4896   -1.9943 F   0  0  0  0  0  0  0  0  0  0  0  0
   -3.0810   -0.6635   -0.7628 C   0  0  0  0  0  0  0  0  0  0  0  0
   -4.3462   -0.1078   -0.6963 C   0  0  0  0  0  0  0  0  0  0  0  0
   -4.5275    1.0784   -0.0480 C   0  0  0  0  0  0  0  0  0  0  0  0
   -3.4718    1.7339    0.5427 C   0  0  0  0  0  0  0  0  0  0  0  0
   -2.1844    1.2014    0.4941 C   0  0  0  0  0  0  0  0  0  0  0  0
   -2.0075    0.0023   -0.1626 C   0  0  0  0  0  0  0  0  0  0  0  0
    0.2923    1.3173    1.0588 N   0  0  0  0  0  0  0  0  0  0  0  0
    1.3739    1.8910    1.6075 C   0  0  0  0  0  0  0  0  0  0  0  0
    1.1823    3.1257    2.2816 N   0  0  0  0  0  0  0  0  0  0  0  0
    2.6000    1.3085    1.5179 N   0  0  0  0  0  0  0  0  0  0  0  0
  1  2  1  0
  2  3  1  0
  2  4  1  0
  4  5  1  0
  5  6  2  0
  6  7  1  0
  7  8  1  0
  8  9  2  0
  9 10  1  0
 10 11  2  0
 11 12  1  0
 11 13  1  0
 13 14  2  0
 14 15  1  0
 15 16  2  0
 16 17  1  0
 17 18  2  0
  7 19  2  0
 19 20  1  0
 20 21  1  0
 20 22  2  0
 22  5  1  0
 18  8  1  0
 18 13  1  0
M  END
>  <zinc_id>  (1) 
ZINC000000023046

>  <smiles>  (1) 
CC(C)Cc1cc(-c2ccc(F)c3ccccc23)nc(N)n1

$$$$
