
     RDKit          3D

 20 23  0  0  0  0  0  0  0  0999 V2000
   -5.4587    1.7327   -1.6459 O   0  0  0  0  0  0  0  0  0  0  0  0
   -5.1461    0.4974   -1.2069 N   0  0  0  0  0  0  0  0  0  0  0  0
   -4.0830    0.3840   -0.2538 C   0  0  0  0  0  0  0  0  0  0  0  0
   -4.1417    0.5431    1.0555 C   0  0  0  0  0  0  0  0  0  0  0  0
   -2.8172    0.3391    1.6840 C   0  0  0  0  0  0  0  0  0  0  0  0
   -1.9191    0.0264    0.5575 C   0  0  0  0  0  0  0  0  0  0  0  0
   -2.6890    0.0576   -0.5864 C   0  0  0  0  0  0  0  0  0  0  0  0
   -1.8449   -0.2317   -1.6047 N   0  0  0  0  0  0  0  0  0  0  0  0
   -0.5930   -0.4379   -1.1296 C   0  0  0  0  0  0  0  0  0  0  0  0
    0.6165   -0.7543   -1.7137 C   0  0  0  0  0  0  0  0  0  0  0  0
    1.7642   -0.9081   -0.9641 C   0  0  0  0  0  0  0  0  0  0  0  0
    1.7621   -0.7538    0.4067 C   0  0  0  0  0  0  0  0  0  0  0  0
    3.0081   -0.9220    1.2092 C   0  0  0  0  0  0  0  0  0  0  0  0
    3.1690    0.3193    2.0428 C   0  0  0  0  0  0  0  0  0  0  0  0
    3.8065    1.4550    1.2780 C   0  0  0  0  0  0  0  0  0  0  0  0
    5.0813    1.0260    0.5887 C   0  0  0  0  0  0  0  0  0  0  0  0
    5.3708   -0.4421    0.8124 C   0  0  0  0  0  0  0  0  0  0  0  0
    4.1692   -1.2122    0.3197 C   0  0  0  0  0  0  0  0  0  0  0  0
    0.5541   -0.4377    0.9912 C   0  0  0  0  0  0  0  0  0  0  0  0
   -0.6091   -0.2808    0.2404 C   0  0  0  0  0  0  0  0  0  0  0  0
  1  2  1  0
  2  3  1  0
  3  4  2  0
  4  5  1  0
  5  6  1  0
  6  7  2  0
  7  8  1  0
  8  9  1  0
  9 10  2  0
 10 11  1  0
 11 12  2  0
 12 13  1  0
 13 14  1  0
 14 15  1  0
 15 16  1  0
 16 17  1  0
 17 18  1  0
 12 19  1  0
 19 20  2  0
  7  3  1  0
 20  9  1  0
 20  6  1  0
 18 13  1  0
M  END
>  <zinc_id>  (1) 
ZINC000003661716

>  <smiles>  (1) 
ONC1=CCc2c1[nH]c1ccc(C3CCCCC3)cc21

$$$$
