
     RDKit          3D

 18 19  0  0  0  0  0  0  0  0999 V2000
    0.7157   -3.3078   -1.2663 C   0  0  0  0  0  0  0  0  0  0  0  0
    0.5344   -1.9770   -0.6610 N   0  0  0  0  0  0  0  0  0  0  0  0
   -0.7593   -1.5799   -0.2433 C   0  0  0  0  0  0  0  0  0  0  0  0
   -2.0259   -2.5749   -0.4212 S   0  0  0  0  0  0  0  0  0  0  0  0
   -0.9102   -0.2894    0.3329 N   0  0  0  0  0  0  0  0  0  0  0  0
   -2.1774    0.1974    0.7830 C   0  0  0  0  0  0  0  0  0  0  0  0
   -1.9952    1.6040    1.3056 C   0  0  0  0  0  0  0  0  0  0  0  0
   -3.3329    2.0472    1.8369 C   0  0  0  0  0  0  0  0  0  0  0  0
   -4.3403    2.1638    0.7134 C   0  0  0  0  0  0  0  0  0  0  0  0
   -3.9469    1.4072   -0.5170 C   0  0  0  0  0  0  0  0  0  0  0  0
   -3.2925    0.0811   -0.1986 C   0  0  0  0  0  0  0  0  0  0  0  0
    1.6467   -1.1017   -0.4952 C   0  0  0  0  0  0  0  0  0  0  0  0
    1.9877   -0.1391   -1.4221 C   0  0  0  0  0  0  0  0  0  0  0  0
    3.0778    0.6815   -1.2131 C   0  0  0  0  0  0  0  0  0  0  0  0
    3.8738    0.5924   -0.0923 C   0  0  0  0  0  0  0  0  0  0  0  0
    4.9581    1.4381    0.0759 O   0  0  0  0  0  0  0  0  0  0  0  0
    3.5379   -0.3716    0.8430 C   0  0  0  0  0  0  0  0  0  0  0  0
    2.4486   -1.1957    0.6395 C   0  0  0  0  0  0  0  0  0  0  0  0
  1  2  1  0
  2  3  1  0
  3  4  2  0
  3  5  1  0
  5  6  1  0
  6  7  1  0
  7  8  1  0
  8  9  1  0
  9 10  1  0
 10 11  1  0
  2 12  1  0
 12 13  2  0
 13 14  1  0
 14 15  2  0
 15 16  1  0
 15 17  1  0
 17 18  2  0
 11  6  1  0
 18 12  1  0
M  END
>  <zinc_id>  (1) 
ZINC000003274387

>  <smiles>  (1) 
CN(C(=S)NC1CCCCC1)c1ccc(O)cc1

$$$$
