
     RDKit          3D

 21 23  0  0  0  0  0  0  0  0999 V2000
   -4.9341    1.6883   -0.4228 C   0  0  0  0  0  0  0  0  0  0  0  0
   -4.4004    0.6569    0.5613 C   0  0  0  0  0  0  0  0  0  0  0  0
   -5.2939   -0.5543    0.5934 C   0  0  0  0  0  0  0  0  0  0  0  0
   -4.3119    1.2405    1.9668 C   0  0  0  0  0  0  0  0  0  0  0  0
   -3.0433    0.2039    0.1723 C   0  0  0  0  0  0  0  0  0  0  0  0
   -2.5276   -0.9210    0.7578 C   0  0  0  0  0  0  0  0  0  0  0  0
   -1.2667   -1.4210    0.4029 C   0  0  0  0  0  0  0  0  0  0  0  0
   -0.5125   -0.7923   -0.5457 C   0  0  0  0  0  0  0  0  0  0  0  0
    0.8013   -1.2111   -1.0668 C   0  0  0  0  0  0  0  0  0  0  0  0
    1.8358   -1.0171   -0.1104 N   0  0  0  0  0  0  0  0  0  0  0  0
    2.3789   -1.9030    0.7427 C   0  0  0  0  0  0  0  0  0  0  0  0
    1.9723   -3.2821    0.7883 N   0  0  0  0  0  0  0  0  0  0  0  0
    3.3133   -1.2702    1.4681 N   0  0  0  0  0  0  0  0  0  0  0  0
    3.3461   -0.0068    1.0645 C   0  0  0  0  0  0  0  0  0  0  0  0
    4.1662    1.0155    1.5349 C   0  0  0  0  0  0  0  0  0  0  0  0
    4.0122    2.2586    0.9489 C   0  0  0  0  0  0  0  0  0  0  0  0
    3.1005    2.4582   -0.0344 C   0  0  0  0  0  0  0  0  0  0  0  0
    2.2998    1.4346   -0.4847 C   0  0  0  0  0  0  0  0  0  0  0  0
    2.4357    0.1873    0.0840 C   0  0  0  0  0  0  0  0  0  0  0  0
   -1.0707    0.3819   -1.1377 C   0  0  0  0  0  0  0  0  0  0  0  0
   -2.3010    0.8530   -0.7807 C   0  0  0  0  0  0  0  0  0  0  0  0
  1  2  1  0
  2  3  1  0
  2  4  1  0
  2  5  1  0
  5  6  2  0
  6  7  1  0
  7  8  2  0
  8  9  1  0
  9 10  1  0
 10 11  1  0
 11 12  1  0
 11 13  2  0
 13 14  1  0
 14 15  2  0
 15 16  1  0
 16 17  2  0
 17 18  1  0
 18 19  2  0
  8 20  1  0
 20 21  2  0
 21  5  1  0
 19 10  1  0
 19 14  1  0
M  END
>  <zinc_id>  (1) 
ZINC000000438899

>  <smiles>  (1) 
CC(C)(C)c1ccc(Cn2c(N)nc3ccccc32)cc1

$$$$
