
     RDKit          3D

 20 22  0  0  0  0  0  0  0  0999 V2000
    2.2100    2.3707   -2.2374 N   0  0  0  0  0  0  0  0  0  0  0  0
    1.2861    1.7557   -1.8644 C   0  0  0  0  0  0  0  0  0  0  0  0
    0.1448    1.0082   -1.4206 C   0  0  0  0  0  0  0  0  0  0  0  0
   -1.0156    1.5336   -1.5179 C   0  0  0  0  0  0  0  0  0  0  0  0
   -1.1945    2.8818   -2.0715 N   0  0  0  0  0  0  0  0  0  0  0  0
   -2.1313    0.8740   -1.1188 O   0  0  0  0  0  0  0  0  0  0  0  0
   -2.0166   -0.4110   -0.5881 C   0  0  0  0  0  0  0  0  0  0  0  0
   -0.8590   -1.0097   -0.4566 C   0  0  0  0  0  0  0  0  0  0  0  0
   -0.8166   -2.3325    0.0912 C   0  0  0  0  0  0  0  0  0  0  0  0
   -1.9944   -3.2039   -0.1050 C   0  0  0  0  0  0  0  0  0  0  0  0
   -3.2596   -2.5248   -0.4836 C   0  0  0  0  0  0  0  0  0  0  0  0
   -3.2809   -1.0561   -0.1827 C   0  0  0  0  0  0  0  0  0  0  0  0
    0.4504   -0.3675   -0.8448 C   0  0  2  0  0  0  0  0  0  0  0  0
    1.2092    0.0181    0.4240 C   0  0  0  0  0  0  0  0  0  0  0  0
    1.3122    1.3875    0.7404 C   0  0  0  0  0  0  0  0  0  0  0  0
    1.8862    1.8486    1.9146 C   0  0  0  0  0  0  0  0  0  0  0  0
    2.3791    0.9457    2.8162 C   0  0  0  0  0  0  0  0  0  0  0  0
    2.2897   -0.3972    2.5244 C   0  0  0  0  0  0  0  0  0  0  0  0
    1.7053   -0.8267    1.3282 C   0  0  0  0  0  0  0  0  0  0  0  0
    1.6955   -2.4945    0.8651 Cl  0  0  0  0  0  0  0  0  0  0  0  0
  1  2  3  0
  2  3  1  0
  3  4  2  0
  4  5  1  0
  4  6  1  0
  6  7  1  0
  7  8  2  0
  8  9  1  0
  9 10  1  0
 10 11  1  0
 11 12  1  0
  8 13  1  0
 13 14  1  1
 14 15  2  0
 15 16  1  0
 16 17  2  0
 17 18  1  0
 18 19  2  0
 19 20  1  0
 13  3  1  0
 19 14  1  0
 12  7  1  0
M  END
>  <zinc_id>  (1) 
ZINC000000483921

>  <smiles>  (1) 
N#CC1=C(N)OC2=C(CCCC2)[C@@H]1c1ccccc1Cl

$$$$
