
     RDKit          3D

 21 23  0  0  0  0  0  0  0  0999 V2000
    5.6735   -0.6944   -0.3096 C   0  0  0  0  0  0  0  0  0  0  0  0
    4.2144   -0.4296   -0.1264 C   0  0  0  0  0  0  0  0  0  0  0  0
    3.2807   -1.0486   -0.9322 C   0  0  0  0  0  0  0  0  0  0  0  0
    1.9306   -0.7967   -0.7544 C   0  0  0  0  0  0  0  0  0  0  0  0
    1.0096   -1.3607   -1.4946 O   0  0  0  0  0  0  0  0  0  0  0  0
   -0.2768   -1.1237   -1.3285 C   0  0  0  0  0  0  0  0  0  0  0  0
   -1.1565   -1.6676   -2.0417 O   0  0  0  0  0  0  0  0  0  0  0  0
   -0.7190   -0.2564   -0.3514 C   0  0  0  0  0  0  0  0  0  0  0  0
   -2.1255    0.0434   -0.1202 C   0  0  0  0  0  0  0  0  0  0  0  0
   -2.9596   -0.7753    0.6095 C   0  0  0  0  0  0  0  0  0  0  0  0
   -4.2948   -0.4467    0.8040 C   0  0  0  0  0  0  0  0  0  0  0  0
   -4.8350    0.7136    0.2724 C   0  0  0  0  0  0  0  0  0  0  0  0
   -6.1793    1.0276    0.4784 O   0  0  0  0  0  0  0  0  0  0  0  0
   -3.9944    1.5279   -0.4565 C   0  0  0  0  0  0  0  0  0  0  0  0
   -2.6683    1.1952   -0.6458 C   0  0  0  0  0  0  0  0  0  0  0  0
    0.2400    0.3432    0.4336 C   0  0  0  0  0  0  0  0  0  0  0  0
   -0.1628    1.2919    1.5092 C   0  0  0  0  0  0  0  0  0  0  0  0
    1.5671    0.0771    0.2370 C   0  0  0  0  0  0  0  0  0  0  0  0
    2.5176    0.7030    1.0522 C   0  0  0  0  0  0  0  0  0  0  0  0
    3.8577    0.4497    0.8721 C   0  0  0  0  0  0  0  0  0  0  0  0
    5.0809    1.2272    1.8896 Cl  0  0  0  0  0  0  0  0  0  0  0  0
  1  2  1  0
  2  3  2  0
  3  4  1  0
  4  5  1  0
  5  6  1  0
  6  7  2  0
  6  8  1  0
  8  9  1  0
  9 10  2  0
 10 11  1  0
 11 12  2  0
 12 13  1  0
 12 14  1  0
 14 15  2  0
  8 16  2  0
 16 17  1  0
 16 18  1  0
 18 19  1  0
 19 20  2  0
 20 21  1  0
 20  2  1  0
 18  4  2  0
 15  9  1  0
M  END
>  <zinc_id>  (1) 
ZINC000000057822

>  <smiles>  (1) 
Cc1cc2oc(=O)c(-c3ccc(O)cc3)c(C)c2cc1Cl

$$$$
