
     RDKit          3D

 32 35  0  0  0  0  0  0  0  0999 V2000
   -5.5004    3.9228    2.7188 C   0  0  0  0  0  0  0  0  0  0  0  0
   -6.1007    3.5932    1.4825 O   0  0  0  0  0  0  0  0  0  0  0  0
   -5.5920    2.5556    0.7108 C   0  0  0  0  0  0  0  0  0  0  0  0
   -4.4969    1.8513    1.1627 C   0  0  0  0  0  0  0  0  0  0  0  0
   -3.9383    0.8138    0.4561 C   0  0  0  0  0  0  0  0  0  0  0  0
   -4.4840    0.4602   -0.7424 C   0  0  0  0  0  0  0  0  0  0  0  0
   -3.9020   -0.6437   -1.5109 C   0  0  0  0  0  0  0  0  0  0  0  0
   -2.7588   -1.2488   -0.8688 N   0  0  0  0  0  0  0  0  0  0  0  0
   -1.4743   -0.6383   -0.8489 C   0  0  0  0  0  0  0  0  0  0  0  0
   -1.3815    0.4734   -1.4280 O   0  0  0  0  0  0  0  0  0  0  0  0
   -0.3268   -1.2676   -0.1925 C   0  0  0  0  0  0  0  0  0  0  0  0
    0.8998   -0.6388   -0.1909 C   0  0  0  0  0  0  0  0  0  0  0  0
    1.9620   -1.2834    0.4512 C   0  0  0  0  0  0  0  0  0  0  0  0
    3.2615   -0.6117    0.4508 C   0  0  0  0  0  0  0  0  0  0  0  0
    4.3521   -1.1896    1.0669 C   0  0  0  0  0  0  0  0  0  0  0  0
    5.5962   -0.6034    1.0972 C   0  0  0  0  0  0  0  0  0  0  0  0
    5.7701    0.6150    0.4879 C   0  0  0  0  0  0  0  0  0  0  0  0
    4.7018    1.2098   -0.1311 C   0  0  0  0  0  0  0  0  0  0  0  0
    4.8540    2.4298   -0.7473 O   0  0  0  0  0  0  0  0  0  0  0  0
    6.0587    3.1466   -0.7977 C   0  0  0  0  0  0  0  0  0  0  0  0
    5.8500    4.4476   -1.5589 C   0  0  0  0  0  0  0  0  0  0  0  0
    6.5065    3.5295    0.6136 C   0  0  0  0  0  0  0  0  0  0  0  0
    3.4585    0.6045   -0.1510 C   0  0  0  0  0  0  0  0  0  0  0  0
    1.8261   -2.4699    1.0527 N   0  0  0  0  0  0  0  0  0  0  0  0
    0.6375   -3.1023    1.0635 C   0  0  0  0  0  0  0  0  0  0  0  0
    0.4949   -4.3425    1.6919 C   0  0  0  0  0  0  0  0  0  0  0  0
   -0.7181   -4.9760    1.6966 C   0  0  0  0  0  0  0  0  0  0  0  0
   -1.7747   -4.3535    1.0680 C   0  0  0  0  0  0  0  0  0  0  0  0
   -1.6519   -3.1314    0.4437 C   0  0  0  0  0  0  0  0  0  0  0  0
   -0.4188   -2.4867    0.4387 C   0  0  0  0  0  0  0  0  0  0  0  0
   -5.5684    1.1378   -1.2173 C   0  0  0  0  0  0  0  0  0  0  0  0
   -6.1419    2.1965   -0.5009 C   0  0  0  0  0  0  0  0  0  0  0  0
  1  2  1  0
  2  3  1  0
  3  4  2  0
  4  5  1  0
  5  6  2  0
  6  7  1  0
  7  8  1  0
  8  9  1  0
  9 10  2  0
  9 11  1  0
 11 12  2  0
 12 13  1  0
 13 14  1  0
 14 15  2  0
 15 16  1  0
 16 17  2  0
 17 18  1  0
 18 19  1  0
 19 20  1  0
 20 21  1  0
 20 22  1  0
 18 23  2  0
 13 24  2  0
 24 25  1  0
 25 26  2  0
 26 27  1  0
 27 28  2  0
 28 29  1  0
 29 30  2  0
  6 31  1  0
 31 32  2  0
 32  3  1  0
 30 11  1  0
 23 14  1  0
 30 25  1  0
M  END
>  <zinc_id>  (1) 
ZINC000002762418

>  <smiles>  (1) 
COc1ccc(CNC(=O)c2cc(-c3cccc(OC(C)C)c3)nc3ccccc23)cc1

$$$$
