
     RDKit          3D

 21 22  0  0  0  0  0  0  0  0999 V2000
   -0.1612    3.3564   -0.5556 C   0  0  0  0  0  0  0  0  0  0  0  0
   -1.2995    2.5326   -0.3747 O   0  0  0  0  0  0  0  0  0  0  0  0
   -1.1484    1.1663   -0.1193 C   0  0  0  0  0  0  0  0  0  0  0  0
    0.0647    0.5826   -0.0353 N   0  0  0  0  0  0  0  0  0  0  0  0
    0.1777   -0.7344    0.2116 C   0  0  0  0  0  0  0  0  0  0  0  0
    1.4246   -1.3812    0.3069 N   0  0  0  0  0  0  0  0  0  0  0  0
    2.6728   -0.7399    0.1583 C   0  0  0  0  0  0  0  0  0  0  0  0
    2.6917    0.6130   -0.0980 C   0  0  0  0  0  0  0  0  0  0  0  0
    3.8933    1.3076   -0.2557 C   0  0  0  0  0  0  0  0  0  0  0  0
    5.0773    0.6295   -0.1535 C   0  0  0  0  0  0  0  0  0  0  0  0
    6.5641    1.5548   -0.3611 Cl  0  0  0  0  0  0  0  0  0  0  0  0
    5.0879   -0.7143    0.1004 C   0  0  0  0  0  0  0  0  0  0  0  0
    3.8760   -1.3970    0.2561 C   0  0  0  0  0  0  0  0  0  0  0  0
   -0.9648   -1.4276    0.3678 N   0  0  0  0  0  0  0  0  0  0  0  0
   -2.1863   -0.8755    0.2900 C   0  0  0  0  0  0  0  0  0  0  0  0
   -3.3808   -1.6289    0.4587 N   0  0  0  0  0  0  0  0  0  0  0  0
   -4.6840   -0.9964    0.3674 C   0  0  0  0  0  0  0  0  0  0  0  0
   -4.7097    0.0721    1.4617 C   0  0  0  0  0  0  0  0  0  0  0  0
   -5.7979   -1.9573    0.6802 C   0  0  0  0  0  0  0  0  0  0  0  0
   -4.9101   -0.4178   -0.9927 C   0  0  0  0  0  0  0  0  0  0  0  0
   -2.2875    0.4555    0.0401 N   0  0  0  0  0  0  0  0  0  0  0  0
  1  2  1  0
  2  3  1  0
  3  4  2  0
  4  5  1  0
  5  6  1  0
  6  7  1  0
  7  8  2  0
  8  9  1  0
  9 10  2  0
 10 11  1  0
 10 12  1  0
 12 13  2  0
  5 14  2  0
 14 15  1  0
 15 16  1  0
 16 17  1  0
 17 18  1  0
 17 19  1  0
 17 20  1  0
 15 21  2  0
 21  3  1  0
 13  7  1  0
M  END
>  <zinc_id>  (1) 
ZINC000000071155

>  <smiles>  (1) 
COc1nc(Nc2ccc(Cl)cc2)nc(NC(C)(C)C)n1

$$$$
