
     RDKit          3D

 30 33  0  0  0  0  0  0  0  0999 V2000
    4.7191   -1.7168   -0.3406 C   0  0  0  0  0  0  0  0  0  0  0  0
    3.3097   -1.4529    0.1330 C   0  0  0  0  0  0  0  0  0  0  0  0
    2.2846   -2.3130    0.1184 N   0  0  0  0  0  0  0  0  0  0  0  0
    1.1919   -1.6814    0.6350 C   0  0  0  0  0  0  0  0  0  0  0  0
   -0.4045   -2.4484    0.8687 S   0  0  0  0  0  0  0  0  0  0  0  0
   -1.4456   -2.4509   -0.5278 C   0  0  0  0  0  0  0  0  0  0  0  0
   -1.9446   -1.1367   -0.9187 C   0  0  0  0  0  0  0  0  0  0  0  0
   -1.6382   -0.7586   -2.1071 O   0  0  0  0  0  0  0  0  0  0  0  0
   -2.7164   -0.3200   -0.0880 N   0  0  0  0  0  0  0  0  0  0  0  0
   -3.3328    0.8456   -0.6672 C   0  0  0  0  0  0  0  0  0  0  0  0
   -4.4696    0.5666   -1.4316 C   0  0  0  0  0  0  0  0  0  0  0  0
   -5.1597    1.5851   -2.0566 C   0  0  0  0  0  0  0  0  0  0  0  0
   -4.7470    2.8826   -1.9373 C   0  0  0  0  0  0  0  0  0  0  0  0
   -3.6228    3.1530   -1.1798 C   0  0  0  0  0  0  0  0  0  0  0  0
   -2.9143    2.1129   -0.5420 C   0  0  0  0  0  0  0  0  0  0  0  0
   -2.8923   -0.6044    1.2957 C   0  0  0  0  0  0  0  0  0  0  0  0
   -3.3402    0.6190    2.0674 C   0  0  0  0  0  0  0  0  0  0  0  0
   -4.4537    0.1965    3.0151 C   0  0  0  0  0  0  0  0  0  0  0  0
   -5.6005   -0.3194    2.1591 C   0  0  0  0  0  0  0  0  0  0  0  0
   -5.1718   -1.6419    1.5446 C   0  0  0  0  0  0  0  0  0  0  0  0
   -3.6659   -1.8248    1.6208 C   0  0  0  0  0  0  0  0  0  0  0  0
    1.5849   -0.4514    0.9509 N   0  0  0  0  0  0  0  0  0  0  0  0
    2.8792   -0.2446    0.6667 C   0  0  0  0  0  0  0  0  0  0  0  0
    3.5958    1.0114    0.9335 C   0  0  0  0  0  0  0  0  0  0  0  0
    4.9837    1.0260    0.5018 C   0  0  0  0  0  0  0  0  0  0  0  0
    5.9576    0.3811    1.2258 C   0  0  0  0  0  0  0  0  0  0  0  0
    7.2924    0.4137    0.8408 C   0  0  0  0  0  0  0  0  0  0  0  0
    7.6492    1.1017   -0.2813 C   0  0  0  0  0  0  0  0  0  0  0  0
    6.6999    1.7602   -1.0335 C   0  0  0  0  0  0  0  0  0  0  0  0
    5.3719    1.7099   -0.6269 C   0  0  0  0  0  0  0  0  0  0  0  0
  1  2  1  0
  2  3  1  0
  3  4  1  0
  4  5  1  0
  5  6  1  0
  6  7  1  0
  7  8  2  0
  7  9  1  0
  9 10  1  0
 10 11  2  0
 11 12  1  0
 12 13  2  0
 13 14  1  0
 14 15  2  0
  9 16  1  0
 16 17  1  0
 17 18  1  0
 18 19  1  0
 19 20  1  0
 20 21  1  0
  4 22  2  0
 22 23  1  0
 23 24  1  0
 24 25  1  0
 25 26  2  0
 26 27  1  0
 27 28  2  0
 28 29  1  0
 29 30  2  0
 23  2  2  0
 30 25  1  0
 15 10  1  0
 21 16  1  0
M  END
>  <zinc_id>  (1) 
ZINC000004492395

>  <smiles>  (1) 
Cc1[nH]c(SCC(=O)N(c2ccccc2)C2CCCCC2)nc1Cc1ccccc1

$$$$
