
     RDKit          3D

 20 21  0  0  0  0  0  0  0  0999 V2000
    5.2227   -1.6262   -0.7713 C   0  0  0  0  0  0  0  0  0  0  0  0
    4.6394   -0.3061   -0.3778 C   0  0  0  0  0  0  0  0  0  0  0  0
    3.2098   -0.3922   -0.4122 O   0  0  0  0  0  0  0  0  0  0  0  0
    2.4204    0.7082   -0.0859 C   0  0  0  0  0  0  0  0  0  0  0  0
    3.0663    1.7593    0.2340 O   0  0  0  0  0  0  0  0  0  0  0  0
    0.9621    0.6862   -0.1012 C   0  0  0  0  0  0  0  0  0  0  0  0
    0.3225    1.7546    0.2163 C   0  0  0  0  0  0  0  0  0  0  0  0
    1.0617    2.9357    0.5758 N   0  0  0  0  0  0  0  0  0  0  0  0
   -1.0497    1.8620    0.2405 O   0  0  0  0  0  0  0  0  0  0  0  0
   -1.7690    0.7306   -0.1040 C   0  0  0  0  0  0  0  0  0  0  0  0
   -3.1741    0.8705   -0.0702 C   0  0  0  0  0  0  0  0  0  0  0  0
   -3.9367   -0.2258   -0.4044 C   0  0  0  0  0  0  0  0  0  0  0  0
   -5.3101   -0.1068   -0.3767 O   0  0  0  0  0  0  0  0  0  0  0  0
   -3.3268   -1.4220   -0.7605 C   0  0  0  0  0  0  0  0  0  0  0  0
   -1.9637   -1.5501   -0.7910 C   0  0  0  0  0  0  0  0  0  0  0  0
   -1.1899   -0.4222   -0.4472 C   0  0  0  0  0  0  0  0  0  0  0  0
    0.3362   -0.6451   -0.5052 C   0  0  2  0  0  0  0  0  0  0  0  0
    0.5131   -1.3850    0.9634 C   0  0  0  0  0  0  0  0  0  0  0  0
   -0.0343   -2.7380    0.8390 C   0  0  0  0  0  0  0  0  0  0  0  0
    0.0003   -0.4875    1.9848 C   0  0  0  0  0  0  0  0  0  0  0  0
  1  2  1  0
  2  3  1  0
  3  4  1  0
  4  5  2  0
  4  6  1  0
  6  7  2  0
  7  8  1  0
  7  9  1  0
  9 10  1  0
 10 11  2  0
 11 12  1  0
 12 13  1  0
 12 14  2  0
 14 15  1  0
 15 16  2  0
 16 17  1  0
 17 18  1  1
 18 19  1  0
 18 20  1  0
 17  6  1  0
 16 10  1  0
M  END
>  <zinc_id>  (1) 
ZINC000000033768

>  <smiles>  (1) 
CCOC(=O)C1=C(N)Oc2cc(O)ccc2[C@@H]1C(C)C

$$$$
