
     RDKit          3D

 21 23  0  0  0  0  0  0  0  0999 V2000
    5.1593   -0.8843   -1.8863 C   0  0  0  0  0  0  0  0  0  0  0  0
    4.3107   -1.5855   -1.0283 O   0  0  0  0  0  0  0  0  0  0  0  0
    3.1349   -1.0474   -0.4971 C   0  0  0  0  0  0  0  0  0  0  0  0
    2.3218   -1.7667    0.3457 C   0  0  0  0  0  0  0  0  0  0  0  0
    1.1500   -1.1899    0.8575 C   0  0  0  0  0  0  0  0  0  0  0  0
    0.8113    0.0994    0.5165 C   0  0  0  0  0  0  0  0  0  0  0  0
   -0.5183    0.6685    1.1371 C   0  0  1  0  0  0  0  0  0  0  0  0
   -0.8417    1.7428    0.0729 C   0  0  0  0  0  0  0  0  0  0  0  0
   -0.0911    2.9404    0.2457 C   0  0  0  0  0  0  0  0  0  0  0  0
    0.5335    3.9333    0.3690 N   0  0  0  0  0  0  0  0  0  0  0  0
   -1.6767    1.6245   -0.8750 C   0  0  0  0  0  0  0  0  0  0  0  0
   -1.8872    2.7070   -1.8062 N   0  0  0  0  0  0  0  0  0  0  0  0
   -2.4027    0.5010   -1.0639 O   0  0  0  0  0  0  0  0  0  0  0  0
   -2.2531   -0.5617   -0.2195 C   0  0  0  0  0  0  0  0  0  0  0  0
   -1.4232   -0.4956    0.7546 C   0  0  0  0  0  0  0  0  0  0  0  0
   -1.2944   -1.6669    1.6419 C   0  0  0  0  0  0  0  0  0  0  0  0
   -2.6949   -2.0442    2.0678 C   0  0  0  0  0  0  0  0  0  0  0  0
   -3.6562   -2.1636    0.9237 C   0  0  0  0  0  0  0  0  0  0  0  0
   -3.0713   -1.8355   -0.4277 C   0  0  0  0  0  0  0  0  0  0  0  0
    1.6069    0.7900   -0.3024 C   0  0  0  0  0  0  0  0  0  0  0  0
    2.7826    0.2345   -0.8260 C   0  0  0  0  0  0  0  0  0  0  0  0
  1  2  1  0
  2  3  1  0
  3  4  2  0
  4  5  1  0
  5  6  2  0
  7  6  1  6
  7  8  1  0
  8  9  1  0
  9 10  3  0
  8 11  2  0
 11 12  1  0
 11 13  1  0
 13 14  1  0
 14 15  2  0
 15 16  1  0
 16 17  1  0
 17 18  1  0
 18 19  1  0
  6 20  1  0
 20 21  2  0
 21  3  1  0
 15  7  1  0
 19 14  1  0
M  END
>  <zinc_id>  (1) 
ZINC000000227435

>  <smiles>  (1) 
COc1ccc([C@H]2C(C#N)=C(N)OC3=C2CCCC3)cc1

$$$$
