
     RDKit          3D

 19 21  0  0  0  0  0  0  0  0999 V2000
    0.2611    1.8400   -0.7995 C   0  0  0  0  0  0  0  0  0  0  0  0
   -0.5646    0.5692   -1.4748 C   0  0  2  0  0  0  0  0  0  0  0  0
   -1.7500    0.5312   -0.3956 C   0  0  0  0  0  0  0  0  0  0  0  0
   -2.1679    1.6050    0.2606 C   0  0  0  0  0  0  0  0  0  0  0  0
   -3.2055    1.4678    1.1545 C   0  0  0  0  0  0  0  0  0  0  0  0
   -3.7907    0.2344    1.3553 C   0  0  0  0  0  0  0  0  0  0  0  0
   -4.8461    0.0951    2.2642 O   0  0  0  0  0  0  0  0  0  0  0  0
   -3.3190   -0.8750    0.6418 C   0  0  0  0  0  0  0  0  0  0  0  0
   -2.2773   -0.7197   -0.2506 C   0  0  0  0  0  0  0  0  0  0  0  0
   -1.7715   -1.9073   -0.9952 C   0  0  0  0  0  0  0  0  0  0  0  0
   -0.2708   -1.8761   -0.7488 C   0  0  0  0  0  0  0  0  0  0  0  0
    0.2820   -0.5626   -0.9011 N   0  0  0  0  0  0  0  0  0  0  0  0
    1.6100   -0.3172   -0.5403 C   0  0  0  0  0  0  0  0  0  0  0  0
    2.3200    0.8412   -0.7629 C   0  0  0  0  0  0  0  0  0  0  0  0
    3.6280    1.0061   -0.3750 C   0  0  0  0  0  0  0  0  0  0  0  0
    4.2923   -0.0064    0.2664 C   0  0  0  0  0  0  0  0  0  0  0  0
    5.6208    0.1055    0.6831 O   0  0  0  0  0  0  0  0  0  0  0  0
    3.6153   -1.1734    0.5040 C   0  0  0  0  0  0  0  0  0  0  0  0
    2.3339   -1.3099    0.1138 C   0  0  0  0  0  0  0  0  0  0  0  0
  2  1  1  1
  2  3  1  0
  3  4  2  0
  4  5  1  0
  5  6  2  0
  6  7  1  0
  6  8  1  0
  8  9  2  0
  9 10  1  0
 10 11  1  0
 11 12  1  0
 12 13  1  0
 13 14  2  0
 14 15  1  0
 15 16  2  0
 16 17  1  0
 16 18  1  0
 18 19  2  0
 12  2  1  0
 19 13  1  0
  9  3  1  0
M  END
>  <zinc_id>  (1) 
ZINC000000009305

>  <smiles>  (1) 
C[C@@H]1c2ccc(O)cc2CCN1c1ccc(O)cc1

$$$$
