
     RDKit          3D

 31 33  0  0  0  0  0  0  0  0999 V2000
    7.8141    0.2296   -1.3165 C   0  0  0  0  0  0  0  0  0  0  0  0
    8.5722   -0.0639   -0.0326 C   0  0  0  0  0  0  0  0  0  0  0  0
    7.8640    0.5365    1.1492 C   0  0  0  0  0  0  0  0  0  0  0  0
    8.6154    0.2642    2.4341 C   0  0  0  0  0  0  0  0  0  0  0  0
    7.7700    2.0494    1.0156 C   0  0  0  0  0  0  0  0  0  0  0  0
    6.4607    0.0372    1.1839 C   0  0  0  0  0  0  0  0  0  0  0  0
    5.9994   -0.8073    2.1506 C   0  0  0  0  0  0  0  0  0  0  0  0
    4.6875   -1.2278    2.1361 C   0  0  0  0  0  0  0  0  0  0  0  0
    3.8290   -0.8041    1.1519 C   0  0  0  0  0  0  0  0  0  0  0  0
    2.5221   -1.2103    1.1103 O   0  0  0  0  0  0  0  0  0  0  0  0
    1.4940   -0.7138    0.3566 C   0  0  0  0  0  0  0  0  0  0  0  0
    0.2629   -1.3643    0.2714 C   0  0  0  0  0  0  0  0  0  0  0  0
   -0.7539   -0.8336   -0.4829 C   0  0  0  0  0  0  0  0  0  0  0  0
   -0.6023    0.3711   -1.1995 C   0  0  0  0  0  0  0  0  0  0  0  0
   -1.7177    0.8667   -1.9384 N   0  0  0  0  0  0  0  0  0  0  0  0
   -3.0156    0.4657   -1.4969 C   0  0  0  0  0  0  0  0  0  0  0  0
   -3.0849   -0.3113   -0.4846 O   0  0  0  0  0  0  0  0  0  0  0  0
   -4.2238    0.9418   -2.1965 C   0  0  0  0  0  0  0  0  0  0  0  0
   -5.4027    0.6899   -1.4849 O   0  0  0  0  0  0  0  0  0  0  0  0
   -5.8904   -0.5287   -1.0968 C   0  0  0  0  0  0  0  0  0  0  0  0
   -5.2662   -1.5877   -1.3858 O   0  0  0  0  0  0  0  0  0  0  0  0
   -7.1451   -0.6158   -0.3359 C   0  0  0  0  0  0  0  0  0  0  0  0
   -7.8111   -1.7121    0.1182 C   0  0  0  0  0  0  0  0  0  0  0  0
   -8.9474   -1.2983    0.8182 C   0  0  0  0  0  0  0  0  0  0  0  0
   -8.9151    0.0977    0.7548 C   0  0  0  0  0  0  0  0  0  0  0  0
   -7.8309    0.4715    0.0584 N   0  0  0  0  0  0  0  0  0  0  0  0
   -7.4601    1.8670   -0.2085 C   0  0  0  0  0  0  0  0  0  0  0  0
    0.6163    0.9915   -1.0986 C   0  0  0  0  0  0  0  0  0  0  0  0
    1.6589    0.4689   -0.3361 C   0  0  0  0  0  0  0  0  0  0  0  0
    4.3050    0.0455    0.1845 C   0  0  0  0  0  0  0  0  0  0  0  0
    5.5959    0.4593    0.2008 C   0  0  0  0  0  0  0  0  0  0  0  0
  1  2  1  0
  2  3  1  0
  3  4  1  0
  3  5  1  0
  3  6  1  0
  6  7  2  0
  7  8  1  0
  8  9  2  0
  9 10  1  0
 10 11  1  0
 11 12  2  0
 12 13  1  0
 13 14  2  0
 14 15  1  0
 15 16  1  0
 16 17  2  0
 16 18  1  0
 18 19  1  0
 19 20  1  0
 20 21  2  0
 20 22  1  0
 22 23  2  0
 23 24  1  0
 24 25  2  0
 25 26  1  0
 26 27  1  0
 14 28  1  0
 28 29  2  0
  9 30  1  0
 30 31  2  0
 31  6  1  0
 29 11  1  0
 26 22  1  0
M  END
>  <zinc_id>  (1) 
ZINC000002622045

>  <smiles>  (1) 
CCC(C)(C)c1ccc(Oc2ccc(NC(=O)COC(=O)c3cccn3C)cc2)cc1

$$$$
