
     RDKit          3D

 20 21  0  0  0  0  0  0  0  0999 V2000
    3.1536    2.0165   -0.8315 C   0  0  0  0  0  0  0  0  0  0  0  0
    2.8198    0.6207   -1.3677 C   0  0  0  0  0  0  0  0  0  0  0  0
    3.0458   -0.3655   -0.3471 N   0  0  0  0  0  0  0  0  0  0  0  0
    4.4911   -0.8284   -0.3726 C   0  0  0  0  0  0  0  0  0  0  0  0
    4.6086   -2.0023   -1.2985 C   0  0  0  0  0  0  0  0  0  0  0  0
    2.1963   -0.9269    0.5996 C   0  0  0  0  0  0  0  0  0  0  0  0
    2.8056   -1.7581    1.4020 O   0  0  0  0  0  0  0  0  0  0  0  0
    0.7522   -0.7138    0.8097 C   0  0  0  0  0  0  0  0  0  0  0  0
    0.1760   -1.3284    1.9393 C   0  0  0  0  0  0  0  0  0  0  0  0
    0.8162   -2.1158    2.9571 N   0  0  0  0  0  0  0  0  0  0  0  0
   -1.4601   -0.9270    1.8394 S   0  0  0  0  0  0  0  0  0  0  0  0
   -1.4443   -0.0096    0.4193 C   0  0  0  0  0  0  0  0  0  0  0  0
   -2.5681    0.6683   -0.2684 C   0  0  0  0  0  0  0  0  0  0  0  0
   -3.8250    0.5711    0.2804 C   0  0  0  0  0  0  0  0  0  0  0  0
   -4.9229    1.1731   -0.2987 C   0  0  0  0  0  0  0  0  0  0  0  0
   -4.7891    1.8991   -1.4599 C   0  0  0  0  0  0  0  0  0  0  0  0
   -3.5306    1.9970   -2.0104 C   0  0  0  0  0  0  0  0  0  0  0  0
   -2.4156    1.3865   -1.4237 C   0  0  0  0  0  0  0  0  0  0  0  0
   -0.1260   -0.0365    0.0415 C   0  0  0  0  0  0  0  0  0  0  0  0
    0.2166    0.6802   -1.2607 C   0  0  0  0  0  0  0  0  0  0  0  0
  1  2  1  0
  2  3  1  0
  3  4  1  0
  4  5  1  0
  3  6  1  0
  6  7  2  0
  6  8  1  0
  8  9  2  0
  9 10  1  0
  9 11  1  0
 11 12  1  0
 12 13  1  0
 13 14  2  0
 14 15  1  0
 15 16  2  0
 16 17  1  0
 17 18  2  0
 12 19  2  0
 19 20  1  0
 19  8  1  0
 18 13  1  0
M  END
>  <zinc_id>  (1) 
ZINC000003394127

>  <smiles>  (1) 
CCN(CC)C(=O)c1c(N)sc(-c2ccccc2)c1C

$$$$
