
     RDKit          3D

 22 25  0  0  0  0  0  0  0  0999 V2000
    4.5440    1.9536    0.0857 C   0  0  0  0  0  0  0  0  0  0  0  0
    4.3370    0.5342   -0.2705 C   0  0  0  0  0  0  0  0  0  0  0  0
    5.1222   -0.2415   -1.0397 N   0  0  0  0  0  0  0  0  0  0  0  0
    4.5777   -1.4699   -1.1136 C   0  0  0  0  0  0  0  0  0  0  0  0
    3.4515   -1.4556   -0.3886 N   0  0  0  0  0  0  0  0  0  0  0  0
    3.2950   -0.2348    0.1314 C   0  0  0  0  0  0  0  0  0  0  0  0
    2.1213    0.0968    0.9956 C   0  0  0  0  0  0  0  0  0  0  0  0
    1.2175    0.9596   -0.0751 C   0  0  1  0  0  0  0  0  0  0  0  0
    1.0895   -0.2787   -1.1311 C   0  0  0  0  0  0  0  0  0  0  0  0
    0.5641   -1.4650   -0.4040 C   0  0  0  0  0  0  0  0  0  0  0  0
   -0.9006   -1.2301   -0.2927 C   0  0  0  0  0  0  0  0  0  0  0  0
   -1.8618   -2.0869   -0.7150 C   0  0  0  0  0  0  0  0  0  0  0  0
   -3.1809   -1.7231   -0.5358 C   0  0  0  0  0  0  0  0  0  0  0  0
   -3.4992   -0.5130    0.0607 C   0  0  0  0  0  0  0  0  0  0  0  0
   -4.8209   -0.1142    0.2600 C   0  0  0  0  0  0  0  0  0  0  0  0
   -5.0810    1.1118    0.8669 C   0  0  0  0  0  0  0  0  0  0  0  0
   -4.0799    1.9585    1.2844 C   0  0  0  0  0  0  0  0  0  0  0  0
   -2.7640    1.5771    1.0935 C   0  0  0  0  0  0  0  0  0  0  0  0
   -2.5430    0.3606    0.4912 C   0  0  0  0  0  0  0  0  0  0  0  0
   -1.2081   -0.0341    0.2964 C   0  0  0  0  0  0  0  0  0  0  0  0
   -0.1390    0.8065    0.7118 C   0  0  0  0  0  0  0  0  0  0  0  0
   -0.2414    1.4882    1.7641 O   0  0  0  0  0  0  0  0  0  0  0  0
  1  2  1  0
  2  3  1  0
  3  4  1  0
  4  5  2  0
  5  6  1  0
  6  7  1  0
  8  7  1  1
  8  9  1  0
  9 10  1  0
 10 11  1  0
 11 12  2  0
 12 13  1  0
 13 14  2  0
 14 15  1  0
 15 16  2  0
 16 17  1  0
 17 18  2  0
 18 19  1  0
 19 20  2  0
 20 21  1  0
 21 22  2  0
  6  2  2  0
 21  8  1  0
 20 11  1  0
 19 14  1  0
M  END
>  <zinc_id>  (1) 
ZINC000000010950

>  <smiles>  (1) 
Cc1[nH]cnc1C[C@H]1CCc2ccc3ccccc3c2C1=O

$$$$
