
     RDKit          3D

 21 23  0  0  0  0  0  0  0  0999 V2000
    7.3982    0.1344   -0.3307 C   0  0  0  0  0  0  0  0  0  0  0  0
    5.9419   -0.1530   -0.2722 C   0  0  0  0  0  0  0  0  0  0  0  0
    4.8801    0.6871   -0.6089 C   0  0  0  0  0  0  0  0  0  0  0  0
    3.7117   -0.0140   -0.3918 C   0  0  0  0  0  0  0  0  0  0  0  0
    2.3568    0.4926   -0.6171 C   0  0  0  0  0  0  0  0  0  0  0  0
    2.1915    1.6628   -1.0452 O   0  0  0  0  0  0  0  0  0  0  0  0
    1.2134   -0.2967   -0.3674 N   0  0  0  0  0  0  0  0  0  0  0  0
   -0.0588    0.2449   -0.6027 N   0  0  0  0  0  0  0  0  0  0  0  0
   -1.1332   -0.1733   -0.0801 C   0  0  0  0  0  0  0  0  0  0  0  0
   -2.4535    0.4044   -0.3372 C   0  0  0  0  0  0  0  0  0  0  0  0
   -2.7659    1.4691   -1.1628 C   0  0  0  0  0  0  0  0  0  0  0  0
   -4.1001    1.6868   -1.1210 N   0  0  0  0  0  0  0  0  0  0  0  0
   -4.6691    0.8041   -0.2993 C   0  0  0  0  0  0  0  0  0  0  0  0
   -5.9813    0.5767    0.1057 C   0  0  0  0  0  0  0  0  0  0  0  0
   -6.2963   -0.4261    0.9842 C   0  0  0  0  0  0  0  0  0  0  0  0
   -5.2923   -1.2292    1.4795 C   0  0  0  0  0  0  0  0  0  0  0  0
   -3.9973   -0.9980    1.0744 C   0  0  0  0  0  0  0  0  0  0  0  0
   -3.6613    0.0028    0.1939 C   0  0  0  0  0  0  0  0  0  0  0  0
    4.1050   -1.2439    0.0650 C   0  0  0  0  0  0  0  0  0  0  0  0
    3.1906   -2.3553    0.4382 C   0  0  0  0  0  0  0  0  0  0  0  0
    5.4200   -1.2762    0.1176 O   0  0  0  0  0  0  0  0  0  0  0  0
  1  2  1  0
  2  3  2  0
  3  4  1  0
  4  5  1  0
  5  6  2  0
  5  7  1  0
  7  8  1  0
  8  9  2  0
  9 10  1  0
 10 11  2  0
 11 12  1  0
 12 13  1  0
 13 14  2  0
 14 15  1  0
 15 16  2  0
 16 17  1  0
 17 18  2  0
  4 19  2  0
 19 20  1  0
 19 21  1  0
 21  2  1  0
 18 10  1  0
 18 13  1  0
M  END
>  <zinc_id>  (1) 
ZINC000000381509

>  <smiles>  (1) 
Cc1cc(C(=O)N/N=C/c2c[nH]c3ccccc23)c(C)o1

$$$$
