
     RDKit          3D

 22 24  0  0  0  0  0  0  0  0999 V2000
   -2.9141    2.9083   -1.8751 C   0  0  0  0  0  0  0  0  0  0  0  0
   -3.6158    1.9891   -1.0855 O   0  0  0  0  0  0  0  0  0  0  0  0
   -2.9046    0.9858   -0.4527 C   0  0  0  0  0  0  0  0  0  0  0  0
   -3.5961    0.0890    0.3187 C   0  0  0  0  0  0  0  0  0  0  0  0
   -2.9511   -0.9331    0.9757 C   0  0  0  0  0  0  0  0  0  0  0  0
   -3.7060   -1.8031    1.7370 O   0  0  0  0  0  0  0  0  0  0  0  0
   -5.0866   -1.6739    1.8554 C   0  0  0  0  0  0  0  0  0  0  0  0
   -1.5821   -1.0461    0.8472 C   0  0  0  0  0  0  0  0  0  0  0  0
   -0.8546   -0.1481    0.0694 C   0  0  0  0  0  0  0  0  0  0  0  0
    0.5679   -0.2740   -0.0578 N   0  0  0  0  0  0  0  0  0  0  0  0
    1.2056   -1.2700   -0.7293 C   0  0  0  0  0  0  0  0  0  0  0  0
    0.5398   -2.3397   -1.4081 N   0  0  0  0  0  0  0  0  0  0  0  0
    2.5653   -1.0555   -0.6318 C   0  0  0  0  0  0  0  0  0  0  0  0
    3.5725   -1.8961   -1.2134 C   0  0  0  0  0  0  0  0  0  0  0  0
    4.3817   -2.5873   -1.6696 N   0  0  0  0  0  0  0  0  0  0  0  0
    2.7269    0.0983    0.1178 C   0  0  0  0  0  0  0  0  0  0  0  0
    1.4761    0.5666    0.4635 C   0  0  0  0  0  0  0  0  0  0  0  0
    1.4107    1.8096    1.2786 C   0  0  0  0  0  0  0  0  0  0  0  0
    2.4614    2.7497    0.6802 C   0  0  0  0  0  0  0  0  0  0  0  0
    3.8406    2.2044    0.8425 C   0  0  0  0  0  0  0  0  0  0  0  0
    3.9899    0.7626    0.5126 C   0  0  0  0  0  0  0  0  0  0  0  0
   -1.5276    0.8635   -0.5755 C   0  0  0  0  0  0  0  0  0  0  0  0
  1  2  1  0
  2  3  1  0
  3  4  2  0
  4  5  1  0
  5  6  1  0
  6  7  1  0
  5  8  2  0
  8  9  1  0
  9 10  1  0
 10 11  1  0
 11 12  1  0
 11 13  2  0
 13 14  1  0
 14 15  3  0
 13 16  1  0
 16 17  2  0
 17 18  1  0
 18 19  1  0
 19 20  1  0
 20 21  1  0
  9 22  2  0
 22  3  1  0
 17 10  1  0
 21 16  1  0
M  END
>  <zinc_id>  (1) 
ZINC000001663679

>  <smiles>  (1) 
COc1cc(OC)cc(-n2c(N)c(C#N)c3c2CCCC3)c1

$$$$
