
     RDKit          3D

 21 23  0  0  0  0  0  0  0  0999 V2000
    4.6259    0.2881    0.6758 C   0  0  0  0  0  0  0  0  0  0  0  0
    3.4475   -0.4729    1.3060 C   0  0  0  0  0  0  0  0  0  0  0  0
    2.2626    0.4980    1.4500 C   0  0  0  0  0  0  0  0  0  0  0  0
    1.8904    1.0104    0.0520 C   0  0  0  0  0  0  0  0  0  0  0  0
    1.4765   -0.1497   -0.8342 C   0  0  1  0  0  0  0  0  0  0  0  0
    1.1083    0.2914   -2.2278 C   0  0  0  0  0  0  0  0  0  0  0  0
    2.5954   -0.9712   -0.9709 O   0  0  0  0  0  0  0  0  0  0  0  0
    0.3354   -0.9227   -0.2200 C   0  0  0  0  0  0  0  0  0  0  0  0
    0.6005   -2.2154    0.0778 C   0  0  0  0  0  0  0  0  0  0  0  0
   -0.2250   -3.1471    0.6385 C   0  0  0  0  0  0  0  0  0  0  0  0
    0.1852   -4.3326    0.8551 N   0  0  0  0  0  0  0  0  0  0  0  0
   -1.7710   -2.4898    0.9688 S   0  0  0  0  0  0  0  0  0  0  0  0
   -1.9285   -0.8520    0.5312 C   0  0  0  0  0  0  0  0  0  0  0  0
   -2.9315    0.0759    0.5826 N   0  0  0  0  0  0  0  0  0  0  0  0
   -2.4926    1.2353    0.0777 C   0  0  0  0  0  0  0  0  0  0  0  0
   -3.1082    2.4600   -0.0964 C   0  0  0  0  0  0  0  0  0  0  0  0
   -2.4268    3.5164   -0.6552 C   0  0  0  0  0  0  0  0  0  0  0  0
   -1.1024    3.3241   -1.0413 C   0  0  0  0  0  0  0  0  0  0  0  0
   -0.5262    2.1013   -0.8544 C   0  0  0  0  0  0  0  0  0  0  0  0
   -1.1713    1.0298   -0.3038 C   0  0  0  0  0  0  0  0  0  0  0  0
   -0.8442   -0.2773   -0.0115 N   0  0  0  0  0  0  0  0  0  0  0  0
  1  2  1  0
  2  3  1  0
  3  4  1  0
  4  5  1  0
  5  6  1  6
  5  7  1  0
  5  8  1  0
  8  9  2  0
  9 10  1  0
 10 11  2  0
 10 12  1  0
 12 13  1  0
 13 14  2  0
 14 15  1  0
 15 16  2  0
 16 17  1  0
 17 18  2  0
 18 19  1  0
 19 20  2  0
 20 21  1  0
 21  8  1  0
 21 13  1  0
 20 15  1  0
M  END
>  <zinc_id>  (1) 
ZINC000004418194

>  <smiles>  (1) 
CCCC[C@@](C)(O)c1cc(=N)sc2nc3ccccc3n12

$$$$
