
     RDKit          3D

 33 38  0  0  0  0  0  0  0  0999 V2000
    7.7097   -2.4565   -1.7913 C   0  0  0  0  0  0  0  0  0  0  0  0
    6.7770   -1.3556   -2.1839 C   0  0  0  0  0  0  0  0  0  0  0  0
    5.3360   -1.6124   -1.7502 C   0  0  0  0  0  0  0  0  0  0  0  0
    5.2575   -1.7524   -0.2362 C   0  0  0  0  0  0  0  0  0  0  0  0
    5.7689   -0.4402    0.3268 C   0  0  0  0  0  0  0  0  0  0  0  0
    4.9813    0.7486   -0.0959 C   0  0  0  0  0  0  0  0  0  0  0  0
    3.5487    0.7143    0.3074 C   0  0  0  0  0  0  0  0  0  0  0  0
    2.5328    0.4290   -0.5793 C   0  0  0  0  0  0  0  0  0  0  0  0
    1.1993    0.4097   -0.1569 C   0  0  0  0  0  0  0  0  0  0  0  0
    0.1758    0.1255   -1.0402 C   0  0  0  0  0  0  0  0  0  0  0  0
   -1.1320    0.1110   -0.6097 C   0  0  0  0  0  0  0  0  0  0  0  0
   -2.2438   -0.1871   -1.5200 C   0  0  0  0  0  0  0  0  0  0  0  0
   -3.5396   -0.2150   -1.1811 N   0  0  0  0  0  0  0  0  0  0  0  0
   -4.3039   -0.5183   -2.2428 C   0  0  0  0  0  0  0  0  0  0  0  0
   -5.6523   -0.6816   -2.4804 C   0  0  0  0  0  0  0  0  0  0  0  0
   -6.1472   -1.0040   -3.7216 C   0  0  0  0  0  0  0  0  0  0  0  0
   -5.2834   -1.1731   -4.7726 C   0  0  0  0  0  0  0  0  0  0  0  0
   -3.9389   -1.0156   -4.5583 C   0  0  0  0  0  0  0  0  0  0  0  0
   -3.4429   -0.6948   -3.3246 C   0  0  0  0  0  0  0  0  0  0  0  0
   -2.1917   -0.4803   -2.8268 N   0  0  0  0  0  0  0  0  0  0  0  0
   -1.3980    0.3873    0.7259 C   0  0  0  0  0  0  0  0  0  0  0  0
   -2.5824    0.4337    1.3790 N   0  0  0  0  0  0  0  0  0  0  0  0
   -2.3735    0.7427    2.6799 C   0  0  0  0  0  0  0  0  0  0  0  0
   -3.2166    0.9166    3.7730 C   0  0  0  0  0  0  0  0  0  0  0  0
   -2.7016    1.2357    5.0031 C   0  0  0  0  0  0  0  0  0  0  0  0
   -1.3497    1.3793    5.1347 C   0  0  0  0  0  0  0  0  0  0  0  0
   -0.5079    1.2046    4.0383 C   0  0  0  0  0  0  0  0  0  0  0  0
   -1.0060    0.8834    2.7930 C   0  0  0  0  0  0  0  0  0  0  0  0
   -0.4185    0.6663    1.6021 N   0  0  0  0  0  0  0  0  0  0  0  0
    0.8525    0.6728    1.1503 C   0  0  0  0  0  0  0  0  0  0  0  0
    1.8722    0.9587    2.0392 C   0  0  0  0  0  0  0  0  0  0  0  0
    3.1852    0.9759    1.6149 C   0  0  0  0  0  0  0  0  0  0  0  0
    4.2333    1.2643    2.5042 O   0  0  0  0  0  0  0  0  0  0  0  0
  1  2  1  0
  2  3  1  0
  3  4  1  0
  4  5  1  0
  5  6  1  0
  6  7  1  0
  7  8  2  0
  8  9  1  0
  9 10  1  0
 10 11  2  0
 11 12  1  0
 12 13  2  0
 13 14  1  0
 14 15  2  0
 15 16  1  0
 16 17  2  0
 17 18  1  0
 18 19  2  0
 19 20  1  0
 11 21  1  0
 21 22  2  0
 22 23  1  0
 23 24  2  0
 24 25  1  0
 25 26  2  0
 26 27  1  0
 27 28  2  0
 28 29  1  0
 29 30  1  0
 30 31  1  0
 31 32  2  0
 32 33  1  0
 32  7  1  0
 30  9  2  0
 20 12  1  0
 29 21  1  0
 19 14  1  0
 28 23  1  0
M  END
>  <zinc_id>  (1) 
ZINC000004417656

>  <smiles>  (1) 
CCCCCCc1cc2cc(-c3nc4ccccc4[nH]3)c3nc4ccccc4n3c2cc1O

$$$$
