
     RDKit          3D

 19 20  0  0  0  0  0  0  0  0999 V2000
    0.6039    1.8507    1.5425 C   0  0  0  0  0  0  0  0  0  0  0  0
    0.9482    0.7466    0.9551 C   0  0  0  0  0  0  0  0  0  0  0  0
    0.0143   -0.2799    0.7456 N   0  0  0  0  0  0  0  0  0  0  0  0
   -1.1849   -0.1926    0.0790 N   0  0  0  0  0  0  0  0  0  0  0  0
   -2.4508   -0.4118    0.7042 C   0  0  0  0  0  0  0  0  0  0  0  0
   -2.4816   -0.7018    1.9197 O   0  0  0  0  0  0  0  0  0  0  0  0
   -3.6949   -0.2980   -0.0654 C   0  0  0  0  0  0  0  0  0  0  0  0
   -4.9906   -0.4076    0.3872 C   0  0  0  0  0  0  0  0  0  0  0  0
   -5.8179   -0.2221   -0.6970 C   0  0  0  0  0  0  0  0  0  0  0  0
   -5.0674   -0.0108   -1.7510 O   0  0  0  0  0  0  0  0  0  0  0  0
   -3.7959   -0.0474   -1.4227 C   0  0  0  0  0  0  0  0  0  0  0  0
   -2.6098    0.1362   -2.2862 C   0  0  0  0  0  0  0  0  0  0  0  0
    2.3434    0.5948    0.5171 C   0  0  0  0  0  0  0  0  0  0  0  0
    3.4123    1.4302    0.6694 C   0  0  0  0  0  0  0  0  0  0  0  0
    4.5821    1.0587    0.1767 C   0  0  0  0  0  0  0  0  0  0  0  0
    4.6599   -0.1442   -0.4602 C   0  0  0  0  0  0  0  0  0  0  0  0
    5.8816   -0.7636   -1.0893 C   0  0  0  0  0  0  0  0  0  0  0  0
    6.5853   -1.6168   -0.0321 C   0  0  0  0  0  0  0  0  0  0  0  0
    3.0629   -0.7207   -0.3444 S   0  0  0  0  0  0  0  0  0  0  0  0
  1  2  2  0
  2  3  1  0
  3  4  1  0
  4  5  1  0
  5  6  2  0
  5  7  1  0
  7  8  1  0
  8  9  2  0
  9 10  1  0
 10 11  1  0
 11 12  1  0
  2 13  1  0
 13 14  2  0
 14 15  1  0
 15 16  2  0
 16 17  1  0
 17 18  1  0
 16 19  1  0
 11  7  2  0
 19 13  1  0
M  END
>  <zinc_id>  (1) 
ZINC000002755350

>  <smiles>  (1) 
C=C(NNC(=O)c1ccoc1C)c1ccc(CC)s1

$$$$
