
     RDKit          3D

 21 22  0  0  0  0  0  0  0  0999 V2000
   -1.6617   -3.0236   -0.4598 C   0  0  0  0  0  0  0  0  0  0  0  0
   -1.2048   -2.1718    0.7046 C   0  0  0  0  0  0  0  0  0  0  0  0
   -1.8138   -0.7909    0.6261 C   0  0  0  0  0  0  0  0  0  0  0  0
   -1.0024    0.2242    0.5451 C   0  0  0  0  0  0  0  0  0  0  0  0
    0.4629    0.1564    0.5271 C   0  0  0  0  0  0  0  0  0  0  0  0
    1.1588    0.7833   -0.5138 C   0  0  0  0  0  0  0  0  0  0  0  0
    2.5497    0.7592   -0.5644 C   0  0  0  0  0  0  0  0  0  0  0  0
    3.2603    1.3699   -1.5816 C   0  0  0  0  0  0  0  0  0  0  0  0
    4.6367    1.3605   -1.6551 C   0  0  0  0  0  0  0  0  0  0  0  0
    5.3489    0.7154   -0.6737 C   0  0  0  0  0  0  0  0  0  0  0  0
    4.6703    0.0987    0.3508 C   0  0  0  0  0  0  0  0  0  0  0  0
    3.2784    0.1162    0.4115 C   0  0  0  0  0  0  0  0  0  0  0  0
    2.5964   -0.4963    1.4310 C   0  0  0  0  0  0  0  0  0  0  0  0
    1.2231   -0.4730    1.4823 C   0  0  0  0  0  0  0  0  0  0  0  0
    0.4980   -1.1241    2.6266 C   0  0  0  0  0  0  0  0  0  0  0  0
   -3.2682   -0.7272    0.6581 C   0  0  0  0  0  0  0  0  0  0  0  0
   -3.9726   -1.7825    0.7331 O   0  0  0  0  0  0  0  0  0  0  0  0
   -3.9912    0.4756    0.6137 N   0  0  0  0  0  0  0  0  0  0  0  0
   -4.1815    1.2289   -0.3987 C   0  0  0  0  0  0  0  0  0  0  0  0
   -4.9474    2.4070   -0.2331 N   0  0  0  0  0  0  0  0  0  0  0  0
   -3.6402    0.8941   -1.6499 N   0  0  0  0  0  0  0  0  0  0  0  0
  1  2  1  0
  2  3  1  0
  3  4  2  0
  4  5  1  0
  5  6  2  0
  6  7  1  0
  7  8  2  0
  8  9  1  0
  9 10  2  0
 10 11  1  0
 11 12  2  0
 12 13  1  0
 13 14  2  0
 14 15  1  0
  3 16  1  0
 16 17  2  0
 16 18  1  0
 18 19  2  3
 19 20  1  0
 19 21  1  0
 14  5  1  0
 12  7  1  0
M  END
>  <zinc_id>  (1) 
ZINC000003952329

>  <smiles>  (1) 
CC/C(=C\c1cc2ccccc2cc1C)C(=O)N=C(N)N

$$$$
