
     RDKit          3D

 21 23  0  0  0  0  0  0  0  0999 V2000
    5.5222    1.0256    0.8080 C   0  0  0  0  0  0  0  0  0  0  0  0
    4.8241   -0.3303    0.6651 C   0  0  0  0  0  0  0  0  0  0  0  0
    3.5237   -0.0584    0.1822 O   0  0  0  0  0  0  0  0  0  0  0  0
    2.5752   -1.0200   -0.0802 C   0  0  0  0  0  0  0  0  0  0  0  0
    2.8757   -2.2134    0.1189 O   0  0  0  0  0  0  0  0  0  0  0  0
    1.2603   -0.5926   -0.5803 C   0  0  0  0  0  0  0  0  0  0  0  0
    0.8402   -0.4181   -1.8720 C   0  0  0  0  0  0  0  0  0  0  0  0
    1.7009   -0.6469   -3.0675 C   0  0  0  0  0  0  0  0  0  0  0  0
   -0.4528   -0.0156   -1.8328 N   0  0  0  0  0  0  0  0  0  0  0  0
   -1.1985    0.2572   -3.0231 C   0  0  0  0  0  0  0  0  0  0  0  0
   -0.8459    0.0640   -0.5437 C   0  0  0  0  0  0  0  0  0  0  0  0
    0.2049   -0.2917    0.2779 C   0  0  0  0  0  0  0  0  0  0  0  0
    0.1049   -0.3070    1.6660 C   0  0  0  0  0  0  0  0  0  0  0  0
   -1.0933    0.0479    2.2437 C   0  0  0  0  0  0  0  0  0  0  0  0
   -1.2750    0.0585    3.6213 O   0  0  0  0  0  0  0  0  0  0  0  0
   -2.1570    0.4075    1.4261 C   0  0  0  0  0  0  0  0  0  0  0  0
   -3.3908    0.7839    1.6942 O   0  0  0  0  0  0  0  0  0  0  0  0
   -4.0716    1.0322    0.6276 C   0  0  0  0  0  0  0  0  0  0  0  0
   -3.2423    0.8101   -0.4747 C   0  0  0  0  0  0  0  0  0  0  0  0
   -3.6554    0.9870   -1.9043 C   0  0  0  0  0  0  0  0  0  0  0  0
   -2.0495    0.4201    0.0476 C   0  0  0  0  0  0  0  0  0  0  0  0
  1  2  1  0
  2  3  1  0
  3  4  1  0
  4  5  2  0
  4  6  1  0
  6  7  2  0
  7  8  1  0
  7  9  1  0
  9 10  1  0
  9 11  1  0
 11 12  2  0
 12 13  1  0
 13 14  2  0
 14 15  1  0
 14 16  1  0
 16 17  1  0
 17 18  1  0
 18 19  2  0
 19 20  1  0
 19 21  1  0
 12  6  1  0
 21 16  2  0
 21 11  1  0
M  END
>  <zinc_id>  (1) 
ZINC000000486129

>  <smiles>  (1) 
CCOC(=O)c1c(C)n(C)c2c1cc(O)c1occ(C)c12

$$$$
