
     RDKit          3D

 21 22  0  0  0  0  0  0  0  0999 V2000
    4.9219    2.5858    1.0895 C   0  0  0  0  0  0  0  0  0  0  0  0
    4.4983    1.9388   -0.2275 C   0  0  0  0  0  0  0  0  0  0  0  0
    5.7959    1.4557   -0.8946 C   0  0  0  0  0  0  0  0  0  0  0  0
    3.7191    0.6800    0.1126 C   0  0  0  0  0  0  0  0  0  0  0  0
    3.2990    0.0425   -1.1838 C   0  0  0  0  0  0  0  0  0  0  0  0
    2.5220   -1.2260   -0.9957 C   0  0  0  0  0  0  0  0  0  0  0  0
    1.3110   -0.9899   -0.2466 N   0  0  0  0  0  0  0  0  0  0  0  0
    1.2761   -1.0804    1.1679 C   0  0  0  0  0  0  0  0  0  0  0  0
    2.3458   -1.3645    1.7936 O   0  0  0  0  0  0  0  0  0  0  0  0
    0.0754   -0.8614    1.8903 N   0  0  0  0  0  0  0  0  0  0  0  0
   -1.1663   -0.5369    1.2319 C   0  0  0  0  0  0  0  0  0  0  0  0
   -2.2047   -0.3537    1.9091 O   0  0  0  0  0  0  0  0  0  0  0  0
   -1.1678   -0.4353   -0.2148 C   0  0  0  0  0  0  0  0  0  0  0  0
   -2.1998   -0.1476   -0.9553 C   0  0  0  0  0  0  0  0  0  0  0  0
   -3.5550    0.1353   -0.5943 C   0  0  0  0  0  0  0  0  0  0  0  0
   -4.7218   -0.2959   -1.2368 C   0  0  0  0  0  0  0  0  0  0  0  0
   -5.7604    0.2533   -0.5256 C   0  0  0  0  0  0  0  0  0  0  0  0
   -5.2711    1.0024    0.5260 C   0  0  0  0  0  0  0  0  0  0  0  0
   -3.9514    0.8977    0.4381 N   0  0  0  0  0  0  0  0  0  0  0  0
    0.0958   -0.6699   -0.9118 C   0  0  0  0  0  0  0  0  0  0  0  0
    0.1381   -0.5902   -2.1724 O   0  0  0  0  0  0  0  0  0  0  0  0
  1  2  1  0
  2  3  1  0
  2  4  1  0
  4  5  1  0
  5  6  1  0
  6  7  1  0
  7  8  1  0
  8  9  2  0
  8 10  1  0
 10 11  1  0
 11 12  2  0
 11 13  1  0
 13 14  2  3
 14 15  1  0
 15 16  2  0
 16 17  1  0
 17 18  2  0
 18 19  1  0
 13 20  1  0
 20 21  2  0
 20  7  1  0
 19 15  1  0
M  END
>  <zinc_id>  (1) 
ZINC000000133881

>  <smiles>  (1) 
CC(C)CCCN1C(=O)NC(=O)C(=Cc2ccc[nH]2)C1=O

$$$$
