
     RDKit          3D

 31 34  0  0  0  0  0  0  0  0999 V2000
    6.5133    2.9880   -1.5153 C   0  0  0  0  0  0  0  0  0  0  0  0
    5.5621    3.5531   -0.4760 C   0  0  0  0  0  0  0  0  0  0  0  0
    6.0588    3.1960    0.9130 C   0  0  0  0  0  0  0  0  0  0  0  0
    6.1177    1.8039    1.0422 O   0  0  0  0  0  0  0  0  0  0  0  0
    4.9943    0.9996    0.9000 C   0  0  0  0  0  0  0  0  0  0  0  0
    3.7417    1.5513    0.6184 C   0  0  0  0  0  0  0  0  0  0  0  0
    2.6626    0.6845    0.4898 C   0  0  0  0  0  0  0  0  0  0  0  0
    2.7854   -0.6814    0.6287 C   0  0  0  0  0  0  0  0  0  0  0  0
    1.6078   -1.4888    0.4765 N   0  0  0  0  0  0  0  0  0  0  0  0
    0.3437   -0.8991    0.1896 C   0  0  0  0  0  0  0  0  0  0  0  0
    0.3334    0.3418    0.0824 O   0  0  0  0  0  0  0  0  0  0  0  0
   -0.8879   -1.7248    0.0288 C   0  0  0  0  0  0  0  0  0  0  0  0
   -2.0781   -1.0930   -0.2478 C   0  0  0  0  0  0  0  0  0  0  0  0
   -2.3275    0.3246   -0.4146 N   0  0  0  0  0  0  0  0  0  0  0  0
   -3.6793    0.6982   -0.6998 C   0  0  0  0  0  0  0  0  0  0  0  0
   -4.5586   -0.1739   -0.7907 O   0  0  0  0  0  0  0  0  0  0  0  0
   -4.0306    2.1250   -0.8865 C   0  0  0  0  0  0  0  0  0  0  0  0
   -3.0888    3.1049   -0.7920 C   0  0  0  0  0  0  0  0  0  0  0  0
   -3.4610    4.4129   -0.9727 C   0  0  0  0  0  0  0  0  0  0  0  0
   -4.7595    4.7799   -1.2483 C   0  0  0  0  0  0  0  0  0  0  0  0
   -5.6845    3.7570   -1.3360 C   0  0  0  0  0  0  0  0  0  0  0  0
   -5.3322    2.4434   -1.1586 C   0  0  0  0  0  0  0  0  0  0  0  0
   -3.1846   -2.3916   -0.3451 S   0  0  0  0  0  0  0  0  0  0  0  0
   -2.1283   -3.6787   -0.0380 C   0  0  0  0  0  0  0  0  0  0  0  0
   -0.9221   -3.0633    0.1359 C   0  0  0  0  0  0  0  0  0  0  0  0
    0.2448   -4.0014    0.4342 C   0  0  0  0  0  0  0  0  0  0  0  0
   -0.3219   -4.9687    1.4824 C   0  0  0  0  0  0  0  0  0  0  0  0
   -1.2650   -5.8832    0.7380 C   0  0  0  0  0  0  0  0  0  0  0  0
   -2.3552   -5.1450    0.0437 C   0  0  0  0  0  0  0  0  0  0  0  0
    4.0088   -1.2089    0.9028 C   0  0  0  0  0  0  0  0  0  0  0  0
    5.0907   -0.3621    1.0336 C   0  0  0  0  0  0  0  0  0  0  0  0
  1  2  1  0
  2  3  1  0
  3  4  1  0
  4  5  1  0
  5  6  2  0
  6  7  1  0
  7  8  2  0
  8  9  1  0
  9 10  1  0
 10 11  2  0
 10 12  1  0
 12 13  2  0
 13 14  1  0
 14 15  1  0
 15 16  2  0
 15 17  1  0
 17 18  2  0
 18 19  1  0
 19 20  2  0
 20 21  1  0
 21 22  2  0
 13 23  1  0
 23 24  1  0
 24 25  2  0
 25 26  1  0
 26 27  1  0
 27 28  1  0
 28 29  1  0
  8 30  1  0
 30 31  2  0
 31  5  1  0
 25 12  1  0
 22 17  1  0
 29 24  1  0
M  END
>  <zinc_id>  (1) 
ZINC000001933522

>  <smiles>  (1) 
CCCOc1ccc(NC(=O)c2c(NC(=O)c3ccccc3)sc3c2CCCC3)cc1

$$$$
