
     RDKit          3D

 20 21  0  0  0  0  0  0  0  0999 V2000
    0.7581    3.2557    0.6883 C   0  0  0  0  0  0  0  0  0  0  0  0
    0.0902    2.0362    0.4432 O   0  0  0  0  0  0  0  0  0  0  0  0
    0.8528    0.8907    0.3520 C   0  0  0  0  0  0  0  0  0  0  0  0
    2.1965    0.9443    0.4942 C   0  0  0  0  0  0  0  0  0  0  0  0
    2.9938   -0.1781    0.4099 C   0  0  0  0  0  0  0  0  0  0  0  0
    4.3922   -0.0203    0.5728 N   0  0  0  0  0  4  0  0  0  0  0  0
    4.9035    1.0806    0.7848 O   0  0  0  0  0  0  0  0  0  0  0  0
    5.2133   -1.1166    0.4947 O   0  0  0  0  0  1  0  0  0  0  0  0
    2.4003   -1.3822    0.1746 C   0  0  0  0  0  0  0  0  0  0  0  0
    1.0328   -1.4574    0.0268 C   0  0  0  0  0  0  0  0  0  0  0  0
    0.2460   -0.3315    0.1127 C   0  0  0  0  0  0  0  0  0  0  0  0
   -1.1630   -0.4263   -0.0420 N   0  0  0  0  0  0  0  0  0  0  0  0
   -1.8504   -0.9094   -1.1131 C   0  0  0  0  0  0  0  0  0  0  0  0
   -1.2496   -1.4462   -2.3626 C   0  0  0  0  0  0  0  0  0  0  0  0
   -3.2040   -0.8271   -0.8665 C   0  0  0  0  0  0  0  0  0  0  0  0
   -3.3720   -0.2820    0.3830 C   0  0  0  0  0  0  0  0  0  0  0  0
   -4.6336    0.0202    1.1267 C   0  0  0  0  0  0  0  0  0  0  0  0
   -5.7380   -0.3394    0.3552 O   0  0  0  0  0  0  0  0  0  0  0  0
   -2.0958   -0.0526    0.8502 C   0  0  0  0  0  0  0  0  0  0  0  0
   -1.7728    0.5414    2.1900 C   0  0  0  0  0  0  0  0  0  0  0  0
  1  2  1  0
  2  3  1  0
  3  4  2  0
  4  5  1  0
  5  6  1  0
  6  7  2  0
  6  8  1  0
  5  9  2  0
  9 10  1  0
 10 11  2  0
 11 12  1  0
 12 13  1  0
 13 14  1  0
 13 15  2  0
 15 16  1  0
 16 17  1  0
 17 18  1  0
 16 19  2  0
 19 20  1  0
 11  3  1  0
 19 12  1  0
M  CHG  2   6   1   8  -1
M  END
>  <zinc_id>  (1) 
ZINC000000469488

>  <smiles>  (1) 
COc1cc([N+](=O)[O-])ccc1-n1c(C)cc(CO)c1C

$$$$
