
     RDKit          3D

 31 34  0  0  0  0  0  0  0  0999 V2000
   -7.5559    3.3628    0.2392 C   0  0  0  0  0  0  0  0  0  0  0  0
   -6.2802    3.9961    0.1767 O   0  0  0  0  0  0  0  0  0  0  0  0
   -5.1509    3.1833    0.1174 C   0  0  0  0  0  0  0  0  0  0  0  0
   -5.2441    1.8087    0.1174 C   0  0  0  0  0  0  0  0  0  0  0  0
   -4.1050    1.0011    0.0572 C   0  0  0  0  0  0  0  0  0  0  0  0
   -2.8728    1.5659   -0.0030 C   0  0  0  0  0  0  0  0  0  0  0  0
   -1.6874    0.7307   -0.0682 C   0  0  0  0  0  0  0  0  0  0  0  0
   -1.7846   -0.6466   -0.0747 C   0  0  0  0  0  0  0  0  0  0  0  0
   -0.6728   -1.4218   -0.1377 C   0  0  0  0  0  0  0  0  0  0  0  0
   -0.7456   -2.8898   -0.1440 C   0  0  0  0  0  0  0  0  0  0  0  0
   -1.6555   -3.5333   -0.9494 C   0  0  0  0  0  0  0  0  0  0  0  0
   -1.7105   -4.8931   -0.9416 C   0  0  0  0  0  0  0  0  0  0  0  0
   -0.8632   -5.6120   -0.1353 C   0  0  0  0  0  0  0  0  0  0  0  0
    0.0476   -4.9967    0.6726 C   0  0  0  0  0  0  0  0  0  0  0  0
    0.0969   -3.6308    0.6589 C   0  0  0  0  0  0  0  0  0  0  0  0
    0.5880   -0.8318   -0.1970 C   0  0  0  0  0  0  0  0  0  0  0  0
    1.7362   -1.6686   -0.2701 C   0  0  0  0  0  0  0  0  0  0  0  0
    2.6420   -2.3508   -0.3436 N   0  0  0  0  0  0  0  0  0  0  0  0
    0.6718    0.5214   -0.1904 C   0  0  0  0  0  0  0  0  0  0  0  0
    2.1944    1.4250   -0.2585 S   0  0  0  0  0  0  0  0  0  0  0  0
    2.7727    1.7122    1.4267 C   0  0  0  0  0  0  0  0  0  0  0  0
    3.3655    0.4593    2.0158 C   0  0  0  0  0  0  0  0  0  0  0  0
    4.6133    0.1182    1.2929 N   0  0  0  0  0  0  0  0  0  0  0  0
    5.5470    1.1661    1.7602 C   0  0  0  0  0  0  0  0  0  0  0  0
    6.8022    1.2001    0.9399 C   0  0  0  0  0  0  0  0  0  0  0  0
    6.4440    1.5414   -0.5091 C   0  0  0  0  0  0  0  0  0  0  0  0
    5.5649    0.3759   -0.9733 C   0  0  0  0  0  0  0  0  0  0  0  0
    4.3391    0.3700   -0.1211 C   0  0  0  0  0  0  0  0  0  0  0  0
   -0.4608    1.2543   -0.1267 N   0  0  0  0  0  0  0  0  0  0  0  0
   -2.7511    2.9378   -0.0042 C   0  0  0  0  0  0  0  0  0  0  0  0
   -3.8851    3.7450    0.0556 C   0  0  0  0  0  0  0  0  0  0  0  0
  1  2  1  0
  2  3  1  0
  3  4  2  0
  4  5  1  0
  5  6  2  0
  6  7  1  0
  7  8  2  0
  8  9  1  0
  9 10  1  0
 10 11  2  0
 11 12  1  0
 12 13  2  0
 13 14  1  0
 14 15  2  0
  9 16  2  0
 16 17  1  0
 17 18  3  0
 16 19  1  0
 19 20  1  0
 20 21  1  0
 21 22  1  0
 22 23  1  0
 23 24  1  0
 24 25  1  0
 25 26  1  0
 26 27  1  0
 27 28  1  0
 19 29  2  0
  6 30  1  0
 30 31  2  0
 31  3  1  0
 29  7  1  0
 15 10  1  0
 28 23  1  0
M  END
>  <zinc_id>  (1) 
ZINC000000862953

>  <smiles>  (1) 
COc1ccc(-c2cc(-c3ccccc3)c(C#N)c(SCCN3CCCCC3)n2)cc1

$$$$
