
     RDKit          3D

 30 33  0  0  0  0  0  0  0  0999 V2000
    6.0844   -0.1695   -2.6104 C   0  0  0  0  0  0  0  0  0  0  0  0
    5.7471   -0.7943   -1.2758 C   0  0  0  0  0  0  0  0  0  0  0  0
    4.4694   -0.3956   -0.8079 O   0  0  0  0  0  0  0  0  0  0  0  0
    4.2605    0.9590   -0.6009 C   0  0  0  0  0  0  0  0  0  0  0  0
    5.2437    1.9137   -0.8331 C   0  0  0  0  0  0  0  0  0  0  0  0
    5.0195    3.2594   -0.6218 C   0  0  0  0  0  0  0  0  0  0  0  0
    3.7676    3.6197   -0.1665 C   0  0  0  0  0  0  0  0  0  0  0  0
    2.7715    2.6727    0.0709 C   0  0  0  0  0  0  0  0  0  0  0  0
    3.0180    1.3313   -0.1474 C   0  0  0  0  0  0  0  0  0  0  0  0
    2.0375    0.3259    0.0788 N   0  0  0  0  0  0  0  0  0  0  0  0
    0.7352    0.6626    0.5486 C   0  0  0  0  0  0  0  0  0  0  0  0
    0.5278    1.8856    0.7419 O   0  0  0  0  0  0  0  0  0  0  0  0
   -0.3151   -0.3580    0.7966 C   0  0  0  0  0  0  0  0  0  0  0  0
   -1.5617    0.0051    1.2505 C   0  0  0  0  0  0  0  0  0  0  0  0
   -2.0231    1.3425    1.5439 N   0  0  0  0  0  0  0  0  0  0  0  0
   -3.3575    1.5632    2.0054 C   0  0  0  0  0  0  0  0  0  0  0  0
   -4.3305    1.1226    0.9962 C   0  0  0  0  0  0  0  0  0  0  0  0
   -4.6288    2.0145   -0.0347 C   0  0  0  0  0  0  0  0  0  0  0  0
   -5.5394    1.6373   -0.9951 C   0  0  0  0  0  0  0  0  0  0  0  0
   -6.1284    0.3935   -0.9110 C   0  0  0  0  0  0  0  0  0  0  0  0
   -5.8458   -0.4706    0.0789 N   0  0  0  0  0  0  0  0  0  0  0  0
   -4.9585   -0.0956    1.0096 C   0  0  0  0  0  0  0  0  0  0  0  0
   -2.3796   -1.4888    1.3729 S   0  0  0  0  0  0  0  0  0  0  0  0
   -1.1251   -2.5277    0.8481 C   0  0  0  0  0  0  0  0  0  0  0  0
   -0.0970   -1.6568    0.5921 C   0  0  0  0  0  0  0  0  0  0  0  0
    1.0953   -2.4809    0.1044 C   0  0  0  0  0  0  0  0  0  0  0  0
    0.6108   -2.9900   -1.1978 C   0  0  0  0  0  0  0  0  0  0  0  0
   -0.5174   -4.1521   -0.9841 C   0  0  2  0  0  0  0  0  0  0  0  0
   -1.7588   -3.1837   -1.4594 C   0  0  0  0  0  0  0  0  0  0  0  0
   -0.8217   -3.9452    0.6071 C   0  0  0  0  0  0  0  0  0  0  0  0
  1  2  1  0
  2  3  1  0
  3  4  1  0
  4  5  2  0
  5  6  1  0
  6  7  2  0
  7  8  1  0
  8  9  2  0
  9 10  1  0
 10 11  1  0
 11 12  2  0
 11 13  1  0
 13 14  2  0
 14 15  1  0
 15 16  1  0
 16 17  1  0
 17 18  2  0
 18 19  1  0
 19 20  2  0
 20 21  1  0
 21 22  2  0
 14 23  1  0
 23 24  1  0
 24 25  2  0
 25 26  1  0
 26 27  1  0
 27 28  1  0
 28 29  1  6
 28 30  1  0
  9  4  1  0
 25 13  1  0
 22 17  1  0
 30 24  1  0
M  END
>  <zinc_id>  (1) 
ZINC000000920922

>  <smiles>  (1) 
CCOc1ccccc1NC(=O)c1c(NCc2cccnc2)sc2c1CC[C@H](C)C2

$$$$
