
     RDKit          3D

 32 35  0  0  0  0  0  0  0  0999 V2000
    4.0483    1.4916    0.6929 C   0  0  0  0  0  0  0  0  0  0  0  0
    3.5096    0.7682   -0.7195 C   0  0  2  0  0  0  0  0  0  0  0  0
    2.0313    1.1083   -0.4848 N   0  0  0  0  0  0  0  0  0  0  0  0
    0.9976    0.1916   -0.6027 C   0  0  0  0  0  0  0  0  0  0  0  0
    1.2906   -0.9742   -0.9144 O   0  0  0  0  0  0  0  0  0  0  0  0
   -0.4379    0.4977   -0.3803 C   0  0  0  0  0  0  0  0  0  0  0  0
   -1.4366   -0.3987   -0.3739 C   0  0  0  0  0  0  0  0  0  0  0  0
   -1.6222   -1.7466   -0.3169 N   0  0  0  0  0  0  0  0  0  0  0  0
   -1.2173   -2.9758   -0.1415 C   0  0  0  0  0  0  0  0  0  0  0  0
    0.0087   -3.1288    0.1664 O   0  0  0  0  0  0  0  0  0  0  0  0
   -1.9747   -4.2494   -0.2438 C   0  0  0  0  0  0  0  0  0  0  0  0
   -1.6185   -5.5248   -0.0203 C   0  0  0  0  0  0  0  0  0  0  0  0
   -2.7493   -6.3171   -0.2751 C   0  0  0  0  0  0  0  0  0  0  0  0
   -3.7451   -5.4165   -0.6492 C   0  0  0  0  0  0  0  0  0  0  0  0
   -3.2352   -4.2301   -0.6125 O   0  0  0  0  0  0  0  0  0  0  0  0
   -2.8794    0.6312   -0.2532 S   0  0  0  0  0  0  0  0  0  0  0  0
   -2.1061    2.1292   -0.2146 C   0  0  0  0  0  0  0  0  0  0  0  0
   -0.7934    1.8192   -0.2946 C   0  0  0  0  0  0  0  0  0  0  0  0
    0.0300    3.1139   -0.2739 C   0  0  0  0  0  0  0  0  0  0  0  0
   -0.2086    3.7112    1.0180 C   0  0  0  0  0  0  0  0  0  0  0  0
   -1.7607    4.1295    1.2556 C   0  0  1  0  0  0  0  0  0  0  0  0
   -1.5372    5.6606    0.6818 C   0  0  0  0  0  0  0  0  0  0  0  0
   -2.9081    6.2399    0.8154 C   0  0  0  0  0  0  0  0  0  0  0  0
   -0.5304    6.2565    1.6162 C   0  0  0  0  0  0  0  0  0  0  0  0
   -1.1428    5.5883   -0.7313 C   0  0  0  0  0  0  0  0  0  0  0  0
   -2.4048    3.5916   -0.1358 C   0  0  0  0  0  0  0  0  0  0  0  0
    3.5787   -0.7040   -0.1399 C   0  0  0  0  0  0  0  0  0  0  0  0
    4.2004   -1.5883   -0.9896 C   0  0  0  0  0  0  0  0  0  0  0  0
    4.3656   -2.9333   -0.6110 C   0  0  0  0  0  0  0  0  0  0  0  0
    3.8714   -3.2768    0.6293 C   0  0  0  0  0  0  0  0  0  0  0  0
    3.2524   -2.3804    1.4649 C   0  0  0  0  0  0  0  0  0  0  0  0
    3.1235   -1.0838    1.0385 C   0  0  0  0  0  0  0  0  0  0  0  0
  2  1  1  1
  2  3  1  0
  3  4  1  0
  4  5  2  0
  4  6  1  0
  6  7  2  0
  7  8  1  0
  8  9  1  0
  9 10  2  0
  9 11  1  0
 11 12  2  0
 12 13  1  0
 13 14  2  0
 14 15  1  0
  7 16  1  0
 16 17  1  0
 17 18  2  0
 18 19  1  0
 19 20  1  0
 20 21  1  0
 21 22  1  6
 22 23  1  0
 22 24  1  0
 22 25  1  0
 21 26  1  0
  2 27  1  0
 27 28  2  0
 28 29  1  0
 29 30  2  0
 30 31  1  0
 31 32  2  0
 18  6  1  0
 32 27  1  0
 15 11  1  0
 26 17  1  0
M  END
>  <zinc_id>  (1) 
ZINC000000643907

>  <smiles>  (1) 
C[C@H](NC(=O)c1c(NC(=O)c2ccco2)sc2c1CC[C@@H](C(C)(C)C)C2)c1ccccc1

$$$$
