
     RDKit          3D

 31 33  0  0  0  0  0  0  0  0999 V2000
    5.8315   -2.0144    2.7018 C   0  0  0  0  0  0  0  0  0  0  0  0
    6.9652   -1.3980    1.9271 C   0  0  0  0  0  0  0  0  0  0  0  0
    6.5481   -0.3915    0.9735 N   0  0  0  0  0  0  0  0  0  0  0  0
    7.5692    0.2763    0.1625 C   0  0  0  0  0  0  0  0  0  0  0  0
    6.9573    1.2767   -0.7577 C   0  0  0  0  0  0  0  0  0  0  0  0
    5.1831   -0.0558    0.8231 C   0  0  0  0  0  0  0  0  0  0  0  0
    4.7436    0.8921   -0.0653 C   0  0  0  0  0  0  0  0  0  0  0  0
    3.4067    1.1861   -0.1778 C   0  0  0  0  0  0  0  0  0  0  0  0
    2.4635    0.5328    0.6038 C   0  0  0  0  0  0  0  0  0  0  0  0
    1.0888    0.8436    0.4779 N   0  0  0  0  0  0  0  0  0  0  0  0
    0.6941    1.8248   -0.4416 C   0  0  0  0  0  0  0  0  0  0  0  0
    1.5018    2.4011   -1.1192 O   0  0  0  0  0  0  0  0  0  0  0  0
   -0.8706    2.1030   -0.5103 C   0  0  1  0  0  0  0  0  0  0  0  0
   -0.8983    2.6547   -2.0761 C   0  0  0  0  0  0  0  0  0  0  0  0
   -1.3773    0.6281   -0.9323 C   0  0  0  0  0  0  0  0  0  0  0  0
   -0.5486   -0.3166   -1.3074 C   0  0  0  0  0  0  0  0  0  0  0  0
   -1.0180   -1.5613   -1.6637 C   0  0  0  0  0  0  0  0  0  0  0  0
   -2.3757   -1.7928   -1.6176 C   0  0  0  0  0  0  0  0  0  0  0  0
   -3.2360   -0.7817   -1.2184 C   0  0  0  0  0  0  0  0  0  0  0  0
   -4.6869   -1.0401   -1.1747 C   0  0  0  0  0  0  0  0  0  0  0  0
   -5.1494   -1.9357   -1.9198 O   0  0  0  0  0  0  0  0  0  0  0  0
   -5.6097   -0.3185   -0.3198 C   0  0  0  0  0  0  0  0  0  0  0  0
   -6.9300   -0.2336   -0.6990 C   0  0  0  0  0  0  0  0  0  0  0  0
   -7.8290    0.4253    0.0610 C   0  0  0  0  0  0  0  0  0  0  0  0
   -7.4715    1.0369    1.2387 C   0  0  0  0  0  0  0  0  0  0  0  0
   -6.1377    0.9536    1.6258 C   0  0  0  0  0  0  0  0  0  0  0  0
   -5.2288    0.2829    0.8497 C   0  0  0  0  0  0  0  0  0  0  0  0
   -2.7384    0.4561   -0.8668 C   0  0  0  0  0  0  0  0  0  0  0  0
    2.9315   -0.4115    1.4847 C   0  0  0  0  0  0  0  0  0  0  0  0
    1.9708   -1.1408    2.3444 C   0  0  0  0  0  0  0  0  0  0  0  0
    4.2508   -0.6994    1.5932 C   0  0  0  0  0  0  0  0  0  0  0  0
  1  2  1  0
  2  3  1  0
  3  4  1  0
  4  5  1  0
  3  6  1  0
  6  7  2  0
  7  8  1  0
  8  9  2  0
  9 10  1  0
 10 11  1  0
 11 12  2  0
 11 13  1  0
 13 14  1  6
 13 15  1  0
 15 16  2  0
 16 17  1  0
 17 18  2  0
 18 19  1  0
 19 20  1  0
 20 21  2  0
 20 22  1  0
 22 23  2  0
 23 24  1  0
 24 25  2  0
 25 26  1  0
 26 27  2  0
 19 28  2  0
  9 29  1  0
 29 30  1  0
 29 31  2  0
 31  6  1  0
 28 15  1  0
 27 22  1  0
M  END
>  <zinc_id>  (1) 
ZINC000002069502

>  <smiles>  (1) 
CCN(CC)c1ccc(NC(=O)[C@@H](C)c2cccc(C(=O)c3ccccc3)c2)c(C)c1

$$$$
