
     RDKit          3D

 19 21  0  0  0  0  0  0  0  0999 V2000
   -3.5740   -2.0280    1.4241 C   0  0  0  0  0  0  0  0  0  0  0  0
   -3.0037   -0.7504    0.9121 C   0  0  0  0  0  0  0  0  0  0  0  0
   -3.3962    0.4541    1.4845 C   0  0  0  0  0  0  0  0  0  0  0  0
   -2.8615    1.6300    1.0022 C   0  0  0  0  0  0  0  0  0  0  0  0
   -1.9380    1.6105   -0.0475 C   0  0  0  0  0  0  0  0  0  0  0  0
   -1.4137    2.9126   -0.5048 C   0  0  0  0  0  0  0  0  0  0  0  0
   -1.5413    0.4212   -0.6231 C   0  0  0  0  0  0  0  0  0  0  0  0
   -0.6017    0.4532   -1.6856 N   0  0  0  0  0  0  0  0  0  0  0  0
    0.6272    0.1494   -1.4241 C   0  0  0  0  0  0  0  0  0  0  0  0
    1.7329    0.1130   -2.3205 N   0  0  0  0  0  0  0  0  0  0  0  0
    2.7835   -0.2363   -1.6683 C   0  0  0  0  0  0  0  0  0  0  0  0
    4.0946   -0.3883   -2.2113 N   0  0  0  0  0  0  0  0  0  0  0  0
    2.4637   -0.4650   -0.2660 C   0  0  0  0  0  0  0  0  0  0  0  0
    3.2250   -0.8456    0.8155 C   0  0  0  0  0  0  0  0  0  0  0  0
    2.6245   -0.9816    2.0463 C   0  0  0  0  0  0  0  0  0  0  0  0
    1.2636   -0.7354    2.1873 C   0  0  0  0  0  0  0  0  0  0  0  0
    0.4956   -0.3541    1.1092 C   0  0  0  0  0  0  0  0  0  0  0  0
    1.1148   -0.2238   -0.1129 C   0  0  0  0  0  0  0  0  0  0  0  0
   -2.0952   -0.7354   -0.1170 C   0  0  0  0  0  0  0  0  0  0  0  0
  1  2  1  0
  2  3  2  0
  3  4  1  0
  4  5  2  0
  5  6  1  0
  5  7  1  0
  7  8  1  0
  8  9  2  0
  9 10  1  0
 10 11  2  0
 11 12  1  0
 11 13  1  0
 13 14  2  0
 14 15  1  0
 15 16  2  0
 16 17  1  0
 17 18  2  0
  7 19  2  0
 19  2  1  0
 18  9  1  0
 18 13  1  0
M  END
>  <zinc_id>  (1) 
ZINC000000126802

>  <smiles>  (1) 
Cc1ccc(C)c(/N=C2/N=C(N)c3ccccc32)c1

$$$$
