
     RDKit          3D

 19 20  0  0  0  0  0  0  0  0999 V2000
   -4.4116    2.4155   -0.9023 C   0  0  0  0  0  0  0  0  0  0  0  0
   -4.2895    0.9398   -0.6614 C   0  0  0  0  0  0  0  0  0  0  0  0
   -5.1583    0.4591    0.4663 C   0  0  0  0  0  0  0  0  0  0  0  0
   -2.9623    0.5101   -0.5332 O   0  0  0  0  0  0  0  0  0  0  0  0
   -2.7317   -0.8336   -0.3081 C   0  0  0  0  0  0  0  0  0  0  0  0
   -3.6833   -1.6611   -0.2187 O   0  0  0  0  0  0  0  0  0  0  0  0
   -1.3891   -1.3782   -0.1606 C   0  0  0  0  0  0  0  0  0  0  0  0
   -1.1337   -2.7098    0.0634 C   0  0  0  0  0  0  0  0  0  0  0  0
    0.1869   -3.1463    0.1933 C   0  0  0  0  0  0  0  0  0  0  0  0
    1.2471   -2.2682    0.1016 C   0  0  0  0  0  0  0  0  0  0  0  0
    0.9963   -0.9339   -0.1226 C   0  0  0  0  0  0  0  0  0  0  0  0
    2.0711    0.0522   -0.2304 C   0  0  0  0  0  0  0  0  0  0  0  0
    1.9199    1.1603   -1.0387 C   0  0  0  0  0  0  0  0  0  0  0  0
    2.9166    2.1151   -1.1649 C   0  0  0  0  0  0  0  0  0  0  0  0
    4.1076    1.9930   -0.4814 C   0  0  0  0  0  0  0  0  0  0  0  0
    5.1269    2.9756   -0.6140 N   0  0  0  0  0  0  0  0  0  0  0  0
    4.2536    0.8834    0.3253 C   0  0  0  0  0  0  0  0  0  0  0  0
    3.2626   -0.0687    0.4526 C   0  0  0  0  0  0  0  0  0  0  0  0
   -0.3291   -0.5042   -0.2516 C   0  0  0  0  0  0  0  0  0  0  0  0
  1  2  1  0
  2  3  1  0
  2  4  1  0
  4  5  1  0
  5  6  2  0
  5  7  1  0
  7  8  2  0
  8  9  1  0
  9 10  2  0
 10 11  1  0
 11 12  1  0
 12 13  2  0
 13 14  1  0
 14 15  2  0
 15 16  1  0
 15 17  1  0
 17 18  2  0
 11 19  2  0
 19  7  1  0
 18 12  1  0
M  END
>  <zinc_id>  (1) 
ZINC000002528970

>  <smiles>  (1) 
CC(C)OC(=O)c1cccc(-c2ccc(N)cc2)c1

$$$$
