
     RDKit          3D

 18 19  0  0  0  0  0  0  0  0999 V2000
    5.9362    0.5839    0.9241 C   0  0  0  0  0  0  0  0  0  0  0  0
    4.5531   -0.0098    0.7383 C   0  0  0  0  0  0  0  0  0  0  0  0
    4.5446   -0.9740   -0.4456 C   0  0  0  0  0  0  0  0  0  0  0  0
    3.6285    1.1394    0.3397 C   0  0  0  0  0  0  0  0  0  0  0  0
    2.2495    0.6575    0.1349 C   0  0  0  0  0  0  0  0  0  0  0  0
    1.8542    0.2287   -1.1180 C   0  0  0  0  0  0  0  0  0  0  0  0
    0.5538   -0.2346   -1.3476 C   0  0  0  0  0  0  0  0  0  0  0  0
   -0.2924   -0.2418   -0.2880 C   0  0  0  0  0  0  0  0  0  0  0  0
   -1.7008   -0.7058   -0.3818 C   0  0  0  0  0  0  0  0  0  0  0  0
   -1.9699   -1.8606   -1.0522 C   0  0  0  0  0  0  0  0  0  0  0  0
   -3.6607   -2.0134   -0.9173 S   0  0  0  0  0  0  0  0  0  0  0  0
   -3.9809   -0.6093   -0.0146 C   0  0  0  0  0  0  0  0  0  0  0  0
   -5.2724   -0.1568    0.4368 N   0  0  0  0  0  0  0  0  0  0  0  0
   -2.7458   -0.0457    0.1635 C   0  0  0  0  0  0  0  0  0  0  0  0
   -2.6423    1.2061    0.9157 C   0  0  0  0  0  0  0  0  0  0  0  0
   -2.5392    2.2054    1.5143 N   0  0  0  0  0  0  0  0  0  0  0  0
    0.1016    0.1861    0.9628 C   0  0  0  0  0  0  0  0  0  0  0  0
    1.3830    0.6447    1.1975 C   0  0  0  0  0  0  0  0  0  0  0  0
  1  2  1  0
  2  3  1  0
  2  4  1  0
  4  5  1  0
  5  6  2  0
  6  7  1  0
  7  8  2  0
  8  9  1  0
  9 10  2  0
 10 11  1  0
 11 12  1  0
 12 13  1  0
 12 14  2  0
 14 15  1  0
 15 16  3  0
  8 17  1  0
 17 18  2  0
 18  5  1  0
 14  9  1  0
M  END
>  <zinc_id>  (1) 
ZINC000000034144

>  <smiles>  (1) 
CC(C)Cc1ccc(-c2csc(N)c2C#N)cc1

$$$$
