
     RDKit          3D

 21 23  0  0  0  0  0  0  0  0999 V2000
   -1.4805   -0.6071    2.5427 O   0  0  0  0  0  0  0  0  0  0  0  0
   -1.2225   -0.8321    1.3346 C   0  0  0  0  0  0  0  0  0  0  0  0
    0.3187   -1.1336    1.0325 C   0  0  2  0  0  0  0  0  0  0  0  0
    0.6748    0.4500    0.6252 C   0  0  0  0  0  0  0  0  0  0  0  0
    2.1418    0.3603    0.2804 C   0  0  0  0  0  0  0  0  0  0  0  0
    2.5671    0.1351   -0.9970 C   0  0  0  0  0  0  0  0  0  0  0  0
    3.9059    0.0470   -1.2883 C   0  0  0  0  0  0  0  0  0  0  0  0
    4.8462    0.1890   -0.2759 C   0  0  0  0  0  0  0  0  0  0  0  0
    6.2059    0.1108   -0.5080 O   0  0  0  0  0  0  0  0  0  0  0  0
    4.3974    0.4139    0.9956 C   0  0  0  0  0  0  0  0  0  0  0  0
    3.0602    0.5053    1.3075 C   0  0  0  0  0  0  0  0  0  0  0  0
    0.1117   -1.5732   -0.4615 N   0  0  0  0  0  0  0  0  0  0  0  0
   -1.1472   -1.3185   -0.8386 C   0  0  0  0  0  0  0  0  0  0  0  0
   -1.6497   -1.5215   -2.4086 S   0  0  0  0  0  0  0  0  0  0  0  0
   -1.9472   -0.8834    0.1952 N   0  0  0  0  0  0  0  0  0  0  0  0
   -3.3720   -0.5266    0.0887 C   0  0  0  0  0  0  0  0  0  0  0  0
   -3.5567    0.0767   -1.3072 C   0  0  0  0  0  0  0  0  0  0  0  0
   -4.0534    1.4999   -1.2086 C   0  0  0  0  0  0  0  0  0  0  0  0
   -3.1162    2.3750   -0.3915 C   0  0  0  0  0  0  0  0  0  0  0  0
   -2.9294    1.7405    0.9611 C   0  0  0  0  0  0  0  0  0  0  0  0
   -3.7548    0.4928    1.1473 C   0  0  0  0  0  0  0  0  0  0  0  0
  1  2  2  0
  2  3  1  0
  3  4  1  6
  4  5  1  0
  5  6  2  0
  6  7  1  0
  7  8  2  0
  8  9  1  0
  8 10  1  0
 10 11  2  0
  3 12  1  0
 12 13  1  0
 13 14  2  0
 13 15  1  0
 15 16  1  0
 16 17  1  0
 17 18  1  0
 18 19  1  0
 19 20  1  0
 20 21  1  0
 15  2  1  0
 21 16  1  0
 11  5  1  0
M  END
>  <zinc_id>  (1) 
ZINC000000509885

>  <smiles>  (1) 
O=C1[C@H](Cc2ccc(O)cc2)NC(=S)N1C1CCCCC1

$$$$
