
     RDKit          3D

 19 19  0  0  0  0  0  0  0  0999 V2000
    5.0664    1.1238   -0.7633 C   0  0  0  0  0  0  0  0  0  0  0  0
    4.8034    0.3651    0.5378 C   0  0  0  0  0  0  0  0  0  0  0  0
    4.7063    1.3803    1.6641 C   0  0  0  0  0  0  0  0  0  0  0  0
    5.9450   -0.5556    0.8497 C   0  0  0  0  0  0  0  0  0  0  0  0
    3.5087   -0.3420    0.4457 C   0  0  0  0  0  0  0  0  0  0  0  0
    3.4970   -1.5901    0.5610 O   0  0  0  0  0  0  0  0  0  0  0  0
    2.3186    0.3630    0.2342 N   0  0  0  0  0  0  0  0  0  0  0  0
    1.0392   -0.2317    0.1334 C   0  0  0  0  0  0  0  0  0  0  0  0
    0.8942   -1.8496    0.2670 S   0  0  0  0  0  0  0  0  0  0  0  0
   -0.0973    0.5811   -0.0816 N   0  0  0  0  0  0  0  0  0  0  0  0
   -1.4015   -0.0150   -0.1853 C   0  0  0  0  0  0  0  0  0  0  0  0
   -1.5305   -1.3832   -0.0731 C   0  0  0  0  0  0  0  0  0  0  0  0
   -2.8014   -1.9068   -0.1795 C   0  0  0  0  0  0  0  0  0  0  0  0
   -3.9169   -1.1081   -0.3905 C   0  0  0  0  0  0  0  0  0  0  0  0
   -3.7785    0.2593   -0.5015 C   0  0  0  0  0  0  0  0  0  0  0  0
   -4.9192    1.0980   -0.7194 N   0  0  0  0  0  4  0  0  0  0  0  0
   -6.0331    0.5874   -0.8077 O   0  0  0  0  0  0  0  0  0  0  0  0
   -4.8012    2.4609   -0.8325 O   0  0  0  0  0  1  0  0  0  0  0  0
   -2.4991    0.7630   -0.3922 C   0  0  0  0  0  0  0  0  0  0  0  0
  1  2  1  0
  2  3  1  0
  2  4  1  0
  2  5  1  0
  5  6  2  0
  5  7  1  0
  7  8  1  0
  8  9  2  0
  8 10  1  0
 10 11  1  0
 11 12  2  0
 12 13  1  0
 13 14  2  0
 14 15  1  0
 15 16  1  0
 16 17  2  0
 16 18  1  0
 15 19  2  0
 19 11  1  0
M  CHG  2  16   1  18  -1
M  END
>  <zinc_id>  (1) 
ZINC000000146196

>  <smiles>  (1) 
CC(C)(C)C(=O)NC(=S)Nc1cccc([N+](=O)[O-])c1

$$$$
