
     RDKit          3D

 18 19  0  0  0  0  0  0  0  0999 V2000
    6.8226   -0.5485    0.2828 C   0  0  0  0  0  0  0  0  0  0  0  0
    5.3797   -0.9797    0.0525 C   0  0  0  0  0  0  0  0  0  0  0  0
    4.7881    0.0097   -0.9486 C   0  0  0  0  0  0  0  0  0  0  0  0
    3.3393   -0.3293   -1.2566 C   0  0  0  0  0  0  0  0  0  0  0  0
    2.5694   -0.2711    0.0215 C   0  0  0  0  0  0  0  0  0  0  0  0
    1.1678   -0.5676   -0.0974 N   0  0  0  0  0  0  0  0  0  0  0  0
    0.6256   -1.8604   -0.4347 C   0  0  0  0  0  0  0  0  0  0  0  0
   -0.8310   -1.6586   -0.3065 C   0  0  0  0  0  0  0  0  0  0  0  0
   -1.7570   -2.5272   -0.4320 O   0  0  0  0  0  0  0  0  0  0  0  0
   -1.0614   -0.2567   -0.0018 C   0  0  0  0  0  0  0  0  0  0  0  0
   -2.3442    0.4470    0.1640 C   0  0  0  0  0  0  0  0  0  0  0  0
   -2.5540    1.6960   -0.3882 C   0  0  0  0  0  0  0  0  0  0  0  0
   -3.7589    2.3910   -0.2235 C   0  0  0  0  0  0  0  0  0  0  0  0
   -4.7815    1.8372    0.5055 C   0  0  0  0  0  0  0  0  0  0  0  0
   -4.6006    0.5956    1.0663 C   0  0  0  0  0  0  0  0  0  0  0  0
   -3.3860   -0.0885    0.8906 C   0  0  0  0  0  0  0  0  0  0  0  0
    0.1060    0.3569    0.1143 C   0  0  0  0  0  0  0  0  0  0  0  0
    0.2762    1.7542    0.4218 N   0  0  0  0  0  0  0  0  0  0  0  0
  1  2  1  0
  2  3  1  0
  3  4  1  0
  4  5  1  0
  5  6  1  0
  6  7  1  0
  7  8  1  0
  8  9  2  0
  8 10  1  0
 10 11  1  0
 11 12  2  0
 12 13  1  0
 13 14  2  0
 14 15  1  0
 15 16  2  0
 10 17  2  0
 17 18  1  0
 17  6  1  0
 16 11  1  0
M  END
>  <zinc_id>  (1) 
ZINC000003213384

>  <smiles>  (1) 
CCCCCN1CC(=O)C(c2ccccc2)=C1N

$$$$
