
     RDKit          3D

 32 36  0  0  0  0  0  0  0  0999 V2000
   -0.3736    0.4216    1.6476 O   0  0  0  0  0  0  0  0  0  0  0  0
   -0.0052    0.8377    0.1978 C   0  0  2  0  0  0  0  0  0  0  0  0
   -0.3557   -0.6840   -0.3586 C   0  0  0  0  0  0  0  0  0  0  0  0
   -1.8166   -0.8848   -0.0083 C   0  0  0  0  0  0  0  0  0  0  0  0
   -2.7262    0.0753   -0.6094 C   0  0  0  0  0  0  0  0  0  0  0  0
   -2.5578    1.5004   -0.3097 C   0  0  0  0  0  0  0  0  0  0  0  0
   -3.6584    2.3264   -0.9143 C   0  0  0  0  0  0  0  0  0  0  0  0
   -4.9027    1.6373   -1.0162 N   0  0  0  0  0  0  0  0  0  0  0  0
   -5.5433    1.4109    0.2579 C   0  0  0  0  0  0  0  0  0  0  0  0
   -6.8201    0.7031    0.1471 C   0  0  0  0  0  0  0  0  0  0  0  0
   -7.5169    0.4348    1.3072 C   0  0  0  0  0  0  0  0  0  0  0  0
   -8.7097   -0.2202    1.2671 C   0  0  0  0  0  0  0  0  0  0  0  0
   -9.2379   -0.6243    0.0695 C   0  0  0  0  0  0  0  0  0  0  0  0
   -8.5667   -0.3702   -1.0926 C   0  0  0  0  0  0  0  0  0  0  0  0
   -7.3610    0.2929   -1.0427 C   0  0  0  0  0  0  0  0  0  0  0  0
   -4.8711    0.4636   -1.8460 C   0  0  0  0  0  0  0  0  0  0  0  0
   -3.5965   -0.3260   -1.7001 C   0  0  0  0  0  0  0  0  0  0  0  0
    1.5787    0.5422    0.3498 C   0  0  0  0  0  0  0  0  0  0  0  0
    2.1856   -0.0656   -0.7123 C   0  0  0  0  0  0  0  0  0  0  0  0
    3.5491   -0.3231   -0.6055 C   0  0  0  0  0  0  0  0  0  0  0  0
    4.2211    0.0401    0.5506 C   0  0  0  0  0  0  0  0  0  0  0  0
    3.5649    0.6498    1.5930 C   0  0  0  0  0  0  0  0  0  0  0  0
    2.2184    0.8881    1.4511 C   0  0  0  0  0  0  0  0  0  0  0  0
    4.5223    0.9382    2.7296 C   0  0  0  0  0  0  0  0  0  0  0  0
    5.8467    0.7506    2.0834 C   0  0  0  0  0  0  0  0  0  0  0  0
    5.6038   -0.0992    0.9284 N   0  0  0  0  0  0  0  0  0  0  0  0
    6.5553   -0.9206    0.2850 C   0  0  0  0  0  0  0  0  0  0  0  0
    6.2662   -1.7066   -0.8089 C   0  0  0  0  0  0  0  0  0  0  0  0
    7.2863   -2.4837   -1.3698 C   0  0  0  0  0  0  0  0  0  0  0  0
    8.5367   -2.5006   -0.8923 N   0  0  0  0  0  0  0  0  0  0  0  0
    8.8317   -1.7399    0.1724 C   0  0  0  0  0  0  0  0  0  0  0  0
    7.8522   -0.9644    0.7475 C   0  0  0  0  0  0  0  0  0  0  0  0
  2  1  1  1
  2  3  1  0
  3  4  1  0
  4  5  1  0
  5  6  1  0
  6  7  1  0
  7  8  1  0
  8  9  1  0
  9 10  1  0
 10 11  2  0
 11 12  1  0
 12 13  2  0
 13 14  1  0
 14 15  2  0
  8 16  1  0
 16 17  1  0
  2 18  1  0
 18 19  2  0
 19 20  1  0
 20 21  2  0
 21 22  1  0
 22 23  2  0
 22 24  1  0
 24 25  1  0
 25 26  1  0
 26 27  1  0
 27 28  2  0
 28 29  1  0
 29 30  2  0
 30 31  1  0
 31 32  2  0
 17  5  1  0
 23 18  1  0
 32 27  1  0
 15 10  1  0
 26 21  1  0
M  END
>  <zinc_id>  (1) 
ZINC000000588552

>  <smiles>  (1) 
O[C@H](CCC1CCN(Cc2ccccc2)CC1)c1ccc2c(c1)CCN2c1ccncc1

$$$$
