
     RDKit          3D

 19 20  0  0  0  0  0  0  0  0999 V2000
   -1.8719    0.8592    1.1708 O   0  0  0  0  0  0  0  0  0  0  0  0
   -1.8230   -0.3666    0.8918 C   0  0  0  0  0  0  0  0  0  0  0  0
   -0.5646   -0.8722    0.4667 N   0  0  0  0  0  0  0  0  0  0  0  0
    0.5931   -0.0555    0.3544 C   0  0  0  0  0  0  0  0  0  0  0  0
    0.6364    1.2871    0.6324 C   0  0  0  0  0  0  0  0  0  0  0  0
    1.8193    2.0071    0.4928 C   0  0  0  0  0  0  0  0  0  0  0  0
    2.9862    1.4043    0.0726 C   0  0  0  0  0  0  0  0  0  0  0  0
    4.4860    2.3182   -0.1041 Cl  0  0  0  0  0  0  0  0  0  0  0  0
    2.9397    0.0554   -0.2060 C   0  0  0  0  0  0  0  0  0  0  0  0
    4.1270   -0.5904   -0.6390 N   0  0  0  0  0  4  0  0  0  0  0  0
    4.3472   -1.7996   -0.4471 O   0  0  0  0  0  0  0  0  0  0  0  0
    5.0671    0.1611   -1.2974 O   0  0  0  0  0  1  0  0  0  0  0  0
    1.7602   -0.6577   -0.0657 C   0  0  0  0  0  0  0  0  0  0  0  0
   -3.0215   -1.2664    0.9958 C   0  0  0  0  0  0  0  0  0  0  0  0
   -4.1805   -0.3840    1.4781 C   0  0  0  0  0  0  0  0  0  0  0  0
   -4.2374    0.7723    0.4700 C   0  0  0  0  0  0  0  0  0  0  0  0
   -4.8698    0.1830   -0.7829 C   0  0  0  0  0  0  0  0  0  0  0  0
   -4.8016   -1.3391   -0.7737 C   0  0  0  0  0  0  0  0  0  0  0  0
   -3.3919   -1.7163   -0.3978 C   0  0  0  0  0  0  0  0  0  0  0  0
  1  2  2  0
  2  3  1  0
  3  4  1  0
  4  5  2  0
  5  6  1  0
  6  7  2  0
  7  8  1  0
  7  9  1  0
  9 10  1  0
 10 11  2  0
 10 12  1  0
  9 13  2  0
  2 14  1  0
 14 15  1  0
 15 16  1  0
 16 17  1  0
 17 18  1  0
 18 19  1  0
 13  4  1  0
 19 14  1  0
M  CHG  2  10   1  12  -1
M  END
>  <zinc_id>  (1) 
ZINC000000477411

>  <smiles>  (1) 
O=C(Nc1ccc(Cl)c([N+](=O)[O-])c1)C1CCCCC1

$$$$
