
     RDKit          3D

 20 21  0  0  0  0  0  0  0  0999 V2000
    4.9924   -1.1201    1.6708 C   0  0  0  0  0  0  0  0  0  0  0  0
    4.4993   -1.0131    0.2205 C   0  0  0  0  0  0  0  0  0  0  0  0
    3.1677   -0.6244    0.2774 O   0  0  0  0  0  0  0  0  0  0  0  0
    2.3163   -0.4033   -0.7795 C   0  0  0  0  0  0  0  0  0  0  0  0
    2.8524   -0.5881   -1.9276 O   0  0  0  0  0  0  0  0  0  0  0  0
    0.9424    0.0006   -0.7160 C   0  0  0  0  0  0  0  0  0  0  0  0
    0.2585    0.1909   -1.7735 C   0  0  0  0  0  0  0  0  0  0  0  0
    0.8741   -0.0089   -3.0498 N   0  0  0  0  0  0  0  0  0  0  0  0
   -1.0662    0.5923   -1.8001 O   0  0  0  0  0  0  0  0  0  0  0  0
   -1.7048    0.8074   -0.6206 C   0  0  0  0  0  0  0  0  0  0  0  0
   -3.0522    1.2221   -0.6972 C   0  0  0  0  0  0  0  0  0  0  0  0
   -3.7286    1.4543    0.4693 C   0  0  0  0  0  0  0  0  0  0  0  0
   -5.0761    1.8704    0.4642 O   0  0  0  0  0  0  0  0  0  0  0  0
   -3.1176    1.2899    1.6839 C   0  0  0  0  0  0  0  0  0  0  0  0
   -1.7719    0.8743    1.7169 C   0  0  0  0  0  0  0  0  0  0  0  0
   -1.0850    0.6380    0.5447 C   0  0  0  0  0  0  0  0  0  0  0  0
    0.3722    0.1484    0.7291 C   0  0  1  0  0  0  0  0  0  0  0  0
   -0.0805   -1.4535    0.8567 C   0  0  0  0  0  0  0  0  0  0  0  0
   -0.6787   -1.5968    2.2053 C   0  0  0  0  0  0  0  0  0  0  0  0
    1.0863   -2.2804    0.5253 C   0  0  0  0  0  0  0  0  0  0  0  0
  1  2  1  0
  2  3  1  0
  3  4  1  0
  4  5  2  0
  4  6  1  0
  6  7  2  0
  7  8  1  0
  7  9  1  0
  9 10  1  0
 10 11  2  0
 11 12  1  0
 12 13  1  0
 12 14  2  0
 14 15  1  0
 15 16  2  0
 16 17  1  0
 17 18  1  6
 18 19  1  0
 18 20  1  0
 17  6  1  0
 16 10  1  0
M  END
>  <zinc_id>  (1) 
ZINC000000033767

>  <smiles>  (1) 
CCOC(=O)C1=C(N)Oc2cc(O)ccc2[C@H]1C(C)C

$$$$
