
     RDKit          3D

 19 20  0  0  0  0  0  0  0  0999 V2000
   -3.8291    1.7583   -2.1233 C   0  0  0  0  0  0  0  0  0  0  0  0
   -4.3476    1.1876   -0.8432 C   0  0  0  0  0  0  0  0  0  0  0  0
   -3.3319    0.4047   -0.2236 O   0  0  0  0  0  0  0  0  0  0  0  0
   -3.5352   -0.2447    0.9786 C   0  0  0  0  0  0  0  0  0  0  0  0
   -4.6524   -0.1353    1.5340 O   0  0  0  0  0  0  0  0  0  0  0  0
   -2.4742   -1.0442    1.5955 C   0  0  0  0  0  0  0  0  0  0  0  0
   -1.2558   -1.0629    0.8244 N   0  0  0  0  0  0  0  0  0  0  0  0
   -0.2453   -0.2238    0.9162 N   0  0  0  0  0  0  0  0  0  0  0  0
    0.7175   -0.5514    0.0392 C   0  0  0  0  0  0  0  0  0  0  0  0
    1.9986    0.1094   -0.1892 C   0  0  0  0  0  0  0  0  0  0  0  0
    2.8704   -0.3725   -1.1420 C   0  0  0  0  0  0  0  0  0  0  0  0
    4.0955    0.2530   -1.3659 C   0  0  0  0  0  0  0  0  0  0  0  0
    4.4785    1.3675   -0.6492 C   0  0  0  0  0  0  0  0  0  0  0  0
    6.0117    2.1746   -0.9086 Cl  0  0  0  0  0  0  0  0  0  0  0  0
    3.6028    1.8512    0.3075 C   0  0  0  0  0  0  0  0  0  0  0  0
    2.3926    1.2238    0.5205 C   0  0  0  0  0  0  0  0  0  0  0  0
    0.2641   -1.6637   -0.6318 C   0  0  0  0  0  0  0  0  0  0  0  0
   -0.9699   -1.9638   -0.1238 C   0  0  0  0  0  0  0  0  0  0  0  0
   -1.7904   -3.0679   -0.5603 N   0  0  0  0  0  0  0  0  0  0  0  0
  1  2  1  0
  2  3  1  0
  3  4  1  0
  4  5  2  0
  4  6  1  0
  6  7  1  0
  7  8  1  0
  8  9  2  0
  9 10  1  0
 10 11  2  0
 11 12  1  0
 12 13  2  0
 13 14  1  0
 13 15  1  0
 15 16  2  0
  9 17  1  0
 17 18  2  0
 18 19  1  0
 18  7  1  0
 16 10  1  0
M  END
>  <zinc_id>  (1) 
ZINC000000868864

>  <smiles>  (1) 
CCOC(=O)Cn1nc(-c2ccc(Cl)cc2)cc1N

$$$$
