
     RDKit          3D

 22 24  0  0  0  0  0  0  0  0999 V2000
   -0.0765    1.0899    1.5649 O   0  0  0  0  0  0  0  0  0  0  0  0
   -0.3735    0.8088    0.3925 C   0  0  0  0  0  0  0  0  0  0  0  0
   -1.4664    1.2598   -0.3061 N   0  0  0  0  0  0  0  0  0  0  0  0
   -1.6424    0.3227   -1.3966 C   0  0  0  0  0  0  0  0  0  0  0  0
   -2.2588   -1.0175   -1.0328 C   0  0  0  0  0  0  0  0  0  0  0  0
   -2.6530   -1.1119    0.3796 C   0  0  0  0  0  0  0  0  0  0  0  0
   -4.1844   -1.0771    0.3987 C   0  0  0  0  0  0  0  0  0  0  0  0
   -4.6827    0.3348    0.3249 C   0  0  0  0  0  0  0  0  0  0  0  0
   -3.7914    1.2563   -0.4797 C   0  0  0  0  0  0  0  0  0  0  0  0
   -3.8720    1.0489   -1.9611 C   0  0  0  0  0  0  0  0  0  0  0  0
   -2.4191    0.9731   -2.4967 C   0  0  0  0  0  0  0  0  0  0  0  0
   -0.2225   -0.0533   -1.7070 C   0  0  0  0  0  0  0  0  0  0  0  0
    0.2240   -0.2945   -2.8118 O   0  0  0  0  0  0  0  0  0  0  0  0
    0.4550   -0.0959   -0.5011 N   0  0  0  0  0  0  0  0  0  0  0  0
    1.4413   -0.7482    0.2353 C   0  0  0  0  0  0  0  0  0  0  0  0
    2.7309   -0.2078    0.5717 C   0  0  0  0  0  0  0  0  0  0  0  0
    3.6895    0.2144   -0.1943 C   0  0  0  0  0  0  0  0  0  0  0  0
    4.9499    0.6773    0.2221 C   0  0  0  0  0  0  0  0  0  0  0  0
    5.1201    0.6385    1.6057 C   0  0  0  0  0  0  0  0  0  0  0  0
    4.1350    0.1956    2.4446 C   0  0  0  0  0  0  0  0  0  0  0  0
    2.9350   -0.2158    1.9935 C   0  0  0  0  0  0  0  0  0  0  0  0
    1.9620   -0.6925    2.7536 F   0  0  0  0  0  0  0  0  0  0  0  0
  1  2  2  0
  2  3  1  0
  3  4  1  0
  4  5  1  0
  5  6  1  0
  6  7  1  0
  7  8  1  0
  8  9  1  0
  9 10  1  0
 10 11  1  0
  4 12  1  0
 12 13  2  0
 12 14  1  0
 14 15  1  0
 15 16  1  0
 16 17  2  0
 17 18  1  0
 18 19  2  0
 19 20  1  0
 20 21  2  0
 21 22  1  0
 14  2  1  0
 21 16  1  0
 11  4  1  0
M  END
>  <zinc_id>  (1) 
ZINC000003463306

>  <smiles>  (1) 
O=C1NC2(CCCCCCC2)C(=O)N1Cc1ccccc1F

$$$$
