
     RDKit          3D

 20 21  0  0  0  0  0  0  0  0999 V2000
    5.9072    0.7534   -0.2703 C   0  0  0  0  0  0  0  0  0  0  0  0
    4.6513   -0.0387    0.0856 C   0  0  0  0  0  0  0  0  0  0  0  0
    4.7700   -1.1390    0.6209 O   0  0  0  0  0  0  0  0  0  0  0  0
    3.4619    0.4641   -0.1840 N   0  0  0  0  0  0  0  0  0  0  0  0
    2.1073    0.3676   -0.1670 C   0  0  0  0  0  0  0  0  0  0  0  0
    1.2447    1.7352   -0.8481 S   0  0  0  0  0  0  0  0  0  0  0  0
   -0.3488    1.2088   -0.6282 C   0  0  0  0  0  0  0  0  0  0  0  0
   -1.6135    1.9273   -1.0036 C   0  0  0  0  0  0  0  0  0  0  0  0
   -2.7740    1.1435   -0.6390 C   0  0  0  0  0  0  0  0  0  0  0  0
   -3.3303    1.3136    0.6114 C   0  0  0  0  0  0  0  0  0  0  0  0
   -4.4465    0.6038    0.9973 C   0  0  0  0  0  0  0  0  0  0  0  0
   -5.0584   -0.3035    0.1629 C   0  0  0  0  0  0  0  0  0  0  0  0
   -4.5067   -0.4783   -1.0893 C   0  0  0  0  0  0  0  0  0  0  0  0
   -3.3910    0.2304   -1.4767 C   0  0  0  0  0  0  0  0  0  0  0  0
   -0.1872   -0.0047   -0.0372 C   0  0  0  0  0  0  0  0  0  0  0  0
   -1.4459   -0.8135    0.3264 C   0  0  0  0  0  0  0  0  0  0  0  0
    1.0842   -0.4394    0.2012 C   0  0  0  0  0  0  0  0  0  0  0  0
    1.2839   -1.7582    0.8440 C   0  0  0  0  0  0  0  0  0  0  0  0
    0.1924   -2.5884    1.2220 N   0  0  0  0  0  0  0  0  0  0  0  0
    2.3995   -2.1839    1.0747 O   0  0  0  0  0  0  0  0  0  0  0  0
  1  2  1  0
  2  3  2  0
  2  4  1  0
  4  5  1  0
  5  6  1  0
  6  7  1  0
  7  8  1  0
  8  9  1  0
  9 10  2  0
 10 11  1  0
 11 12  2  0
 12 13  1  0
 13 14  2  0
  7 15  2  0
 15 16  1  0
 15 17  1  0
 17 18  1  0
 18 19  1  0
 18 20  2  0
 17  5  2  0
 14  9  1  0
M  END
>  <zinc_id>  (1) 
ZINC000000125584

>  <smiles>  (1) 
CC(=O)Nc1sc(Cc2ccccc2)c(C)c1C(N)=O

$$$$
