
     RDKit          3D

 21 22  0  0  0  0  0  0  0  0999 V2000
    6.7642    2.6892   -1.4428 C   0  0  0  0  0  0  0  0  0  0  0  0
    5.7737    1.7046   -0.8692 C   0  0  0  0  0  0  0  0  0  0  0  0
    4.4706    2.1089   -1.1911 O   0  0  0  0  0  0  0  0  0  0  0  0
    3.3393    1.3897   -0.7927 C   0  0  0  0  0  0  0  0  0  0  0  0
    2.0646    1.7989   -1.1162 C   0  0  0  0  0  0  0  0  0  0  0  0
    0.9745    1.0607   -0.7037 C   0  0  0  0  0  0  0  0  0  0  0  0
    1.0899   -0.0986    0.0365 C   0  0  0  0  0  0  0  0  0  0  0  0
   -0.0359   -0.8539    0.4580 N   0  0  0  0  0  0  0  0  0  0  0  0
   -1.3655   -0.5124    0.1743 C   0  0  0  0  0  0  0  0  0  0  0  0
   -1.7078    0.5748   -0.5320 N   0  0  0  0  0  0  0  0  0  0  0  0
   -2.9763    0.9182   -0.8140 C   0  0  0  0  0  0  0  0  0  0  0  0
   -3.2572    2.1650   -1.6183 C   0  0  0  0  0  0  0  0  0  0  0  0
   -4.0102    0.1336   -0.3692 C   0  0  0  0  0  0  0  0  0  0  0  0
   -3.7254   -0.9934    0.3594 C   0  0  0  0  0  0  0  0  0  0  0  0
   -4.7861   -1.8997    0.8799 C   0  0  0  0  0  0  0  0  0  0  0  0
   -2.3928   -1.3057    0.6249 C   0  0  0  0  0  0  0  0  0  0  0  0
   -2.0599   -2.4826    1.3875 C   0  0  0  0  0  0  0  0  0  0  0  0
   -3.1010   -3.3185    1.8645 N   0  0  0  0  0  0  0  0  0  0  0  0
   -0.8924   -2.8087    1.6533 O   0  0  0  0  0  0  0  0  0  0  0  0
    2.3695   -0.5014    0.3562 C   0  0  0  0  0  0  0  0  0  0  0  0
    3.4641    0.2315   -0.0527 C   0  0  0  0  0  0  0  0  0  0  0  0
  1  2  1  0
  2  3  1  0
  3  4  1  0
  4  5  2  0
  5  6  1  0
  6  7  2  0
  7  8  1  0
  8  9  1  0
  9 10  2  0
 10 11  1  0
 11 12  1  0
 11 13  2  0
 13 14  1  0
 14 15  1  0
 14 16  2  0
 16 17  1  0
 17 18  1  0
 17 19  2  0
  7 20  1  0
 20 21  2  0
 21  4  1  0
 16  9  1  0
M  END
>  <zinc_id>  (1) 
ZINC000000238763

>  <smiles>  (1) 
CCOc1ccc(Nc2nc(C)cc(C)c2C(N)=O)cc1

$$$$
