
     RDKit          3D

 22 24  0  0  0  0  0  0  0  0999 V2000
    2.2565    2.0270    4.4565 C   0  0  0  0  0  0  0  0  0  0  0  0
    2.7240    0.6958    4.3565 O   0  0  0  0  0  0  0  0  0  0  0  0
    2.3161   -0.1256    3.3131 C   0  0  0  0  0  0  0  0  0  0  0  0
    1.4408    0.3145    2.3299 C   0  0  0  0  0  0  0  0  0  0  0  0
    1.0425   -0.5070    1.2999 C   0  0  0  0  0  0  0  0  0  0  0  0
    0.1115    0.0186    0.2870 C   0  0  0  0  0  0  0  0  0  0  0  0
   -0.3448    1.3158    0.3834 C   0  0  0  0  0  0  0  0  0  0  0  0
   -1.2152    1.8172   -0.5577 C   0  0  0  0  0  0  0  0  0  0  0  0
   -1.6721    2.9864   -0.5352 O   0  0  0  0  0  0  0  0  0  0  0  0
   -1.6079    0.9810   -1.5882 C   0  0  0  0  0  0  0  0  0  0  0  0
   -2.4772    1.4389   -2.5527 C   0  0  0  0  0  0  0  0  0  0  0  0
   -2.8890    0.6316   -3.5936 C   0  0  0  0  0  0  0  0  0  0  0  0
   -3.8342    1.1257   -4.6443 C   0  0  0  0  0  0  0  0  0  0  0  0
   -2.3901   -0.6569   -3.6250 C   0  0  0  0  0  0  0  0  0  0  0  0
   -1.5254   -1.1329   -2.6773 C   0  0  0  0  0  0  0  0  0  0  0  0
   -0.9742   -2.5126   -2.6870 C   0  0  0  0  0  0  0  0  0  0  0  0
   -1.1132   -0.3156   -1.6302 C   0  0  0  0  0  0  0  0  0  0  0  0
   -0.2872   -0.7471   -0.7116 O   0  0  0  0  0  0  0  0  0  0  0  0
    1.5422   -1.7892    1.2733 C   0  0  0  0  0  0  0  0  0  0  0  0
    2.4157   -2.2475    2.2435 C   0  0  0  0  0  0  0  0  0  0  0  0
    2.7964   -1.4024    3.2621 C   0  0  0  0  0  0  0  0  0  0  0  0
    3.6848   -1.9157    4.2219 O   0  0  0  0  0  0  0  0  0  0  0  0
  1  2  1  0
  2  3  1  0
  3  4  2  0
  4  5  1  0
  5  6  1  0
  6  7  2  0
  7  8  1  0
  8  9  2  0
  8 10  1  0
 10 11  2  0
 11 12  1  0
 12 13  1  0
 12 14  2  0
 14 15  1  0
 15 16  1  0
 15 17  2  0
 17 18  1  0
  5 19  2  0
 19 20  1  0
 20 21  2  0
 21 22  1  0
 21  3  1  0
 18  6  1  0
 17 10  1  0
M  END
>  <zinc_id>  (1) 
ZINC000000150939

>  <smiles>  (1) 
COc1cc(-c2cc(=O)c3cc(C)cc(C)c3o2)ccc1O

$$$$
