
     RDKit          3D

 33 37  0  0  0  0  0  0  0  0999 V2000
   -3.9075    4.6465    1.9710 O   0  0  0  0  0  0  0  0  0  0  0  0
   -3.4382    3.4433    1.4295 C   0  0  0  0  0  0  0  0  0  0  0  0
   -3.1253    3.3407    0.0912 C   0  0  0  0  0  0  0  0  0  0  0  0
   -2.6619    2.1817   -0.4864 C   0  0  0  0  0  0  0  0  0  0  0  0
   -2.4990    1.0472    0.3252 C   0  0  0  0  0  0  0  0  0  0  0  0
   -2.8126    1.1500    1.6683 C   0  0  0  0  0  0  0  0  0  0  0  0
   -3.2646    2.3096    2.1899 C   0  0  0  0  0  0  0  0  0  0  0  0
   -2.6056   -0.1011    2.4522 C   0  0  0  0  0  0  0  0  0  0  0  0
   -1.7004   -1.0562    1.8435 C   0  0  0  0  0  0  0  0  0  0  0  0
   -2.2577   -1.5067    0.3626 C   0  0  1  0  0  0  0  0  0  0  0  0
   -3.8017   -1.4063    0.6498 C   0  0  0  0  0  0  0  0  0  0  0  0
   -4.3054   -1.8013    1.8366 C   0  0  0  0  0  0  0  0  0  0  0  0
   -5.6511   -1.7233    2.1107 C   0  0  0  0  0  0  0  0  0  0  0  0
   -6.4959   -1.2306    1.1481 C   0  0  0  0  0  0  0  0  0  0  0  0
   -6.0140   -0.8171   -0.0791 C   0  0  0  0  0  0  0  0  0  0  0  0
   -4.6258   -0.9194   -0.3050 C   0  0  0  0  0  0  0  0  0  0  0  0
   -2.0368   -0.0997   -0.2762 N   0  0  0  0  0  0  0  0  0  0  0  0
   -1.3201   -0.0603   -1.5303 C   0  0  0  0  0  0  0  0  0  0  0  0
    0.0472   -0.6160   -1.4232 C   0  0  0  0  0  0  0  0  0  0  0  0
    0.1953   -1.8713   -0.8735 C   0  0  0  0  0  0  0  0  0  0  0  0
    1.4252   -2.4589   -0.7358 C   0  0  0  0  0  0  0  0  0  0  0  0
    2.5463   -1.7965   -1.1497 C   0  0  0  0  0  0  0  0  0  0  0  0
    3.7916   -2.3926   -1.0092 O   0  0  0  0  0  0  0  0  0  0  0  0
    4.9523   -1.7210   -1.4329 C   0  0  0  0  0  0  0  0  0  0  0  0
    5.0855   -0.3994   -0.6694 C   0  0  0  0  0  0  0  0  0  0  0  0
    6.2659    0.2707   -1.1045 N   0  0  0  0  0  0  0  0  0  0  0  0
    7.4577   -0.4075   -0.7046 C   0  0  0  0  0  0  0  0  0  0  0  0
    7.8512    0.0225    0.7136 C   0  0  0  0  0  0  0  0  0  0  0  0
    6.6856    0.7545    1.3531 C   0  0  0  0  0  0  0  0  0  0  0  0
    6.3587    2.0371    0.5937 C   0  0  0  0  0  0  0  0  0  0  0  0
    6.2393    1.6796   -0.8573 C   0  0  0  0  0  0  0  0  0  0  0  0
    2.4286   -0.5473   -1.6999 C   0  0  0  0  0  0  0  0  0  0  0  0
    1.1932    0.0490   -1.8407 C   0  0  0  0  0  0  0  0  0  0  0  0
  1  2  1  0
  2  3  2  0
  3  4  1  0
  4  5  2  0
  5  6  1  0
  6  7  2  0
  6  8  1  0
  8  9  1  0
  9 10  1  0
 10 11  1  1
 11 12  2  0
 12 13  1  0
 13 14  2  0
 14 15  1  0
 15 16  2  0
 10 17  1  0
 17 18  1  0
 18 19  1  0
 19 20  2  0
 20 21  1  0
 21 22  2  0
 22 23  1  0
 23 24  1  0
 24 25  1  0
 25 26  1  0
 26 27  1  0
 27 28  1  0
 28 29  1  0
 29 30  1  0
 30 31  1  0
 22 32  1  0
 32 33  2  0
  7  2  1  0
 16 11  1  0
 33 19  1  0
 17  5  1  0
 31 26  1  0
M  END
>  <zinc_id>  (1) 
ZINC000001553960

>  <smiles>  (1) 
Oc1ccc2c(c1)CC[C@@H](c1ccccc1)N2Cc1ccc(OCCN2CCCCC2)cc1

$$$$
