
     RDKit          3D

 19 19  0  0  0  0  0  0  0  0999 V2000
    4.2551   -1.3039    1.3039 C   0  0  0  0  0  0  0  0  0  0  0  0
    3.5901    0.0328    1.3313 C   0  0  0  0  0  0  0  0  0  0  0  0
    3.7629    0.7159    0.0675 N   0  0  0  0  0  0  0  0  0  0  0  0
    5.0832    1.1441   -0.2710 C   0  0  0  0  0  0  0  0  0  0  0  0
    5.1374    1.8291   -1.5886 C   0  0  0  0  0  0  0  0  0  0  0  0
    2.6707    0.9322   -0.7651 C   0  0  0  0  0  0  0  0  0  0  0  0
    2.8337    1.6995   -2.1861 S   0  0  0  0  0  0  0  0  0  0  0  0
    1.3923    0.4709   -0.3490 N   0  0  0  0  0  0  0  0  0  0  0  0
    0.2144    0.6303   -1.0904 C   0  0  0  0  0  0  0  0  0  0  0  0
    0.3263    1.2321   -2.2056 O   0  0  0  0  0  0  0  0  0  0  0  0
   -1.0698    0.1368   -0.6151 C   0  0  0  0  0  0  0  0  0  0  0  0
   -1.9860    0.8936    0.0837 C   0  0  0  0  0  0  0  0  0  0  0  0
   -3.2026    0.4179    0.5258 C   0  0  0  0  0  0  0  0  0  0  0  0
   -3.5350   -0.8994    0.2563 C   0  0  0  0  0  0  0  0  0  0  0  0
   -4.7540   -1.4783    0.6599 N   0  0  0  0  0  4  0  0  0  0  0  0
   -5.5969   -0.8008    1.2935 O   0  0  0  0  0  0  0  0  0  0  0  0
   -5.0676   -2.7754    0.3856 O   0  0  0  0  0  1  0  0  0  0  0  0
   -2.6365   -1.6917   -0.4450 C   0  0  0  0  0  0  0  0  0  0  0  0
   -1.4177   -1.1860   -0.8782 C   0  0  0  0  0  0  0  0  0  0  0  0
  1  2  1  0
  2  3  1  0
  3  4  1  0
  4  5  1  0
  3  6  1  0
  6  7  2  0
  6  8  1  0
  8  9  1  0
  9 10  2  0
  9 11  1  0
 11 12  2  0
 12 13  1  0
 13 14  2  0
 14 15  1  0
 15 16  2  0
 15 17  1  0
 14 18  1  0
 18 19  2  0
 19 11  1  0
M  CHG  2  15   1  17  -1
M  END
>  <zinc_id>  (1) 
ZINC000000513288

>  <smiles>  (1) 
CCN(CC)C(=S)NC(=O)c1ccc([N+](=O)[O-])cc1

$$$$
