
     RDKit          3D

 30 32  0  0  0  0  0  0  0  0999 V2000
   -8.4540    1.1440    0.0563 C   0  0  0  0  0  0  0  0  0  0  0  0
   -6.9477    1.2750    0.3255 C   0  0  0  0  0  0  0  0  0  0  0  0
   -6.3322    1.0172   -1.1846 C   0  0  2  0  0  0  0  0  0  0  0  0
   -7.0073   -0.5052   -1.2651 C   0  0  0  0  0  0  0  0  0  0  0  0
   -4.9127    0.5663   -0.6731 C   0  0  0  0  0  0  0  0  0  0  0  0
   -3.8850    1.3011   -1.2145 C   0  0  0  0  0  0  0  0  0  0  0  0
   -2.5524    1.0173   -0.8542 C   0  0  0  0  0  0  0  0  0  0  0  0
   -2.2706    0.0092    0.0366 C   0  0  0  0  0  0  0  0  0  0  0  0
   -0.9067   -0.2895    0.4124 N   0  0  0  0  0  0  0  0  0  0  0  0
   -0.6152   -1.3331    1.3345 C   0  0  0  0  0  0  0  0  0  0  0  0
   -1.6422   -1.9552    1.7791 O   0  0  0  0  0  0  0  0  0  0  0  0
    0.7546   -1.6920    1.7619 C   0  0  0  0  0  0  0  0  0  0  0  0
    1.6351   -0.8117    1.1053 O   0  0  0  0  0  0  0  0  0  0  0  0
    1.5675    0.5371    1.2978 C   0  0  0  0  0  0  0  0  0  0  0  0
    0.7066    1.0170    2.0762 O   0  0  0  0  0  0  0  0  0  0  0  0
    2.4620    1.4633    0.6270 C   0  0  0  0  0  0  0  0  0  0  0  0
    2.2449    2.8480    0.8132 C   0  0  0  0  0  0  0  0  0  0  0  0
    3.0049    3.7826    0.1786 C   0  0  0  0  0  0  0  0  0  0  0  0
    4.0007    3.3522   -0.6578 C   0  0  0  0  0  0  0  0  0  0  0  0
    4.2538    2.0239   -0.8727 C   0  0  0  0  0  0  0  0  0  0  0  0
    3.4699    1.0828   -0.2167 C   0  0  0  0  0  0  0  0  0  0  0  0
    3.7652   -0.3422   -0.3880 C   0  0  0  0  0  0  0  0  0  0  0  0
    3.7099   -0.9467   -1.6349 C   0  0  0  0  0  0  0  0  0  0  0  0
    4.0414   -2.2750   -1.7749 C   0  0  0  0  0  0  0  0  0  0  0  0
    4.4382   -3.0706   -0.7218 C   0  0  0  0  0  0  0  0  0  0  0  0
    4.7875   -4.5030   -0.9199 C   0  0  0  0  0  0  0  0  0  0  0  0
    4.4947   -2.4732    0.5212 C   0  0  0  0  0  0  0  0  0  0  0  0
    4.1626   -1.1413    0.6636 C   0  0  0  0  0  0  0  0  0  0  0  0
   -3.3273   -0.6977    0.5516 C   0  0  0  0  0  0  0  0  0  0  0  0
   -4.6461   -0.4007    0.1811 C   0  0  0  0  0  0  0  0  0  0  0  0
  1  2  1  0
  2  3  1  0
  3  4  1  1
  3  5  1  0
  5  6  2  0
  6  7  1  0
  7  8  2  0
  8  9  1  0
  9 10  1  0
 10 11  2  0
 10 12  1  0
 12 13  1  0
 13 14  1  0
 14 15  2  0
 14 16  1  0
 16 17  2  0
 17 18  1  0
 18 19  2  0
 19 20  1  0
 20 21  2  0
 21 22  1  0
 22 23  2  0
 23 24  1  0
 24 25  2  0
 25 26  1  0
 25 27  1  0
 27 28  2  0
  8 29  1  0
 29 30  2  0
 30  5  1  0
 21 16  1  0
 28 22  1  0
M  END
>  <zinc_id>  (1) 
ZINC000003217082

>  <smiles>  (1) 
CC[C@H](C)c1ccc(NC(=O)COC(=O)c2ccccc2-c2ccc(C)cc2)cc1

$$$$
