
     RDKit          3D

 22 24  0  0  0  0  0  0  0  0999 V2000
    6.2254    0.5749    0.9904 C   0  0  0  0  0  0  0  0  0  0  0  0
    5.5004    0.3551   -0.2042 O   0  0  0  0  0  0  0  0  0  0  0  0
    4.1043    0.1764   -0.1772 C   0  0  0  0  0  0  0  0  0  0  0  0
    3.3990   -0.0383   -1.3401 C   0  0  0  0  0  0  0  0  0  0  0  0
    2.0247   -0.2131   -1.3031 C   0  0  0  0  0  0  0  0  0  0  0  0
    1.3115   -0.1818   -0.1285 C   0  0  0  0  0  0  0  0  0  0  0  0
   -0.1125   -0.3677   -0.1288 N   0  0  0  0  0  0  0  0  0  0  0  0
   -0.7937   -1.4827   -0.4077 C   0  0  0  0  0  0  0  0  0  0  0  0
   -0.1017   -2.7579   -0.7764 C   0  0  0  0  0  0  0  0  0  0  0  0
   -2.1385   -1.2442   -0.2972 C   0  0  0  0  0  0  0  0  0  0  0  0
   -3.1460   -2.2282   -0.5315 N   0  0  0  0  0  4  0  0  0  0  0  0
   -3.3181   -3.1255    0.3155 O   0  0  0  0  0  0  0  0  0  0  0  0
   -3.8590   -2.1132   -1.6855 O   0  0  0  0  0  1  0  0  0  0  0  0
   -2.2909    0.0630    0.0624 C   0  0  0  0  0  0  0  0  0  0  0  0
   -3.3815    0.8494    0.3131 C   0  0  0  0  0  0  0  0  0  0  0  0
   -3.2192    2.1800    0.6686 C   0  0  0  0  0  0  0  0  0  0  0  0
   -1.9522    2.7277    0.7739 C   0  0  0  0  0  0  0  0  0  0  0  0
   -1.7827    4.0784    1.1346 O   0  0  0  0  0  0  0  0  0  0  0  0
   -0.8683    1.9218    0.5180 C   0  0  0  0  0  0  0  0  0  0  0  0
   -1.0232    0.5821    0.1598 C   0  0  0  0  0  0  0  0  0  0  0  0
    2.0165    0.0328    1.0336 C   0  0  0  0  0  0  0  0  0  0  0  0
    3.4057    0.2110    1.0104 C   0  0  0  0  0  0  0  0  0  0  0  0
  1  2  1  0
  2  3  1  0
  3  4  2  0
  4  5  1  0
  5  6  2  0
  6  7  1  0
  7  8  1  0
  8  9  1  0
  8 10  2  0
 10 11  1  0
 11 12  2  0
 11 13  1  0
 10 14  1  0
 14 15  2  0
 15 16  1  0
 16 17  2  0
 17 18  1  0
 17 19  1  0
 19 20  2  0
  6 21  1  0
 21 22  2  0
 22  3  1  0
 20  7  1  0
 20 14  1  0
M  CHG  2  11   1  13  -1
M  END
>  <zinc_id>  (1) 
ZINC000000292702

>  <smiles>  (1) 
COc1ccc(-n2c(C)c([N+](=O)[O-])c3ccc(O)cc32)cc1

$$$$
