
     RDKit          3D

 31 34  0  0  0  0  0  0  0  0999 V2000
   -2.5596    3.8552    0.9861 C   0  0  0  0  0  0  0  0  0  0  0  0
   -2.9613    2.5288    0.7132 O   0  0  0  0  0  0  0  0  0  0  0  0
   -2.0232    1.6492    0.1520 C   0  0  0  0  0  0  0  0  0  0  0  0
   -0.7363    2.1156   -0.1135 C   0  0  0  0  0  0  0  0  0  0  0  0
    0.2287    1.2757   -0.6711 C   0  0  0  0  0  0  0  0  0  0  0  0
   -0.1249    0.0213   -0.9378 C   0  0  0  0  0  0  0  0  0  0  0  0
   -1.3905   -0.4507   -0.6805 C   0  0  0  0  0  0  0  0  0  0  0  0
   -2.3744    0.3488   -0.1290 C   0  0  0  0  0  0  0  0  0  0  0  0
   -3.6436   -0.0875    0.1401 O   0  0  0  0  0  0  0  0  0  0  0  0
   -4.1304   -1.3737   -0.0939 C   0  0  0  0  0  0  0  0  0  0  0  0
   -5.5589   -1.4077    0.3467 C   0  0  0  0  0  0  0  0  0  0  0  0
   -5.9045   -1.7443    1.6175 C   0  0  0  0  0  0  0  0  0  0  0  0
   -7.2208   -1.7602    1.9687 C   0  0  0  0  0  0  0  0  0  0  0  0
   -8.1814   -1.4435    1.0614 C   0  0  0  0  0  0  0  0  0  0  0  0
   -7.8371   -1.1011   -0.2294 C   0  0  0  0  0  0  0  0  0  0  0  0
   -6.5122   -1.0820   -0.5938 C   0  0  0  0  0  0  0  0  0  0  0  0
    0.9193   -1.0043   -1.5835 C   0  0  2  0  0  0  0  0  0  0  0  0
    2.1278   -0.7449   -0.5601 C   0  0  0  0  0  0  0  0  0  0  0  0
    1.8811   -0.5923    0.7408 C   0  0  0  0  0  0  0  0  0  0  0  0
    2.9412   -0.3709    1.5941 C   0  0  0  0  0  0  0  0  0  0  0  0
    4.2343   -0.3051    1.1337 C   0  0  0  0  0  0  0  0  0  0  0  0
    4.4605   -0.4662   -0.2149 C   0  0  0  0  0  0  0  0  0  0  0  0
    5.6790   -0.4272   -0.8172 O   0  0  0  0  0  0  0  0  0  0  0  0
    6.9492   -0.2434   -0.3713 C   0  0  0  0  0  0  0  0  0  0  0  0
    7.5278   -1.1909    0.6003 C   0  0  0  0  0  0  0  0  0  0  0  0
    6.7877   -1.2866    1.9078 C   0  0  0  0  0  0  0  0  0  0  0  0
    8.9547   -0.8005    0.9119 C   0  0  0  0  0  0  0  0  0  0  0  0
    3.3823   -0.6875   -1.0537 C   0  0  0  0  0  0  0  0  0  0  0  0
    1.3869    0.0202   -2.7043 N   0  0  0  0  0  0  0  0  0  0  0  0
    2.0944    1.0656   -2.1685 C   0  0  0  0  0  0  0  0  0  0  0  0
    1.6041    1.7655   -0.9517 C   0  0  0  0  0  0  0  0  0  0  0  0
  1  2  1  0
  2  3  1  0
  3  4  2  0
  4  5  1  0
  5  6  2  0
  6  7  1  0
  7  8  2  0
  8  9  1  0
  9 10  1  0
 10 11  1  0
 11 12  2  0
 12 13  1  0
 13 14  2  0
 14 15  1  0
 15 16  2  0
  6 17  1  0
 17 18  1  1
 18 19  2  0
 19 20  1  0
 20 21  2  0
 21 22  1  0
 22 23  1  0
 23 24  1  0
 24 25  1  0
 25 26  1  0
 25 27  1  0
 22 28  2  0
 17 29  1  0
 29 30  1  0
 30 31  1  0
  8  3  1  0
 16 11  1  0
 28 18  1  0
 31  5  1  0
M  END
>  <zinc_id>  (1) 
ZINC000003702398

>  <smiles>  (1) 
COc1cc2c(cc1OCc1ccccc1)[C@H](c1cccc(OCC(C)C)c1)NCC2

$$$$
