
     RDKit          3D

 30 32  0  0  0  0  0  0  0  0999 V2000
   -2.7287    2.3889   -3.7077 C   0  0  0  0  0  0  0  0  0  0  0  0
   -1.7919    2.8388   -2.6059 C   0  0  0  0  0  0  0  0  0  0  0  0
   -1.5153    1.8128   -1.7054 O   0  0  0  0  0  0  0  0  0  0  0  0
   -2.5088    1.1700   -0.9575 C   0  0  0  0  0  0  0  0  0  0  0  0
   -3.6717    1.5753   -1.1479 O   0  0  0  0  0  0  0  0  0  0  0  0
   -2.1632    0.0741   -0.0034 C   0  0  0  0  0  0  0  0  0  0  0  0
   -3.0939   -0.5829    0.7338 C   0  0  0  0  0  0  0  0  0  0  0  0
   -4.5632   -0.2860    0.7510 C   0  0  0  0  0  0  0  0  0  0  0  0
   -5.0618    0.9693    1.0006 C   0  0  0  0  0  0  0  0  0  0  0  0
   -6.4173    1.2238    1.0137 C   0  0  0  0  0  0  0  0  0  0  0  0
   -7.3333    0.2238    0.7757 C   0  0  0  0  0  0  0  0  0  0  0  0
   -8.8117    0.5027    0.7899 C   0  0  0  0  0  0  0  0  0  0  0  0
   -6.8469   -1.0402    0.5239 C   0  0  0  0  0  0  0  0  0  0  0  0
   -5.4869   -1.2814    0.5136 C   0  0  0  0  0  0  0  0  0  0  0  0
   -2.6211   -1.5824    1.5531 C   0  0  0  0  0  0  0  0  0  0  0  0
   -0.9551   -1.5874    1.2940 S   0  0  0  0  0  0  0  0  0  0  0  0
   -0.8567   -0.3336    0.1556 C   0  0  0  0  0  0  0  0  0  0  0  0
    0.3104    0.2147   -0.5170 N   0  0  0  0  0  0  0  0  0  0  0  0
    1.5561   -0.3753   -0.1851 C   0  0  0  0  0  0  0  0  0  0  0  0
    1.6109   -1.3181    0.6473 O   0  0  0  0  0  0  0  0  0  0  0  0
    2.8184    0.0790   -0.7868 C   0  0  0  0  0  0  0  0  0  0  0  0
    3.9630   -0.6620   -0.3039 N   0  0  0  0  0  0  0  0  0  0  0  0
    4.2332   -0.3901    1.0978 C   0  0  0  0  0  0  0  0  0  0  0  0
    5.4469   -1.2268    1.4736 C   0  0  0  0  0  0  0  0  0  0  0  0
    6.6419   -0.8922    0.6775 C   0  0  0  0  0  0  0  0  0  0  0  0
    6.8784   -1.5384   -0.5027 C   0  0  0  0  0  0  0  0  0  0  0  0
    7.9777   -1.2574   -1.2686 C   0  0  0  0  0  0  0  0  0  0  0  0
    8.8563   -0.2931   -0.8183 C   0  0  0  0  0  0  0  0  0  0  0  0
    8.6255    0.3733    0.3844 C   0  0  0  0  0  0  0  0  0  0  0  0
    7.5087    0.0612    1.1246 C   0  0  0  0  0  0  0  0  0  0  0  0
  1  2  1  0
  2  3  1  0
  3  4  1  0
  4  5  2  0
  4  6  1  0
  6  7  1  0
  7  8  1  0
  8  9  2  0
  9 10  1  0
 10 11  2  0
 11 12  1  0
 11 13  1  0
 13 14  2  0
  7 15  2  0
 15 16  1  0
 16 17  1  0
 17 18  1  0
 18 19  1  0
 19 20  2  0
 19 21  1  0
 21 22  1  0
 22 23  1  0
 23 24  1  0
 24 25  1  0
 25 26  2  0
 26 27  1  0
 27 28  2  0
 28 29  1  0
 29 30  2  0
 17  6  2  0
 30 25  1  0
 14  8  1  0
M  END
>  <zinc_id>  (1) 
ZINC000001930734

>  <smiles>  (1) 
CCOC(=O)c1c(-c2ccc(C)cc2)csc1NC(=O)CNCCc1ccccc1

$$$$
