
     RDKit          3D

 20 23  0  0  0  0  0  0  0  0999 V2000
    5.7591    1.4841    0.9355 N   0  0  0  0  0  0  0  0  0  0  0  0
    4.7118    0.9319    0.1531 C   0  0  0  0  0  0  0  0  0  0  0  0
    4.8953    0.5256   -1.1498 C   0  0  0  0  0  0  0  0  0  0  0  0
    3.8850   -0.0146   -1.9258 C   0  0  0  0  0  0  0  0  0  0  0  0
    2.6165   -0.1606   -1.3767 C   0  0  0  0  0  0  0  0  0  0  0  0
    2.4344    0.2438   -0.0804 C   0  0  0  0  0  0  0  0  0  0  0  0
    1.1234    0.0983    0.5026 N   0  0  0  0  0  0  0  0  0  0  0  0
    0.0391   -0.4487   -0.2372 C   0  0  0  0  0  0  0  0  0  0  0  0
    0.2824   -0.7977   -1.4220 O   0  0  0  0  0  0  0  0  0  0  0  0
   -1.2791   -0.5901    0.3632 C   0  0  0  0  0  0  0  0  0  0  0  0
   -1.9073    0.6786    0.8275 C   0  0  0  0  0  0  0  0  0  0  0  0
   -2.9636    0.3016    1.8634 C   0  0  0  0  0  0  0  0  0  0  0  0
   -3.9391   -0.6591    1.2162 C   0  0  0  0  0  0  0  0  0  0  0  0
   -4.6005    0.0855    0.0716 C   0  0  0  0  0  0  0  0  0  0  0  0
   -3.5559    0.4037   -0.9778 C   0  0  0  0  0  0  0  0  0  0  0  0
   -2.5723    1.3961   -0.3523 C   0  0  0  0  0  0  0  0  0  0  0  0
   -2.8698   -0.8314   -1.4770 C   0  0  0  0  0  0  0  0  0  0  0  0
   -2.2014   -1.5334   -0.3152 C   0  0  0  0  0  0  0  0  0  0  0  0
   -3.2942   -1.8945    0.6905 C   0  0  0  0  0  0  0  0  0  0  0  0
    3.4362    0.7810    0.6938 C   0  0  0  0  0  0  0  0  0  0  0  0
  1  2  1  0
  2  3  2  0
  3  4  1  0
  4  5  2  0
  5  6  1  0
  6  7  1  0
  7  8  1  0
  8  9  2  0
  8 10  1  0
 10 11  1  0
 11 12  1  0
 12 13  1  0
 13 14  1  0
 14 15  1  0
 15 16  1  0
 15 17  1  0
 17 18  1  0
 18 19  1  0
  6 20  2  0
 20  2  1  0
 18 10  1  0
 16 11  1  0
 19 13  1  0
M  END
>  <zinc_id>  (1) 
ZINC000004045166

>  <smiles>  (1) 
Nc1cccc(NC(=O)C2C3CC4CC(C3)CC2C4)c1

$$$$
