
     RDKit          3D

 19 20  0  0  0  0  0  0  0  0999 V2000
   -1.3067   -3.0562    2.5263 C   0  0  0  0  0  0  0  0  0  0  0  0
   -0.8611   -1.9804    1.5613 C   0  0  0  0  0  0  0  0  0  0  0  0
    0.2757   -1.2890    1.5822 N   0  0  0  0  0  0  0  0  0  0  0  0
    0.3150   -0.4236    0.5613 N   0  0  0  0  0  0  0  0  0  0  0  0
    1.4399    0.4477    0.3222 C   0  0  0  0  0  0  0  0  0  0  0  0
    1.8533    1.4012    1.2179 C   0  0  0  0  0  0  0  0  0  0  0  0
    2.9367    2.1861    0.9373 C   0  0  0  0  0  0  0  0  0  0  0  0
    3.6347    2.0429   -0.2412 C   0  0  0  0  0  0  0  0  0  0  0  0
    3.2259    1.0865   -1.1490 C   0  0  0  0  0  0  0  0  0  0  0  0
    2.1229    0.2880   -0.8607 C   0  0  0  0  0  0  0  0  0  0  0  0
   -0.8122   -0.5396   -0.1499 C   0  0  0  0  0  0  0  0  0  0  0  0
   -1.2293    0.1768   -1.3056 N   0  0  0  0  0  0  0  0  0  0  0  0
   -0.4594    1.2414   -1.8638 C   0  0  0  0  0  0  0  0  0  0  0  0
   -0.4119    2.4678   -0.9962 C   0  0  0  0  0  0  0  0  0  0  0  0
    0.5855    3.6858   -1.8506 Cl  0  0  0  0  0  0  0  0  0  0  0  0
   -1.5685   -1.5376    0.4887 C   0  0  0  0  0  0  0  0  0  0  0  0
   -2.8300   -1.9493    0.0401 N   0  0  0  0  0  4  0  0  0  0  0  0
   -2.9290   -2.6578   -0.9772 O   0  0  0  0  0  0  0  0  0  0  0  0
   -3.9814   -1.5907    0.6918 O   0  0  0  0  0  1  0  0  0  0  0  0
  1  2  1  0
  2  3  2  0
  3  4  1  0
  4  5  1  0
  5  6  2  0
  6  7  1  0
  7  8  2  0
  8  9  1  0
  9 10  2  0
  4 11  1  0
 11 12  1  0
 12 13  1  0
 13 14  1  0
 14 15  1  0
 11 16  2  0
 16 17  1  0
 17 18  2  0
 17 19  1  0
 16  2  1  0
 10  5  1  0
M  CHG  2  17   1  19  -1
M  END
>  <zinc_id>  (1) 
ZINC000004277133

>  <smiles>  (1) 
Cc1nn(-c2ccccc2)c(NCCCl)c1[N+](=O)[O-]

$$$$
