
     RDKit          3D

 21 25  0  0  0  0  0  0  0  0999 V2000
   -1.5397   -1.2823    2.5216 O   0  0  0  0  0  0  0  0  0  0  0  0
   -0.7831   -0.7959    1.6317 C   0  0  0  0  0  0  0  0  0  0  0  0
    0.6007   -1.0193    1.3749 N   0  0  0  0  0  0  0  0  0  0  0  0
    1.0152    0.0776    0.4862 C   0  0  0  0  0  0  0  0  0  0  0  0
   -0.1127    0.9863    0.4111 N   0  0  0  0  0  0  0  0  0  0  0  0
   -1.2232    0.1399    0.6492 N   0  0  0  0  0  0  0  0  0  0  0  0
   -2.4933    0.2298    0.0221 C   0  0  0  0  0  0  0  0  0  0  0  0
   -3.6441   -0.2244    0.5898 C   0  0  0  0  0  0  0  0  0  0  0  0
   -4.8804   -0.1226   -0.0556 C   0  0  0  0  0  0  0  0  0  0  0  0
   -4.9009    0.4624   -1.3081 C   0  0  0  0  0  0  0  0  0  0  0  0
   -3.7491    0.9319   -1.9074 C   0  0  0  0  0  0  0  0  0  0  0  0
   -2.5365    0.8094   -1.2261 C   0  0  0  0  0  0  0  0  0  0  0  0
    2.2415    0.6740    1.1015 C   0  0  0  0  0  0  0  0  0  0  0  0
    2.7645    1.7951    0.2655 C   0  0  0  0  0  0  0  0  0  0  0  0
    3.1041    1.2627   -1.1253 C   0  0  0  0  0  0  0  0  0  0  0  0
    4.0700    0.1029   -1.0315 C   0  0  0  0  0  0  0  0  0  0  0  0
    3.4960   -1.0164   -0.1775 C   0  0  0  0  0  0  0  0  0  0  0  0
    3.2531   -0.4665    1.2274 C   0  0  0  0  0  0  0  0  0  0  0  0
    2.2477   -1.5720   -0.8001 C   0  0  0  0  0  0  0  0  0  0  0  0
    1.2602   -0.4312   -0.9225 C   0  0  0  0  0  0  0  0  0  0  0  0
    1.8099    0.7204   -1.7266 C   0  0  0  0  0  0  0  0  0  0  0  0
  1  2  2  0
  2  3  1  0
  3  4  1  0
  4  5  1  0
  5  6  1  0
  6  7  1  0
  7  8  2  0
  8  9  1  0
  9 10  2  0
 10 11  1  0
 11 12  2  0
  4 13  1  0
 13 14  1  0
 14 15  1  0
 15 16  1  0
 16 17  1  0
 17 18  1  0
 17 19  1  0
 19 20  1  0
 20 21  1  0
  6  2  1  0
 12  7  1  0
 18 13  1  0
 20  4  1  0
 21 15  1  0
M  END
>  <zinc_id>  (1) 
ZINC000001384938

>  <smiles>  (1) 
O=C1NC2(NN1c1ccccc1)C1CC3CC(C1)CC2C3

$$$$
