
     RDKit          3D

 21 23  0  0  0  0  0  0  0  0999 V2000
    6.2183    1.2024    1.3066 C   0  0  0  0  0  0  0  0  0  0  0  0
    4.9813    0.5222    0.7737 C   0  0  0  0  0  0  0  0  0  0  0  0
    5.0241   -0.6867    0.1270 C   0  0  0  0  0  0  0  0  0  0  0  0
    3.8576   -1.2742   -0.3389 C   0  0  0  0  0  0  0  0  0  0  0  0
    3.9670   -2.5212   -1.0104 N   0  0  0  0  0  0  0  0  0  0  0  0
    2.6642   -0.6831   -0.1740 N   0  0  0  0  0  0  0  0  0  0  0  0
    1.4180   -1.0468   -0.5282 N   0  0  0  0  0  0  0  0  0  0  0  0
    0.5409   -0.1232   -0.1417 C   0  0  0  0  0  0  0  0  0  0  0  0
   -0.9230   -0.0611   -0.2918 C   0  0  0  0  0  0  0  0  0  0  0  0
   -1.6131    1.0455    0.2199 C   0  0  0  0  0  0  0  0  0  0  0  0
   -2.9783    1.1743    0.1110 C   0  0  0  0  0  0  0  0  0  0  0  0
   -3.7218    0.1955   -0.5159 C   0  0  0  0  0  0  0  0  0  0  0  0
   -5.2122    0.3435   -0.6319 C   0  0  0  0  0  0  0  0  0  0  0  0
   -5.9391   -0.6868    0.2055 C   0  0  0  0  0  0  0  0  0  0  0  0
   -5.5938    1.7106   -0.0572 C   0  0  0  0  0  0  0  0  0  0  0  0
   -5.6784    0.3273   -2.0597 C   0  0  0  0  0  0  0  0  0  0  0  0
   -3.0272   -0.8806   -1.0088 C   0  0  0  0  0  0  0  0  0  0  0  0
   -1.6530   -1.0178   -0.9091 C   0  0  0  0  0  0  0  0  0  0  0  0
    1.2905    0.8670    0.4877 C   0  0  0  0  0  0  0  0  0  0  0  0
    2.6208    0.5147    0.4634 C   0  0  0  0  0  0  0  0  0  0  0  0
    3.7570    1.0785    0.9133 N   0  0  0  0  0  0  0  0  0  0  0  0
  1  2  1  0
  2  3  1  0
  3  4  2  0
  4  5  1  0
  4  6  1  0
  6  7  1  0
  7  8  2  0
  8  9  1  0
  9 10  2  0
 10 11  1  0
 11 12  2  0
 12 13  1  0
 13 14  1  0
 13 15  1  0
 13 16  1  0
 12 17  1  0
 17 18  2  0
  8 19  1  0
 19 20  2  0
 20 21  1  0
 21  2  2  0
 20  6  1  0
 18  9  1  0
M  END
>  <zinc_id>  (1) 
ZINC000000313435

>  <smiles>  (1) 
Cc1cc(N)n2nc(-c3ccc(C(C)(C)C)cc3)cc2n1

$$$$
