
     RDKit          3D

 31 34  0  0  0  0  0  0  0  0999 V2000
   -8.5173    2.3619    0.9518 C   0  0  0  0  0  0  0  0  0  0  0  0
   -7.2524    1.6178    0.5960 C   0  0  0  0  0  0  0  0  0  0  0  0
   -7.6608    0.2882   -0.0026 C   0  0  0  0  0  0  0  0  0  0  0  0
   -6.4730    1.3802    1.8498 C   0  0  0  0  0  0  0  0  0  0  0  0
   -5.2692    0.6929    1.6498 O   0  0  0  0  0  0  0  0  0  0  0  0
   -4.2376    1.1406    0.8527 C   0  0  0  0  0  0  0  0  0  0  0  0
   -4.2557    2.3226    0.1485 C   0  0  0  0  0  0  0  0  0  0  0  0
   -3.1601    2.6769   -0.6250 C   0  0  0  0  0  0  0  0  0  0  0  0
   -2.0408    1.8446   -0.6943 C   0  0  0  0  0  0  0  0  0  0  0  0
   -2.0195    0.6595    0.0103 C   0  0  0  0  0  0  0  0  0  0  0  0
   -0.8418   -0.2204   -0.0601 C   0  0  0  0  0  0  0  0  0  0  0  0
    0.2588    0.1160   -0.8253 C   0  0  0  0  0  0  0  0  0  0  0  0
    1.3553   -0.7124   -0.8853 C   0  0  0  0  0  0  0  0  0  0  0  0
    2.5390   -0.3938   -1.6821 C   0  0  0  0  0  0  0  0  0  0  0  0
    2.5306    0.6851   -2.3291 O   0  0  0  0  0  0  0  0  0  0  0  0
    3.6708   -1.2099   -1.7675 N   0  0  0  0  0  0  0  0  0  0  0  0
    4.8081   -0.9213   -2.5224 N   0  0  0  0  0  0  0  0  0  0  0  0
    5.7393   -0.2340   -1.9688 C   0  0  0  0  0  0  0  0  0  0  0  0
    5.5640    0.2014   -0.6057 C   0  0  0  0  0  0  0  0  0  0  0  0
    6.4885    0.9409    0.0925 C   0  0  0  0  0  0  0  0  0  0  0  0
    5.9546    1.1510    1.3448 C   0  0  0  0  0  0  0  0  0  0  0  0
    4.7269    0.5271    1.3481 C   0  0  0  0  0  0  0  0  0  0  0  0
    4.5581   -0.0143    0.1647 O   0  0  0  0  0  0  0  0  0  0  0  0
    1.3085   -1.8814   -0.1557 C   0  0  0  0  0  0  0  0  0  0  0  0
    2.3605   -2.7653   -0.1594 C   0  0  0  0  0  0  0  0  0  0  0  0
    2.2954   -3.9141    0.5674 C   0  0  0  0  0  0  0  0  0  0  0  0
    1.2014   -4.2545    1.3316 C   0  0  0  0  0  0  0  0  0  0  0  0
    0.1419   -3.3884    1.3499 C   0  0  0  0  0  0  0  0  0  0  0  0
    0.1905   -2.2112    0.6144 C   0  0  0  0  0  0  0  0  0  0  0  0
   -0.8572   -1.3686    0.6409 N   0  0  0  0  0  0  0  0  0  0  0  0
   -3.1069    0.3206    0.7702 C   0  0  0  0  0  0  0  0  0  0  0  0
  1  2  1  0
  2  3  1  0
  2  4  1  0
  4  5  1  0
  5  6  1  0
  6  7  2  0
  7  8  1  0
  8  9  2  0
  9 10  1  0
 10 11  1  0
 11 12  2  0
 12 13  1  0
 13 14  1  0
 14 15  2  0
 14 16  1  0
 16 17  1  0
 17 18  2  0
 18 19  1  0
 19 20  2  0
 20 21  1  0
 21 22  2  0
 22 23  1  0
 13 24  2  0
 24 25  1  0
 25 26  2  0
 26 27  1  0
 27 28  2  0
 28 29  1  0
 29 30  2  0
 10 31  2  0
 31  6  1  0
 30 11  1  0
 23 19  1  0
 29 24  1  0
M  END
>  <zinc_id>  (1) 
ZINC000004470449

>  <smiles>  (1) 
CC(C)COc1cccc(-c2cc(C(=O)N/N=C\c3ccco3)c3ccccc3n2)c1

$$$$
