
     RDKit          3D

 32 35  0  0  0  0  0  0  0  0999 V2000
   -5.1890   -5.3588    0.0370 C   0  0  0  0  0  0  0  0  0  0  0  0
   -3.9402   -4.5883   -0.2816 C   0  0  0  0  0  0  0  0  0  0  0  0
   -3.0550   -5.0362   -1.2398 C   0  0  0  0  0  0  0  0  0  0  0  0
   -1.8916   -4.3167   -1.5350 C   0  0  0  0  0  0  0  0  0  0  0  0
   -1.6675   -3.1526   -0.8360 C   0  0  0  0  0  0  0  0  0  0  0  0
   -2.5196   -2.6618    0.1305 C   0  0  0  0  0  0  0  0  0  0  0  0
   -2.2747   -1.4543    0.8469 N   0  0  0  0  0  0  0  0  0  0  0  0
   -1.1408   -0.6442    0.6382 C   0  0  0  0  0  0  0  0  0  0  0  0
   -1.2057    0.6899    0.5854 C   0  0  0  0  0  0  0  0  0  0  0  0
   -2.6870    1.6882    0.7626 S   0  0  0  0  0  0  0  0  0  0  0  0
   -2.3352    3.4082    0.5854 C   0  0  0  0  0  0  0  0  0  0  0  0
   -2.3917    3.9820   -0.6877 C   0  0  0  0  0  0  0  0  0  0  0  0
   -2.1240    5.3264   -0.8682 C   0  0  0  0  0  0  0  0  0  0  0  0
   -1.8018    6.0823    0.2355 C   0  0  0  0  0  0  0  0  0  0  0  0
   -1.7429    5.5162    1.5102 C   0  0  0  0  0  0  0  0  0  0  0  0
   -2.0143    4.1641    1.6700 C   0  0  0  0  0  0  0  0  0  0  0  0
    0.1191    1.2539    0.3522 C   0  0  0  0  0  0  0  0  0  0  0  0
    0.4208    2.4777    0.2478 O   0  0  0  0  0  0  0  0  0  0  0  0
    1.0141    0.1581    0.2650 N   0  0  0  0  0  0  0  0  0  0  0  0
    2.4272    0.2166    0.0367 C   0  0  0  0  0  0  0  0  0  0  0  0
    3.2588   -0.8581    0.2550 C   0  0  0  0  0  0  0  0  0  0  0  0
    4.6221   -0.8213    0.0381 C   0  0  0  0  0  0  0  0  0  0  0  0
    5.1765    0.3427   -0.4176 C   0  0  0  0  0  0  0  0  0  0  0  0
    6.6280    0.4918   -0.6871 C   0  0  0  0  0  0  0  0  0  0  0  0
    6.8272    0.4905   -2.1972 C   0  0  0  0  0  0  0  0  0  0  0  0
    7.4410   -0.6491   -0.1214 C   0  0  0  0  0  0  0  0  0  0  0  0
    4.3853    1.4410   -0.6494 C   0  0  0  0  0  0  0  0  0  0  0  0
    3.0257    1.3880   -0.4277 C   0  0  0  0  0  0  0  0  0  0  0  0
    0.2478   -1.0255    0.4402 C   0  0  0  0  0  0  0  0  0  0  0  0
    0.6269   -2.2284    0.4376 O   0  0  0  0  0  0  0  0  0  0  0  0
   -3.6516   -3.4136    0.3792 C   0  0  0  0  0  0  0  0  0  0  0  0
   -4.5879   -2.9088    1.4163 C   0  0  0  0  0  0  0  0  0  0  0  0
  1  2  1  0
  2  3  2  0
  3  4  1  0
  4  5  2  0
  5  6  1  0
  6  7  1  0
  7  8  1  0
  8  9  2  0
  9 10  1  0
 10 11  1  0
 11 12  2  0
 12 13  1  0
 13 14  2  0
 14 15  1  0
 15 16  2  0
  9 17  1  0
 17 18  2  0
 17 19  1  0
 19 20  1  0
 20 21  2  0
 21 22  1  0
 22 23  2  0
 23 24  1  0
 24 25  1  0
 24 26  1  0
 23 27  1  0
 27 28  2  0
 19 29  1  0
 29 30  2  0
  6 31  2  0
 31 32  1  0
 31  2  1  0
 29  8  1  0
 16 11  1  0
 28 20  1  0
M  END
>  <zinc_id>  (1) 
ZINC000001954918

>  <smiles>  (1) 
Cc1cccc(NC2=C(Sc3ccccc3)C(=O)N(c3ccc(C(C)C)cc3)C2=O)c1C

$$$$
