
     RDKit          3D

 21 22  0  0  0  0  0  0  0  0999 V2000
    2.7615    2.7669   -2.4043 C   0  0  0  0  0  0  0  0  0  0  0  0
    1.8546    1.8255   -1.6926 C   0  0  0  0  0  0  0  0  0  0  0  0
    0.6083    2.4143   -1.1742 C   0  0  0  0  0  0  0  0  0  0  0  0
    2.5128    0.7888   -0.9274 C   0  0  0  0  0  0  0  0  0  0  0  0
    3.9188    0.8202   -0.9472 C   0  0  0  0  0  0  0  0  0  0  0  0
    4.6244   -0.1327   -0.2596 C   0  0  0  0  0  0  0  0  0  0  0  0
    3.9667   -1.1293    0.4567 C   0  0  0  0  0  0  0  0  0  0  0  0
    2.5935   -1.1131    0.4420 C   0  0  0  0  0  0  0  0  0  0  0  0
    1.8335   -0.1653   -0.2419 C   0  0  0  0  0  0  0  0  0  0  0  0
    0.4290   -0.2037   -0.1787 N   0  0  0  0  0  0  0  0  0  0  0  0
   -0.3937   -1.1482    0.3963 C   0  0  0  0  0  0  0  0  0  0  0  0
    0.1985   -2.1508    0.9310 O   0  0  0  0  0  0  0  0  0  0  0  0
   -1.8434   -1.1859    0.4847 C   0  0  0  0  0  0  0  0  0  0  0  0
   -2.5309   -2.3962    0.3221 C   0  0  0  0  0  0  0  0  0  0  0  0
   -3.9085   -2.4031    0.3303 C   0  0  0  0  0  0  0  0  0  0  0  0
   -4.6369   -1.2518    0.4965 C   0  0  0  0  0  0  0  0  0  0  0  0
   -3.9896   -0.0612    0.6584 C   0  0  0  0  0  0  0  0  0  0  0  0
   -2.5700   -0.0620    0.6471 C   0  0  0  0  0  0  0  0  0  0  0  0
   -1.9590    1.1928    0.8422 N   0  0  0  0  0  4  0  0  0  0  0  0
   -0.8970    1.2849    1.4556 O   0  0  0  0  0  0  0  0  0  0  0  0
   -2.5727    2.3101    0.3628 O   0  0  0  0  0  1  0  0  0  0  0  0
  1  2  1  0
  2  3  1  0
  2  4  1  0
  4  5  2  0
  5  6  1  0
  6  7  2  0
  7  8  1  0
  8  9  2  0
  9 10  1  0
 10 11  1  0
 11 12  2  0
 11 13  1  0
 13 14  2  0
 14 15  1  0
 15 16  2  0
 16 17  1  0
 17 18  2  0
 18 19  1  0
 19 20  2  0
 19 21  1  0
  9  4  1  0
 18 13  1  0
M  CHG  2  19   1  21  -1
M  END
>  <zinc_id>  (1) 
ZINC000000122729

>  <smiles>  (1) 
CC(C)c1ccccc1NC(=O)c1ccccc1[N+](=O)[O-]

$$$$
