
     RDKit          3D

 22 24  0  0  0  0  0  0  0  0999 V2000
    6.0709   -1.7138    1.6881 C   0  0  0  0  0  0  0  0  0  0  0  0
    4.8607   -1.1178    1.0497 C   0  0  0  0  0  0  0  0  0  0  0  0
    4.9174   -0.6356   -0.2354 C   0  0  0  0  0  0  0  0  0  0  0  0
    3.8112   -0.0741   -0.8612 C   0  0  0  0  0  0  0  0  0  0  0  0
    2.6109    0.0103   -0.1876 C   0  0  0  0  0  0  0  0  0  0  0  0
    1.4197    0.5834   -0.7727 C   0  0  0  0  0  0  0  0  0  0  0  0
    1.6275    1.4319   -1.7103 O   0  0  0  0  0  0  0  0  0  0  0  0
    0.0664    0.2854   -0.3969 C   0  0  0  0  0  0  0  0  0  0  0  0
   -0.1862   -0.5963    0.5837 N   0  0  0  0  0  0  0  0  0  0  0  0
   -1.3803   -0.9395    1.0078 N   0  0  0  0  0  0  0  0  0  0  0  0
   -2.4558   -0.3789    0.4324 C   0  0  0  0  0  0  0  0  0  0  0  0
   -3.7105   -0.7408    0.8818 C   0  0  0  0  0  0  0  0  0  0  0  0
   -3.8712   -1.7338    1.9814 C   0  0  0  0  0  0  0  0  0  0  0  0
   -4.7928   -0.1453    0.2705 C   0  0  0  0  0  0  0  0  0  0  0  0
   -4.6349    0.7883   -0.7635 C   0  0  0  0  0  0  0  0  0  0  0  0
   -3.3666    1.1213   -1.1816 C   0  0  0  0  0  0  0  0  0  0  0  0
   -3.1438    2.1178   -2.2873 C   0  0  0  0  0  0  0  0  0  0  0  0
   -2.2716    0.5334   -0.5791 C   0  0  0  0  0  0  0  0  0  0  0  0
   -1.0014    0.8829   -1.0133 C   0  0  0  0  0  0  0  0  0  0  0  0
   -0.7717    1.8228   -2.0576 N   0  0  0  0  0  0  0  0  0  0  0  0
    2.5486   -0.4717    1.1007 C   0  0  0  0  0  0  0  0  0  0  0  0
    3.6534   -1.0301    1.7199 C   0  0  0  0  0  0  0  0  0  0  0  0
  1  2  1  0
  2  3  2  0
  3  4  1  0
  4  5  2  0
  5  6  1  0
  6  7  2  0
  6  8  1  0
  8  9  2  0
  9 10  1  0
 10 11  2  0
 11 12  1  0
 12 13  1  0
 12 14  2  0
 14 15  1  0
 15 16  2  0
 16 17  1  0
 16 18  1  0
 18 19  2  0
 19 20  1  0
  5 21  1  0
 21 22  2  0
 22  2  1  0
 19  8  1  0
 18 11  1  0
M  END
>  <zinc_id>  (1) 
ZINC000000385818

>  <smiles>  (1) 
Cc1ccc(C(=O)c2nnc3c(C)ccc(C)c3c2N)cc1

$$$$
