
     RDKit          3D

 30 32  0  0  0  0  0  0  0  0999 V2000
   -1.3039    1.2723    4.0754 C   0  0  0  0  0  0  0  0  0  0  0  0
   -2.1158    0.8966    2.8697 C   0  0  0  0  0  0  0  0  0  0  0  0
   -3.0157   -0.1424    2.9369 C   0  0  0  0  0  0  0  0  0  0  0  0
   -3.7700   -0.4970    1.8410 C   0  0  0  0  0  0  0  0  0  0  0  0
   -3.6616    0.1768    0.6039 C   0  0  0  0  0  0  0  0  0  0  0  0
   -4.5399   -0.2181   -0.4847 C   0  0  0  0  0  0  0  0  0  0  0  0
   -5.9354   -0.2941   -0.2260 C   0  0  0  0  0  0  0  0  0  0  0  0
   -6.7970   -0.6311   -1.2417 C   0  0  0  0  0  0  0  0  0  0  0  0
   -6.3372   -0.8957   -2.5112 C   0  0  0  0  0  0  0  0  0  0  0  0
   -4.9986   -0.8227   -2.7642 C   0  0  0  0  0  0  0  0  0  0  0  0
   -4.1023   -0.4780   -1.7265 C   0  0  0  0  0  0  0  0  0  0  0  0
   -2.7222   -0.4646   -2.1287 C   0  0  0  0  0  0  0  0  0  0  0  0
   -2.4221   -0.6815   -3.3636 O   0  0  0  0  0  0  0  0  0  0  0  0
   -1.6052   -0.2321   -1.2943 O   0  0  0  0  0  0  0  0  0  0  0  0
   -0.3945   -0.2529   -1.9107 C   0  0  0  0  0  0  0  0  0  0  0  0
    0.8644   -0.1121   -1.2978 C   0  0  0  0  0  0  0  0  0  0  0  0
    1.8804    0.0293   -2.1741 O   0  0  0  0  0  0  0  0  0  0  0  0
    1.3438   -0.0834    0.0300 N   0  0  0  0  0  0  0  0  0  0  0  0
    2.7660    0.0901    0.2724 C   0  0  0  0  0  0  0  0  0  0  0  0
    3.4034   -0.5419    1.3242 C   0  0  0  0  0  0  0  0  0  0  0  0
    4.7867   -0.3693    1.5318 C   0  0  0  0  0  0  0  0  0  0  0  0
    5.5440    0.4258    0.7115 C   0  0  0  0  0  0  0  0  0  0  0  0
    7.0200    0.6350    0.8632 C   0  0  0  0  0  0  0  0  0  0  0  0
    7.7401    0.2346   -0.4160 C   0  0  0  0  0  0  0  0  0  0  0  0
    7.2247    2.1228    1.1212 C   0  0  0  0  0  0  0  0  0  0  0  0
    7.4737   -0.2321    2.0195 C   0  0  0  0  0  0  0  0  0  0  0  0
    4.9032    1.0707   -0.3473 C   0  0  0  0  0  0  0  0  0  0  0  0
    3.5361    0.8929   -0.5501 C   0  0  0  0  0  0  0  0  0  0  0  0
   -2.7633    1.2042    0.5609 C   0  0  0  0  0  0  0  0  0  0  0  0
   -2.0020    1.5592    1.6751 C   0  0  0  0  0  0  0  0  0  0  0  0
  1  2  1  0
  2  3  2  0
  3  4  1  0
  4  5  2  0
  5  6  1  0
  6  7  2  0
  7  8  1  0
  8  9  2  0
  9 10  1  0
 10 11  2  0
 11 12  1  0
 12 13  2  0
 12 14  1  0
 14 15  1  0
 15 16  1  0
 16 17  2  0
 16 18  1  0
 18 19  1  0
 19 20  2  0
 20 21  1  0
 21 22  2  0
 22 23  1  0
 23 24  1  0
 23 25  1  0
 23 26  1  0
 22 27  1  0
 27 28  2  0
  5 29  1  0
 29 30  2  0
 30  2  1  0
 11  6  1  0
 28 19  1  0
M  END
>  <zinc_id>  (1) 
ZINC000003219277

>  <smiles>  (1) 
Cc1ccc(-c2ccccc2C(=O)OCC(=O)Nc2ccc(C(C)(C)C)cc2)cc1

$$$$
