
     RDKit          3D

 31 34  0  0  0  0  0  0  0  0999 V2000
   -6.5872    3.5777   -0.5714 C   0  0  0  0  0  0  0  0  0  0  0  0
   -5.6602    2.5176   -0.6190 O   0  0  0  0  0  0  0  0  0  0  0  0
   -4.4145    2.5779    0.0200 C   0  0  0  0  0  0  0  0  0  0  0  0
   -4.1251    3.7344    0.7092 C   0  0  0  0  0  0  0  0  0  0  0  0
   -2.9014    3.8171    1.3481 C   0  0  0  0  0  0  0  0  0  0  0  0
   -2.0063    2.7555    1.2841 C   0  0  0  0  0  0  0  0  0  0  0  0
   -0.7603    2.7865    1.9092 O   0  0  0  0  0  0  0  0  0  0  0  0
   -0.4374    3.9696    2.6274 C   0  0  0  0  0  0  0  0  0  0  0  0
   -2.3050    1.6040    0.5926 C   0  0  0  0  0  0  0  0  0  0  0  0
   -1.3689    0.5060    0.5345 N   0  0  0  0  0  0  0  0  0  0  0  0
   -1.6782   -0.6782   -0.1855 C   0  0  0  0  0  0  0  0  0  0  0  0
   -2.8131   -0.6945   -0.7600 O   0  0  0  0  0  0  0  0  0  0  0  0
   -0.7643   -1.8101   -0.2702 C   0  0  0  0  0  0  0  0  0  0  0  0
   -0.9359   -2.9340   -0.9163 O   0  0  0  0  0  0  0  0  0  0  0  0
    0.0927   -3.7375   -0.7780 C   0  0  0  0  0  0  0  0  0  0  0  0
    0.3547   -5.0193   -1.2757 C   0  0  0  0  0  0  0  0  0  0  0  0
    1.5470   -5.6225   -0.9520 C   0  0  0  0  0  0  0  0  0  0  0  0
    2.4589   -4.9726   -0.1545 C   0  0  0  0  0  0  0  0  0  0  0  0
    2.1972   -3.7201    0.3285 C   0  0  0  0  0  0  0  0  0  0  0  0
    1.0006   -3.0933    0.0140 C   0  0  0  0  0  0  0  0  0  0  0  0
    0.4676   -1.8529    0.3505 C   0  0  0  0  0  0  0  0  0  0  0  0
    1.0863   -0.8234    1.1996 C   0  0  0  0  0  0  0  0  0  0  0  0
    2.7137   -1.3268    1.7663 S   0  0  0  0  0  0  0  0  0  0  0  0
    3.8171   -1.3699    0.3210 C   0  0  0  0  0  0  0  0  0  0  0  0
    3.9549    0.0469   -0.1419 C   0  0  0  0  0  0  0  0  0  0  0  0
    3.0748    0.6004   -1.0735 C   0  0  0  0  0  0  0  0  0  0  0  0
    3.2242    1.9068   -1.4827 C   0  0  0  0  0  0  0  0  0  0  0  0
    4.2335    2.6981   -0.9918 C   0  0  0  0  0  0  0  0  0  0  0  0
    5.1067    2.1621   -0.0732 C   0  0  0  0  0  0  0  0  0  0  0  0
    4.9587    0.8511    0.3387 C   0  0  0  0  0  0  0  0  0  0  0  0
   -3.5308    1.5433   -0.0369 C   0  0  0  0  0  0  0  0  0  0  0  0
  1  2  1  0
  2  3  1  0
  3  4  2  0
  4  5  1  0
  5  6  2  0
  6  7  1  0
  7  8  1  0
  6  9  1  0
  9 10  1  0
 10 11  1  0
 11 12  2  0
 11 13  1  0
 13 14  1  0
 14 15  1  0
 15 16  2  0
 16 17  1  0
 17 18  2  0
 18 19  1  0
 19 20  2  0
 20 21  1  0
 21 22  1  0
 22 23  1  0
 23 24  1  0
 24 25  1  0
 25 26  2  0
 26 27  1  0
 27 28  2  0
 28 29  1  0
 29 30  2  0
  9 31  2  0
 31  3  1  0
 21 13  2  0
 30 25  1  0
 20 15  1  0
M  END
>  <zinc_id>  (1) 
ZINC000002652402

>  <smiles>  (1) 
COc1ccc(OC)c(NC(=O)c2oc3ccccc3c2CSCc2ccccc2)c1

$$$$
