
     RDKit          3D

 23 25  0  0  0  0  0  0  0  0999 V2000
    2.2099   -0.0454    3.7688 C   0  0  0  0  0  0  0  0  0  0  0  0
    1.6454   -0.5870    2.5828 O   0  0  0  0  0  0  0  0  0  0  0  0
    0.4749   -0.0464    2.0681 C   0  0  0  0  0  0  0  0  0  0  0  0
   -0.1558    1.0200    2.6970 C   0  0  0  0  0  0  0  0  0  0  0  0
   -1.3275    1.4949    2.1044 C   0  0  0  0  0  0  0  0  0  0  0  0
   -1.9537    2.4533    2.6113 O   0  0  0  0  0  0  0  0  0  0  0  0
   -1.7999    0.8983    0.9443 C   0  0  0  0  0  0  0  0  0  0  0  0
   -2.9550    1.3821    0.3784 C   0  0  0  0  0  0  0  0  0  0  0  0
   -3.4606    0.8121   -0.7831 C   0  0  0  0  0  0  0  0  0  0  0  0
   -4.7202    1.3805   -1.3525 C   0  0  0  0  0  0  0  0  0  0  0  0
   -2.8017   -0.2462   -1.3749 C   0  0  0  0  0  0  0  0  0  0  0  0
   -3.3969   -0.8083   -2.6148 C   0  0  0  0  0  0  0  0  0  0  0  0
   -1.6381   -0.7366   -0.8083 C   0  0  0  0  0  0  0  0  0  0  0  0
   -1.1390   -0.1648    0.3488 C   0  0  0  0  0  0  0  0  0  0  0  0
   -0.0134   -0.5970    0.9462 N   0  0  0  0  0  0  0  0  0  0  0  0
    0.6790   -1.7091    0.3243 C   0  0  0  0  0  0  0  0  0  0  0  0
    1.6849   -1.2278   -0.6709 C   0  0  0  0  0  0  0  0  0  0  0  0
    1.3617   -1.0298   -1.9969 C   0  0  0  0  0  0  0  0  0  0  0  0
    2.2815   -0.5856   -2.9258 C   0  0  0  0  0  0  0  0  0  0  0  0
    3.5851   -0.3163   -2.5613 C   0  0  0  0  0  0  0  0  0  0  0  0
    4.5430    0.1321   -3.4622 O   0  0  0  0  0  0  0  0  0  0  0  0
    3.9086   -0.5147   -1.2328 C   0  0  0  0  0  0  0  0  0  0  0  0
    2.9877   -0.9583   -0.3080 C   0  0  0  0  0  0  0  0  0  0  0  0
  1  2  1  0
  2  3  1  0
  3  4  2  0
  4  5  1  0
  5  6  2  0
  5  7  1  0
  7  8  2  0
  8  9  1  0
  9 10  1  0
  9 11  2  0
 11 12  1  0
 11 13  1  0
 13 14  2  0
 14 15  1  0
 15 16  1  0
 16 17  1  0
 17 18  2  0
 18 19  1  0
 19 20  2  0
 20 21  1  0
 20 22  1  0
 22 23  2  0
 15  3  1  0
 23 17  1  0
 14  7  1  0
M  END
>  <zinc_id>  (1) 
ZINC000000008167

>  <smiles>  (1) 
COc1cc(=O)c2cc(C)c(C)cc2n1Cc1ccc(O)cc1

$$$$
