
     RDKit          3D

 21 23  0  0  0  0  0  0  0  0999 V2000
    2.3514    0.7490    2.3698 C   0  0  0  0  0  0  0  0  0  0  0  0
    1.6354    0.0390    1.3777 O   0  0  0  0  0  0  0  0  0  0  0  0
    2.0948    0.2250    0.0681 C   0  0  0  0  0  0  0  0  0  0  0  0
    3.1787    1.0494   -0.2392 C   0  0  0  0  0  0  0  0  0  0  0  0
    3.5358    1.1551   -1.5392 C   0  0  0  0  0  0  0  0  0  0  0  0
    2.9044    0.5095   -2.5553 C   0  0  0  0  0  0  0  0  0  0  0  0
    1.8176   -0.3119   -2.2084 C   0  0  0  0  0  0  0  0  0  0  0  0
    1.4535   -0.4208   -0.8913 C   0  0  0  0  0  0  0  0  0  0  0  0
    0.2193   -1.3786   -0.6861 C   0  0  1  0  0  0  0  0  0  0  0  0
    0.6229   -1.9414    0.7819 C   0  0  0  0  0  0  0  0  0  0  0  0
   -0.5862   -2.7011    1.1701 C   0  0  0  0  0  0  0  0  0  0  0  0
   -0.6033   -3.9196    1.1674 O   0  0  0  0  0  0  0  0  0  0  0  0
   -1.6527   -1.8196    1.5231 N   0  0  0  0  0  0  0  0  0  0  0  0
   -1.7079   -0.6145    0.7049 C   0  0  0  0  0  0  0  0  0  0  0  0
   -2.7245    0.2695    1.0802 C   0  0  0  0  0  0  0  0  0  0  0  0
   -2.8219    1.4580    0.3810 C   0  0  0  0  0  0  0  0  0  0  0  0
   -3.8989    2.4305    0.7546 C   0  0  0  0  0  0  0  0  0  0  0  0
   -1.9447    1.7467   -0.6433 C   0  0  0  0  0  0  0  0  0  0  0  0
   -2.0949    3.0219   -1.3488 C   0  0  0  0  0  0  0  0  0  0  0  0
   -0.9344    0.8108   -0.9791 C   0  0  0  0  0  0  0  0  0  0  0  0
   -0.8442   -0.3570   -0.2879 C   0  0  0  0  0  0  0  0  0  0  0  0
  1  2  1  0
  2  3  1  0
  3  4  2  0
  4  5  1  0
  5  6  2  0
  6  7  1  0
  7  8  2  0
  9  8  1  1
  9 10  1  0
 10 11  1  0
 11 12  2  0
 11 13  1  0
 13 14  1  0
 14 15  2  0
 15 16  1  0
 16 17  1  0
 16 18  2  0
 18 19  1  0
 18 20  1  0
 20 21  2  0
  8  3  1  0
 21  9  1  0
 21 14  1  0
M  END
>  <zinc_id>  (1) 
ZINC000000036523

>  <smiles>  (1) 
COc1ccccc1[C@H]1CC(=O)Nc2cc(C)c(C)cc21

$$$$
