
     RDKit          3D

 19 21  0  0  0  0  0  0  0  0999 V2000
   -1.1048    3.0468    0.2685 N   0  0  0  0  0  0  0  0  0  0  0  0
   -0.2943    1.8807   -0.0123 C   0  0  0  0  0  0  0  0  0  0  0  0
    0.9864    1.6637    0.4384 C   0  0  0  0  0  0  0  0  0  0  0  0
    1.4116    0.4577   -0.0357 C   0  0  0  0  0  0  0  0  0  0  0  0
    2.7126   -0.1693    0.1984 C   0  0  0  0  0  0  0  0  0  0  0  0
    3.0181   -1.3931   -0.3389 C   0  0  0  0  0  0  0  0  0  0  0  0
    4.2426   -1.9863   -0.1201 C   0  0  0  0  0  0  0  0  0  0  0  0
    5.1999   -1.3619    0.6495 C   0  0  0  0  0  0  0  0  0  0  0  0
    4.8698   -0.1234    1.1839 C   0  0  0  0  0  0  0  0  0  0  0  0
    3.6433    0.4667    0.9626 C   0  0  0  0  0  0  0  0  0  0  0  0
    0.3796   -0.0149   -0.7551 N   0  0  0  0  0  0  0  0  0  0  0  0
   -0.6350    0.8198   -0.7475 N   0  0  0  0  0  0  0  0  0  0  0  0
   -1.8962    0.6226   -1.4175 C   0  0  0  0  0  0  0  0  0  0  0  0
   -2.9196   -0.0703   -0.5899 C   0  0  0  0  0  0  0  0  0  0  0  0
   -2.5257   -1.4363   -0.1358 C   0  0  0  0  0  0  0  0  0  0  0  0
   -3.7049   -2.0435    0.6181 C   0  0  0  0  0  0  0  0  0  0  0  0
   -4.9773   -1.2637    0.2633 C   0  0  0  0  0  0  0  0  0  0  0  0
   -4.8674    0.1276    0.8646 C   0  0  0  0  0  0  0  0  0  0  0  0
   -3.5385    0.7772    0.4721 C   0  0  0  0  0  0  0  0  0  0  0  0
  1  2  1  0
  2  3  2  0
  3  4  1  0
  4  5  1  0
  5  6  2  0
  6  7  1  0
  7  8  2  0
  8  9  1  0
  9 10  2  0
  4 11  2  0
 11 12  1  0
 12 13  1  0
 13 14  1  0
 14 15  1  0
 15 16  1  0
 16 17  1  0
 17 18  1  0
 18 19  1  0
 12  2  1  0
 19 14  1  0
 10  5  1  0
M  END
>  <zinc_id>  (1) 
ZINC000000051168

>  <smiles>  (1) 
Nc1cc(-c2ccccc2)nn1CC1CCCCC1

$$$$
