
     RDKit          3D

 22 26  0  0  0  0  0  0  0  0999 V2000
   -0.4294   -0.4620    0.7134 O   0  0  0  0  0  0  0  0  0  0  0  0
   -1.4723   -0.1967   -0.1366 C   0  0  0  0  0  0  0  0  0  0  0  0
   -1.0124   -0.1384   -1.6023 C   0  0  0  0  0  0  0  0  0  0  0  0
    0.2157    1.1346   -1.8737 S   0  0  0  0  0  0  0  0  0  0  0  0
    1.7000    0.7010   -1.0055 C   0  0  0  0  0  0  0  0  0  0  0  0
    1.9826    1.0413    0.2620 N   0  0  0  0  0  0  0  0  0  0  0  0
    3.1752    0.5645    0.6291 C   0  0  0  0  0  0  0  0  0  0  0  0
    3.9320    0.6196    1.7957 C   0  0  0  0  0  0  0  0  0  0  0  0
    5.1650    0.0264    1.9145 C   0  0  0  0  0  0  0  0  0  0  0  0
    5.6564   -0.6563    0.7996 C   0  0  0  0  0  0  0  0  0  0  0  0
    4.9152   -0.7169   -0.3593 C   0  0  0  0  0  0  0  0  0  0  0  0
    3.6764   -0.1136   -0.4611 C   0  0  0  0  0  0  0  0  0  0  0  0
    2.7569   -0.0131   -1.4398 N   0  0  0  0  0  0  0  0  0  0  0  0
   -2.0777    1.1672    0.2103 C   0  0  0  0  0  0  0  0  0  0  0  0
   -2.9135    1.1027    1.4458 C   0  0  0  0  0  0  0  0  0  0  0  0
   -4.0413    0.0867    1.3479 C   0  0  0  0  0  0  0  0  0  0  0  0
   -4.8839    0.4678    0.1362 C   0  0  0  0  0  0  0  0  0  0  0  0
   -4.0103    0.4878   -1.1180 C   0  0  0  0  0  0  0  0  0  0  0  0
   -2.9350    1.5321   -1.0031 C   0  0  0  0  0  0  0  0  0  0  0  0
   -3.4690   -0.9133   -1.3092 C   0  0  0  0  0  0  0  0  0  0  0  0
   -2.5700   -1.2387   -0.1088 C   0  0  0  0  0  0  0  0  0  0  0  0
   -3.3606   -1.2590    1.1629 C   0  0  0  0  0  0  0  0  0  0  0  0
  1  2  1  0
  2  3  1  0
  3  4  1  0
  4  5  1  0
  5  6  2  0
  6  7  1  0
  7  8  2  0
  8  9  1  0
  9 10  2  0
 10 11  1  0
 11 12  2  0
 12 13  1  0
  2 14  1  0
 14 15  1  0
 15 16  1  0
 16 17  1  0
 17 18  1  0
 18 19  1  0
 18 20  1  0
 20 21  1  0
 21 22  1  0
 21  2  1  0
 13  5  1  0
 19 14  1  0
 12  7  1  0
 22 16  1  0
M  END
>  <zinc_id>  (1) 
ZINC000000436303

>  <smiles>  (1) 
OC1(CSc2nc3ccccc3[nH]2)C2CC3CC(C2)CC1C3

$$$$
