
     RDKit          3D

 33 36  0  0  0  0  0  0  0  0999 V2000
   -4.5911    6.3538    0.5820 C   0  0  0  0  0  0  0  0  0  0  0  0
   -4.1605    5.0537   -0.0670 C   0  0  0  0  0  0  0  0  0  0  0  0
   -3.8649    4.0015    1.0024 C   0  0  0  0  0  0  0  0  0  0  0  0
   -3.4404    2.7348    0.2720 C   0  0  0  0  0  0  0  0  0  0  0  0
   -2.2204    3.0967   -0.5234 C   0  0  0  0  0  0  0  0  0  0  0  0
   -1.7437    1.9083   -1.2587 C   0  0  0  0  0  0  0  0  0  0  0  0
   -1.3770    0.7654   -0.3784 C   0  0  0  0  0  0  0  0  0  0  0  0
   -0.2075    0.2678   -0.3083 C   0  0  0  0  0  0  0  0  0  0  0  0
    0.9909    0.6402   -1.0009 C   0  0  0  0  0  0  0  0  0  0  0  0
    0.8767    1.6220   -1.8134 O   0  0  0  0  0  0  0  0  0  0  0  0
    2.2638    0.1327   -0.9583 N   0  0  0  0  0  0  0  0  0  0  0  0
    3.4087    0.7667   -1.8565 C   0  0  1  0  0  0  0  0  0  0  0  0
    3.0845    2.3764   -1.4503 C   0  0  0  0  0  0  0  0  0  0  0  0
    4.5779    0.5568   -0.7646 C   0  0  0  0  0  0  0  0  0  0  0  0
    5.4302    1.5546   -0.4852 C   0  0  0  0  0  0  0  0  0  0  0  0
    6.4147    1.2998    0.4538 C   0  0  0  0  0  0  0  0  0  0  0  0
    6.5299    0.1006    1.0759 C   0  0  0  0  0  0  0  0  0  0  0  0
    7.5239   -0.0844    1.9947 F   0  0  0  0  0  0  0  0  0  0  0  0
    5.6347   -0.9224    0.7715 C   0  0  0  0  0  0  0  0  0  0  0  0
    4.6573   -0.6580   -0.1659 C   0  0  0  0  0  0  0  0  0  0  0  0
   -0.2454   -0.9495    0.7575 C   0  0  2  0  0  0  0  0  0  0  0  0
   -1.2018   -1.9620   -0.1028 C   0  0  0  0  0  0  0  0  0  0  0  0
   -0.9169   -2.0882   -1.4185 C   0  0  0  0  0  0  0  0  0  0  0  0
   -1.7332   -2.9570   -2.1175 C   0  0  0  0  0  0  0  0  0  0  0  0
   -2.7685   -3.6444   -1.5000 C   0  0  0  0  0  0  0  0  0  0  0  0
   -2.9920   -3.4545   -0.1403 C   0  0  0  0  0  0  0  0  0  0  0  0
   -4.0263   -4.1472    0.4502 C   0  0  0  0  0  0  0  0  0  0  0  0
   -4.2547   -3.9603    1.8082 C   0  0  0  0  0  0  0  0  0  0  0  0
   -3.4459   -3.0955    2.5160 C   0  0  0  0  0  0  0  0  0  0  0  0
   -2.4101   -2.3997    1.9327 C   0  0  0  0  0  0  0  0  0  0  0  0
   -2.1888   -2.5885    0.5881 C   0  0  0  0  0  0  0  0  0  0  0  0
   -1.4057   -0.3486    1.5718 O   0  0  0  0  0  0  0  0  0  0  0  0
   -2.1982    0.0283    0.5332 N   0  0  0  0  0  0  0  0  0  0  0  0
  1  2  1  0
  2  3  1  0
  3  4  1  0
  4  5  1  0
  5  6  1  0
  6  7  1  0
  7  8  2  0
  8  9  1  0
  9 10  2  0
  9 11  1  0
 11 12  1  0
 12 13  1  1
 12 14  1  0
 14 15  2  0
 15 16  1  0
 16 17  2  0
 17 18  1  0
 17 19  1  0
 19 20  2  0
  8 21  1  0
 21 22  1  6
 22 23  2  0
 23 24  1  0
 24 25  2  0
 25 26  1  0
 26 27  2  0
 27 28  1  0
 28 29  2  0
 29 30  1  0
 30 31  2  0
 21 32  1  0
 32 33  1  0
 33  7  1  0
 20 14  1  0
 31 22  1  0
 31 26  1  0
M  END
>  <zinc_id>  (1) 
ZINC000002474883

>  <smiles>  (1) 
CCCCCCC1=C(C(=O)N[C@@H](C)c2ccc(F)cc2)[C@H](c2cccc3ccccc23)ON1

$$$$
