
     RDKit          3D

 34 38  0  0  0  0  0  0  0  0999 V2000
   -2.8514    2.1786   -1.9608 C   0  0  0  0  0  0  0  0  0  0  0  0
   -1.9275    1.5886   -0.9382 C   0  0  0  0  0  0  0  0  0  0  0  0
   -1.0587    0.5568   -1.2167 C   0  0  0  0  0  0  0  0  0  0  0  0
   -0.8306   -0.1592   -2.4473 C   0  0  0  0  0  0  0  0  0  0  0  0
    0.0339    0.2770   -3.2240 O   0  0  0  0  0  0  0  0  0  0  0  0
   -1.5105   -1.3179   -2.8434 N   0  0  0  0  0  0  0  0  0  0  0  0
   -1.3568   -2.1021   -4.0448 C   0  0  0  0  0  0  0  0  0  0  0  0
   -2.8170   -1.9825   -4.4849 C   0  0  0  0  0  0  0  0  0  0  0  0
   -3.5360   -2.4972   -3.2958 C   0  0  0  0  0  0  0  0  0  0  0  0
   -2.6194   -2.0371   -2.0444 C   0  0  1  0  0  0  0  0  0  0  0  0
   -1.8821   -3.4564   -1.8557 C   0  0  0  0  0  0  0  0  0  0  0  0
   -1.6193   -4.0299   -3.0540 O   0  0  0  0  0  0  0  0  0  0  0  0
   -0.3751    0.2874   -0.0257 C   0  0  0  0  0  0  0  0  0  0  0  0
    0.6061   -0.6358    0.2891 C   0  0  0  0  0  0  0  0  0  0  0  0
    1.1263   -0.7019    1.5564 C   0  0  0  0  0  0  0  0  0  0  0  0
    2.1092   -1.6303    1.8624 O   0  0  0  0  0  0  0  0  0  0  0  0
    2.6734   -1.7329    3.1568 C   0  0  0  0  0  0  0  0  0  0  0  0
    3.6793   -2.8260    3.0981 C   0  0  0  0  0  0  0  0  0  0  0  0
    4.3686   -3.1161    4.2515 C   0  0  0  0  0  0  0  0  0  0  0  0
    5.3332   -4.1280    4.2894 C   0  0  0  0  0  0  0  0  0  0  0  0
    5.6133   -4.8590    3.1632 C   0  0  0  0  0  0  0  0  0  0  0  0
    4.9117   -4.5536    2.0156 C   0  0  0  0  0  0  0  0  0  0  0  0
    3.9589   -3.5556    1.9743 C   0  0  0  0  0  0  0  0  0  0  0  0
    0.6274    0.1852    2.4824 C   0  0  0  0  0  0  0  0  0  0  0  0
   -0.3469    1.1154    2.2051 C   0  0  0  0  0  0  0  0  0  0  0  0
   -0.8538    1.1546    0.9042 C   0  0  0  0  0  0  0  0  0  0  0  0
   -1.8037    1.9512    0.3472 N   0  0  0  0  0  0  0  0  0  0  0  0
   -2.5575    2.9916    0.9664 C   0  0  0  0  0  0  0  0  0  0  0  0
   -1.8772    4.3018    0.8537 C   0  0  0  0  0  0  0  0  0  0  0  0
   -1.0023    4.6349    1.8854 C   0  0  0  0  0  0  0  0  0  0  0  0
   -0.3148    5.8362    1.8785 C   0  0  0  0  0  0  0  0  0  0  0  0
   -0.4869    6.7202    0.8490 C   0  0  0  0  0  0  0  0  0  0  0  0
   -1.3580    6.3658   -0.1585 C   0  0  0  0  0  0  0  0  0  0  0  0
   -2.0559    5.1762   -0.1773 C   0  0  0  0  0  0  0  0  0  0  0  0
  1  2  1  0
  2  3  2  0
  3  4  1  0
  4  5  2  0
  4  6  1  0
  6  7  1  0
  7  8  1  0
  8  9  1  0
  9 10  1  0
 10 11  1  6
 11 12  1  0
  3 13  1  0
 13 14  2  0
 14 15  1  0
 15 16  1  0
 16 17  1  0
 17 18  1  0
 18 19  2  0
 19 20  1  0
 20 21  2  0
 21 22  1  0
 22 23  2  0
 15 24  2  0
 24 25  1  0
 25 26  2  0
 26 27  1  0
 27 28  1  0
 28 29  1  0
 29 30  2  0
 30 31  1  0
 31 32  2  0
 32 33  1  0
 33 34  2  0
 27  2  1  0
 34 29  1  0
 10  6  1  0
 26 13  1  0
 23 18  1  0
M  END
>  <zinc_id>  (1) 
ZINC000000762708

>  <smiles>  (1) 
Cc1c(C(=O)N2CCC[C@H]2CO)c2cc(OCc3ccccc3)ccc2n1Cc1ccccc1

$$$$
