
     RDKit          3D

 29 32  0  0  0  0  0  0  0  0999 V2000
    0.8824   -1.3918   -3.1714 C   0  0  0  0  0  0  0  0  0  0  0  0
    0.7259   -0.0501   -2.4418 C   0  0  0  0  0  0  0  0  0  0  0  0
    0.4746   -0.3916   -1.0268 C   0  0  0  0  0  0  0  0  0  0  0  0
   -0.7172   -0.8553   -0.5218 C   0  0  0  0  0  0  0  0  0  0  0  0
   -1.9809   -1.1246   -1.1920 C   0  0  0  0  0  0  0  0  0  0  0  0
   -2.0397   -0.9121   -2.4249 O   0  0  0  0  0  0  0  0  0  0  0  0
   -3.1277   -1.6069   -0.5323 N   0  0  0  0  0  0  0  0  0  0  0  0
   -4.3354   -1.8506   -1.2692 C   0  0  0  0  0  0  0  0  0  0  0  0
   -3.0837   -1.8717    0.8757 C   0  0  0  0  0  0  0  0  0  0  0  0
   -3.4238   -0.7232    1.7453 C   0  0  0  0  0  0  0  0  0  0  0  0
   -4.7606   -0.1656    1.6129 C   0  0  0  0  0  0  0  0  0  0  0  0
   -5.0819    0.9429    2.3863 C   0  0  0  0  0  0  0  0  0  0  0  0
   -6.3489    1.4709    2.2819 C   0  0  0  0  0  0  0  0  0  0  0  0
   -7.2837    0.9307    1.4417 C   0  0  0  0  0  0  0  0  0  0  0  0
   -6.9126   -0.1798    0.6877 C   0  0  0  0  0  0  0  0  0  0  0  0
   -5.6638   -0.6935    0.7963 N   0  0  0  0  0  0  0  0  0  0  0  0
   -0.4781   -1.0305    0.8072 N   0  0  0  0  0  0  0  0  0  0  0  0
    0.7802   -0.6873    1.0543 N   0  0  0  0  0  0  0  0  0  0  0  0
    1.3935   -0.2913   -0.0455 N   0  0  0  0  0  0  0  0  0  0  0  0
    2.7382    0.1502   -0.2004 C   0  0  0  0  0  0  0  0  0  0  0  0
    3.3227    0.2340   -1.4539 C   0  0  0  0  0  0  0  0  0  0  0  0
    4.6271    0.6588   -1.5942 C   0  0  0  0  0  0  0  0  0  0  0  0
    5.4159    1.0188   -0.5248 C   0  0  0  0  0  0  0  0  0  0  0  0
    4.8253    0.9336    0.7353 C   0  0  0  0  0  0  0  0  0  0  0  0
    3.5199    0.5089    0.8788 C   0  0  0  0  0  0  0  0  0  0  0  0
    5.6274    1.2978    1.8053 O   0  0  0  0  0  0  0  0  0  0  0  0
    6.8814    1.8972    1.7136 C   0  0  0  0  0  0  0  0  0  0  0  0
    7.2912    2.3323    0.3462 C   0  0  0  0  0  0  0  0  0  0  0  0
    6.7323    1.4497   -0.6393 O   0  0  0  0  0  0  0  0  0  0  0  0
  1  2  1  0
  2  3  1  0
  3  4  2  0
  4  5  1  0
  5  6  2  0
  5  7  1  0
  7  8  1  0
  7  9  1  0
  9 10  1  0
 10 11  1  0
 11 12  2  0
 12 13  1  0
 13 14  2  0
 14 15  1  0
 15 16  2  0
  4 17  1  0
 17 18  2  0
 18 19  1  0
 19 20  1  0
 20 21  2  0
 21 22  1  0
 22 23  2  0
 23 24  1  0
 24 25  2  0
 24 26  1  0
 26 27  1  0
 27 28  1  0
 28 29  1  0
 19  3  1  0
 25 20  1  0
 16 11  1  0
 29 23  1  0
M  END
>  <zinc_id>  (1) 
ZINC000000041023

>  <smiles>  (1) 
CCc1c(C(=O)N(C)CCc2ccccn2)nnn1-c1ccc2c(c1)OCCO2

$$$$
