
     RDKit          3D

 33 36  0  0  0  0  0  0  0  0999 V2000
   -2.7443    2.2538    1.8562 C   0  0  0  0  0  0  0  0  0  0  0  0
   -2.3050    0.9952    1.4377 O   0  0  0  0  0  0  0  0  0  0  0  0
   -3.1081   -0.1109    1.5795 C   0  0  0  0  0  0  0  0  0  0  0  0
   -4.3792    0.0647    2.1352 C   0  0  0  0  0  0  0  0  0  0  0  0
   -5.2504   -0.9803    2.3117 C   0  0  0  0  0  0  0  0  0  0  0  0
   -4.8469   -2.2620    1.9258 C   0  0  0  0  0  0  0  0  0  0  0  0
   -3.5993   -2.4216    1.3822 C   0  0  0  0  0  0  0  0  0  0  0  0
   -2.7618   -1.3855    1.2145 C   0  0  0  0  0  0  0  0  0  0  0  0
   -1.3190   -1.6654    0.5924 C   0  0  1  0  0  0  0  0  0  0  0  0
   -1.7714   -2.6446   -0.5058 O   0  0  0  0  0  0  0  0  0  0  0  0
   -2.8306   -1.9484   -0.9787 N   0  0  0  0  0  0  0  0  0  0  0  0
   -2.2023   -0.6842   -1.3057 C   0  0  0  0  0  0  0  0  0  0  0  0
   -2.5613    0.1816   -2.4416 C   0  0  0  0  0  0  0  0  0  0  0  0
   -3.9566    0.3531   -2.5797 C   0  0  0  0  0  0  0  0  0  0  0  0
   -4.4867    1.1240   -3.5835 C   0  0  0  0  0  0  0  0  0  0  0  0
   -3.6021    1.7286   -4.4532 C   0  0  0  0  0  0  0  0  0  0  0  0
   -2.2221    1.5670   -4.3283 C   0  0  0  0  0  0  0  0  0  0  0  0
   -1.7310    0.7796   -3.3021 C   0  0  0  0  0  0  0  0  0  0  0  0
   -1.2906   -0.4047   -0.4580 C   0  0  0  0  0  0  0  0  0  0  0  0
   -0.2660    0.6124   -0.3186 C   0  0  0  0  0  0  0  0  0  0  0  0
   -0.1338    1.4542   -1.2150 O   0  0  0  0  0  0  0  0  0  0  0  0
    0.5859    0.7255    0.7849 N   0  0  0  0  0  0  0  0  0  0  0  0
    1.6118    1.5439    1.1949 C   0  0  0  0  0  0  0  0  0  0  0  0
    2.9608    1.0362    0.9384 C   0  0  0  0  0  0  0  0  0  0  0  0
    3.3892    0.2619   -0.0893 C   0  0  0  0  0  0  0  0  0  0  0  0
    4.6928   -0.2189   -0.1478 C   0  0  0  0  0  0  0  0  0  0  0  0
    5.6044    0.0739    0.8409 C   0  0  0  0  0  0  0  0  0  0  0  0
    6.9967   -0.4414    0.8945 C   0  0  0  0  0  0  0  0  0  0  0  0
    7.3224   -0.9075    2.3017 C   0  0  0  0  0  0  0  0  0  0  0  0
    7.2046   -1.5680   -0.0969 C   0  0  0  0  0  0  0  0  0  0  0  0
    7.9801    0.6715    0.5862 C   0  0  0  0  0  0  0  0  0  0  0  0
    5.1399    0.8687    1.8753 C   0  0  0  0  0  0  0  0  0  0  0  0
    3.8797    1.3478    1.9523 C   0  0  0  0  0  0  0  0  0  0  0  0
  1  2  1  0
  2  3  1  0
  3  4  2  0
  4  5  1  0
  5  6  2  0
  6  7  1  0
  7  8  2  0
  9  8  1  1
  9 10  1  0
 10 11  1  0
 11 12  1  0
 12 13  1  0
 13 14  2  0
 14 15  1  0
 15 16  2  0
 16 17  1  0
 17 18  2  0
 12 19  2  0
 19 20  1  0
 20 21  2  0
 20 22  1  0
 22 23  1  0
 23 24  1  0
 24 25  2  0
 25 26  1  0
 26 27  2  0
 27 28  1  0
 28 29  1  0
 28 30  1  0
 28 31  1  0
 27 32  1  0
 32 33  2  0
  8  3  1  0
 19  9  1  0
 33 24  1  0
 18 13  1  0
M  END
>  <zinc_id>  (1) 
ZINC000002460045

>  <smiles>  (1) 
COc1ccccc1[C@H]1ONC(c2ccccc2)=C1C(=O)NCc1ccc(C(C)(C)C)cc1

$$$$
