
     RDKit          3D

 20 21  0  0  0  0  0  0  0  0999 V2000
   -3.1125   -2.4976   -0.5308 C   0  0  0  0  0  0  0  0  0  0  0  0
   -3.7571   -1.1979   -1.3055 C   0  0  1  0  0  0  0  0  0  0  0  0
   -5.1782   -1.3267   -0.5244 C   0  0  0  0  0  0  0  0  0  0  0  0
   -5.8587   -0.0242   -0.9481 C   0  0  0  0  0  0  0  0  0  0  0  0
   -5.3040    1.0546   -0.0398 C   0  0  0  0  0  0  0  0  0  0  0  0
   -3.9953    0.6304    0.5783 C   0  0  0  0  0  0  0  0  0  0  0  0
   -3.1456   -0.1544   -0.2859 C   0  0  0  0  0  0  0  0  0  0  0  0
   -1.8774   -0.0561   -0.2797 N   0  0  0  0  0  0  0  0  0  0  0  0
   -1.1374    0.7815    0.5203 N   0  0  0  0  0  0  0  0  0  0  0  0
    0.2102    1.1022    0.1569 C   0  0  0  0  0  0  0  0  0  0  0  0
    0.6887    0.6037   -0.8975 O   0  0  0  0  0  0  0  0  0  0  0  0
    0.9975    2.0069    1.0284 C   0  0  0  0  0  0  0  0  0  0  0  0
    2.3102    2.1562    0.4371 N   0  0  0  0  0  0  0  0  0  0  0  0
    3.1077    0.9810    0.3100 C   0  0  0  0  0  0  0  0  0  0  0  0
    2.7197   -0.2618    0.7360 C   0  0  0  0  0  0  0  0  0  0  0  0
    3.5137   -1.3781    0.5986 C   0  0  0  0  0  0  0  0  0  0  0  0
    4.7392   -1.2174    0.0086 C   0  0  0  0  0  0  0  0  0  0  0  0
    5.5444   -2.3074   -0.1392 F   0  0  0  0  0  0  0  0  0  0  0  0
    5.1791    0.0058   -0.4371 C   0  0  0  0  0  0  0  0  0  0  0  0
    4.3558    1.0993   -0.2818 C   0  0  0  0  0  0  0  0  0  0  0  0
  2  1  1  1
  2  3  1  0
  3  4  1  0
  4  5  1  0
  5  6  1  0
  6  7  1  0
  7  8  2  3
  8  9  1  0
  9 10  1  0
 10 11  2  0
 10 12  1  0
 12 13  1  0
 13 14  1  0
 14 15  2  0
 15 16  1  0
 16 17  2  0
 17 18  1  0
 17 19  1  0
 19 20  2  0
  7  2  1  0
 20 14  1  0
M  END
>  <zinc_id>  (1) 
ZINC000000252220

>  <smiles>  (1) 
C[C@H]1CCCCC1=NNC(=O)CNc1ccc(F)cc1

$$$$
