
     RDKit          3D

 20 22  0  0  0  0  0  0  0  0999 V2000
    5.1807    1.6470    0.9912 C   0  0  0  0  0  0  0  0  0  0  0  0
    4.9130    0.3319    1.7070 C   0  0  0  0  0  0  0  0  0  0  0  0
    4.3347   -0.5608    0.4414 C   0  0  1  0  0  0  0  0  0  0  0  0
    4.1129   -1.8876    1.3769 C   0  0  0  0  0  0  0  0  0  0  0  0
    2.8694   -0.0845    0.6115 N   0  0  0  0  0  0  0  0  0  0  0  0
    1.8692   -0.5318   -0.2250 C   0  0  0  0  0  0  0  0  0  0  0  0
    2.0787   -1.3939   -1.2283 N   0  0  0  0  0  0  0  0  0  0  0  0
    1.0924   -1.8244   -2.0402 C   0  0  0  0  0  0  0  0  0  0  0  0
   -0.1572   -1.3772   -1.8446 N   0  0  0  0  0  0  0  0  0  0  0  0
   -0.4620   -0.5136   -0.8665 C   0  0  0  0  0  0  0  0  0  0  0  0
    0.5807   -0.0862   -0.0424 C   0  0  0  0  0  0  0  0  0  0  0  0
    0.0104    0.7594    0.8378 N   0  0  0  0  0  0  0  0  0  0  0  0
   -1.3007    0.8821    0.6156 C   0  0  0  0  0  0  0  0  0  0  0  0
   -2.2572    1.6198    1.2530 C   0  0  0  0  0  0  0  0  0  0  0  0
   -3.5657    1.5477    0.7914 C   0  0  0  0  0  0  0  0  0  0  0  0
   -3.9128    0.7584   -0.2808 C   0  0  0  0  0  0  0  0  0  0  0  0
   -5.2201    0.6867   -0.7416 O   0  0  0  0  0  0  0  0  0  0  0  0
   -5.6191   -0.1005   -1.8259 C   0  0  0  0  0  0  0  0  0  0  0  0
   -2.9237    0.0370   -0.8887 C   0  0  0  0  0  0  0  0  0  0  0  0
   -1.6236    0.0904   -0.4525 C   0  0  0  0  0  0  0  0  0  0  0  0
  1  2  1  0
  2  3  1  0
  3  4  1  1
  3  5  1  0
  5  6  1  0
  6  7  2  0
  7  8  1  0
  8  9  2  0
  9 10  1  0
 10 11  2  0
 11 12  1  0
 12 13  1  0
 13 14  2  0
 14 15  1  0
 15 16  2  0
 16 17  1  0
 17 18  1  0
 16 19  1  0
 19 20  2  0
 11  6  1  0
 20 13  1  0
 20 10  1  0
M  END
>  <zinc_id>  (1) 
ZINC000000541301

>  <smiles>  (1) 
CC[C@@H](C)Nc1ncnc2c1[nH]c1ccc(OC)cc12

$$$$
