
     RDKit          3D

 19 19  0  0  0  0  0  0  0  0999 V2000
    3.5825    2.0464   -0.3521 C   0  0  0  0  0  0  0  0  0  0  0  0
    3.8503    0.5704   -0.7074 C   0  0  0  0  0  0  0  0  0  0  0  0
    5.3803    0.3852   -0.6708 C   0  0  0  0  0  0  0  0  0  0  0  0
    3.5195    0.4560   -2.2120 C   0  0  0  0  0  0  0  0  0  0  0  0
    3.2350   -0.3441    0.0256 N   0  0  0  0  0  0  0  0  0  0  0  0
    2.6278   -1.2463    0.7488 C   0  0  0  0  0  0  0  0  0  0  0  0
    3.4815   -2.4023    1.6163 S   0  0  0  0  0  0  0  0  0  0  0  0
    1.1936   -1.3466    0.8417 N   0  0  0  0  0  0  0  0  0  0  0  0
    0.3122   -0.4725    0.2000 C   0  0  0  0  0  0  0  0  0  0  0  0
    0.7772    0.4620   -0.4986 O   0  0  0  0  0  0  0  0  0  0  0  0
   -1.1594   -0.6059    0.3117 C   0  0  0  0  0  0  0  0  0  0  0  0
   -1.8098   -1.8114    0.1330 C   0  0  0  0  0  0  0  0  0  0  0  0
   -3.1913   -1.8757    0.2527 C   0  0  0  0  0  0  0  0  0  0  0  0
   -3.9415   -0.7704    0.5470 C   0  0  0  0  0  0  0  0  0  0  0  0
   -3.2965    0.4548    0.7299 C   0  0  0  0  0  0  0  0  0  0  0  0
   -4.0231    1.6258    1.0440 N   0  0  0  0  0  4  0  0  0  0  0  0
   -5.2529    1.5898    1.1061 O   0  0  0  0  0  0  0  0  0  0  0  0
   -3.3696    2.7911    1.2709 O   0  0  0  0  0  1  0  0  0  0  0  0
   -1.9158    0.4939    0.6047 C   0  0  0  0  0  0  0  0  0  0  0  0
  1  2  1  0
  2  3  1  0
  2  4  1  0
  2  5  1  0
  5  6  1  0
  6  7  2  0
  6  8  1  0
  8  9  1  0
  9 10  2  0
  9 11  1  0
 11 12  2  0
 12 13  1  0
 13 14  2  0
 14 15  1  0
 15 16  1  0
 16 17  2  0
 16 18  1  0
 15 19  2  0
 19 11  1  0
M  CHG  2  16   1  18  -1
M  END
>  <zinc_id>  (1) 
ZINC000000503181

>  <smiles>  (1) 
CC(C)(C)NC(=S)NC(=O)c1cccc([N+](=O)[O-])c1

$$$$
