
     RDKit          3D

 21 23  0  0  0  0  0  0  0  0999 V2000
    1.6641    2.9701   -0.8581 C   0  0  0  0  0  0  0  0  0  0  0  0
    2.7235    2.0180   -0.3867 C   0  0  0  0  0  0  0  0  0  0  0  0
    4.0371    2.4416   -0.3706 C   0  0  0  0  0  0  0  0  0  0  0  0
    5.0475    1.6086    0.0525 C   0  0  0  0  0  0  0  0  0  0  0  0
    4.7493    0.3132    0.4738 C   0  0  0  0  0  0  0  0  0  0  0  0
    3.4225   -0.0939    0.4502 C   0  0  0  0  0  0  0  0  0  0  0  0
    2.4265    0.7409    0.0283 C   0  0  0  0  0  0  0  0  0  0  0  0
    1.0835    0.2784    0.0223 N   0  0  0  0  0  0  0  0  0  0  0  0
    0.6866   -1.0062    0.4273 C   0  0  0  0  0  0  0  0  0  0  0  0
    1.5458   -1.8038    0.8187 O   0  0  0  0  0  0  0  0  0  0  0  0
   -0.7220   -1.3822    0.3823 C   0  0  0  0  0  0  0  0  0  0  0  0
   -1.0940   -2.6442    0.7825 C   0  0  0  0  0  0  0  0  0  0  0  0
   -0.2836   -3.7254    1.2672 N   0  0  0  0  0  0  0  0  0  0  0  0
   -2.7775   -2.6626    0.5761 S   0  0  0  0  0  0  0  0  0  0  0  0
   -2.9903   -1.0760   -0.0133 C   0  0  0  0  0  0  0  0  0  0  0  0
   -1.7440   -0.5824   -0.0306 C   0  0  0  0  0  0  0  0  0  0  0  0
   -1.6050    0.8517   -0.5234 C   0  0  0  0  0  0  0  0  0  0  0  0
   -2.8280    1.2743   -1.2363 C   0  0  0  0  0  0  0  0  0  0  0  0
   -3.9330    1.1373   -0.0034 C   0  0  1  0  0  0  0  0  0  0  0  0
   -5.1499    1.7507   -0.9109 C   0  0  0  0  0  0  0  0  0  0  0  0
   -4.2592   -0.4082   -0.4150 C   0  0  0  0  0  0  0  0  0  0  0  0
  1  2  1  0
  2  3  2  0
  3  4  1  0
  4  5  2  0
  5  6  1  0
  6  7  2  0
  7  8  1  0
  8  9  1  0
  9 10  2  0
  9 11  1  0
 11 12  2  0
 12 13  1  0
 12 14  1  0
 14 15  1  0
 15 16  2  0
 16 17  1  0
 17 18  1  0
 18 19  1  0
 19 20  1  6
 19 21  1  0
  7  2  1  0
 16 11  1  0
 21 15  1  0
M  END
>  <zinc_id>  (1) 
ZINC000000191620

>  <smiles>  (1) 
Cc1ccccc1NC(=O)c1c(N)sc2c1CC[C@@H](C)C2

$$$$
