
     RDKit          3D

 20 22  0  0  0  0  0  0  0  0999 V2000
   -0.9954   -3.2634   -0.9997 N   0  0  0  0  0  0  0  0  0  0  0  0
   -1.7329   -2.1076   -0.5343 C   0  0  0  0  0  0  0  0  0  0  0  0
   -3.3793   -1.7257   -0.7476 S   0  0  0  0  0  0  0  0  0  0  0  0
   -3.4265   -0.2442    0.0840 C   0  0  0  0  0  0  0  0  0  0  0  0
   -2.1356   -0.0828    0.5137 C   0  0  0  0  0  0  0  0  0  0  0  0
   -1.2593   -1.0457    0.1946 C   0  0  0  0  0  0  0  0  0  0  0  0
    0.1754   -1.0008    0.5952 C   0  0  0  0  0  0  0  0  0  0  0  0
    0.9811   -1.9103    0.2873 O   0  0  0  0  0  0  0  0  0  0  0  0
    0.7119    0.0751    1.3489 N   0  0  0  0  0  0  0  0  0  0  0  0
    2.1048    0.1344    1.7469 C   0  0  0  0  0  0  0  0  0  0  0  0
    2.8826    0.5187    0.5403 C   0  0  0  0  0  0  0  0  0  0  0  0
    3.1504    1.8322    0.2024 C   0  0  0  0  0  0  0  0  0  0  0  0
    3.8867    2.0565   -0.9487 C   0  0  0  0  0  0  0  0  0  0  0  0
    4.3219    0.9958   -1.7073 C   0  0  0  0  0  0  0  0  0  0  0  0
    4.0511   -0.2566   -1.3606 N   0  0  0  0  0  0  0  0  0  0  0  0
    3.3437   -0.5099   -0.2571 C   0  0  0  0  0  0  0  0  0  0  0  0
   -1.9263    1.2049    1.3020 C   0  0  0  0  0  0  0  0  0  0  0  0
   -2.4218    2.3165    0.3995 C   0  0  0  0  0  0  0  0  0  0  0  0
   -3.8907    2.1917    0.0989 C   0  0  0  0  0  0  0  0  0  0  0  0
   -4.4418    0.8212    0.4250 C   0  0  0  0  0  0  0  0  0  0  0  0
  1  2  1  0
  2  3  1  0
  3  4  1  0
  4  5  2  0
  5  6  1  0
  6  7  1  0
  7  8  2  0
  7  9  1  0
  9 10  1  0
 10 11  1  0
 11 12  2  0
 12 13  1  0
 13 14  2  0
 14 15  1  0
 15 16  2  0
  5 17  1  0
 17 18  1  0
 18 19  1  0
 19 20  1  0
  6  2  2  0
 16 11  1  0
 20  4  1  0
M  END
>  <zinc_id>  (1) 
ZINC000000374472

>  <smiles>  (1) 
Nc1sc2c(c1C(=O)NCc1cccnc1)CCCC2

$$$$
