
     RDKit          3D

 33 38  0  0  0  0  0  0  0  0999 V2000
   -8.0813   -2.5296   -0.3417 C   0  0  0  0  0  0  0  0  0  0  0  0
   -6.9280   -2.7069   -1.0767 C   0  0  0  0  0  0  0  0  0  0  0  0
   -6.0536   -1.6419   -1.1640 C   0  0  0  0  0  0  0  0  0  0  0  0
   -6.2989   -0.4325   -0.5484 C   0  0  0  0  0  0  0  0  0  0  0  0
   -5.3964    0.6033   -0.6644 C   0  0  0  0  0  0  0  0  0  0  0  0
   -4.1540    0.4589   -1.4375 C   0  0  0  0  0  0  0  0  0  0  0  0
   -3.0882   -0.3438   -0.7273 C   0  0  0  0  0  0  0  0  0  0  0  0
   -2.7096    0.2575    0.5209 N   0  0  0  0  0  0  0  0  0  0  0  0
   -1.6945   -0.5398    1.1565 C   0  0  0  0  0  0  0  0  0  0  0  0
   -0.7406    0.3218    1.9171 C   0  0  0  0  0  0  0  0  0  0  0  0
   -0.0201    1.2697    0.9976 C   0  0  0  0  0  0  0  0  0  0  0  0
    1.2498    0.6934    0.4765 C   0  0  0  0  0  0  0  0  0  0  0  0
    2.5561    0.9941    0.7954 C   0  0  0  0  0  0  0  0  0  0  0  0
    3.4189    0.2074    0.0628 C   0  0  0  0  0  0  0  0  0  0  0  0
    4.8779    0.2029    0.0925 C   0  0  0  0  0  0  0  0  0  0  0  0
    5.5963    1.0434    0.9134 C   0  0  0  0  0  0  0  0  0  0  0  0
    6.9935    1.0195    0.9214 C   0  0  0  0  0  0  0  0  0  0  0  0
    7.6965    0.1556    0.1091 C   0  0  0  0  0  0  0  0  0  0  0  0
    6.9679   -0.6841   -0.7112 C   0  0  0  0  0  0  0  0  0  0  0  0
    5.5892   -0.6564   -0.7149 C   0  0  0  0  0  0  0  0  0  0  0  0
    7.6631   -1.5527   -1.5277 O   0  0  0  0  0  0  0  0  0  0  0  0
    9.0537   -1.4965   -1.7187 C   0  0  0  0  0  0  0  0  0  0  0  0
    9.7287   -0.3290   -1.0817 C   0  0  0  0  0  0  0  0  0  0  0  0
    9.0957    0.1200    0.1057 O   0  0  0  0  0  0  0  0  0  0  0  0
    2.6192   -0.5678   -0.6982 N   0  0  0  0  0  0  0  0  0  0  0  0
    1.3422   -0.2841   -0.4568 N   0  0  0  0  0  0  0  0  0  0  0  0
   -0.9300    1.7215   -0.1167 C   0  0  0  0  0  0  0  0  0  0  0  0
   -2.3499    1.6545    0.4033 C   0  0  0  0  0  0  0  0  0  0  0  0
   -5.6560    1.8029   -0.0449 C   0  0  0  0  0  0  0  0  0  0  0  0
   -6.8111    1.9503    0.6797 C   0  0  0  0  0  0  0  0  0  0  0  0
   -7.7015    0.9182    0.7895 C   0  0  0  0  0  0  0  0  0  0  0  0
   -7.4641   -0.2927    0.1790 C   0  0  0  0  0  0  0  0  0  0  0  0
   -8.3708   -1.3372    0.2928 C   0  0  0  0  0  0  0  0  0  0  0  0
  1  2  2  0
  2  3  1  0
  3  4  2  0
  4  5  1  0
  5  6  1  0
  6  7  1  0
  7  8  1  0
  8  9  1  0
  9 10  1  0
 10 11  1  0
 11 12  1  0
 12 13  1  0
 13 14  2  0
 14 15  1  0
 15 16  2  0
 16 17  1  0
 17 18  2  0
 18 19  1  0
 19 20  2  0
 19 21  1  0
 21 22  1  0
 22 23  1  0
 23 24  1  0
 14 25  1  0
 25 26  1  0
 11 27  1  0
 27 28  1  0
  5 29  2  0
 29 30  1  0
 30 31  2  0
 31 32  1  0
 32 33  2  0
 33  1  1  0
 32  4  1  0
 28  8  1  0
 26 12  2  0
 20 15  1  0
 24 18  1  0
M  END
>  <zinc_id>  (1) 
ZINC000000839538

>  <smiles>  (1) 
c1ccc2c(CCN3CCC(c4cc(-c5ccc6c(c5)OCCO6)[nH]n4)CC3)cccc2c1

$$$$
