
     RDKit          3D

 20 22  0  0  0  0  0  0  0  0999 V2000
    5.6502    1.5350   -0.6724 C   0  0  0  0  0  0  0  0  0  0  0  0
    4.6846    0.4835   -0.2682 C   0  0  0  0  0  0  0  0  0  0  0  0
    5.1467   -0.8127   -0.1058 C   0  0  0  0  0  0  0  0  0  0  0  0
    4.2889   -1.8291    0.2685 C   0  0  0  0  0  0  0  0  0  0  0  0
    2.9660   -1.5259    0.4760 C   0  0  0  0  0  0  0  0  0  0  0  0
    2.4384   -0.2368    0.3281 C   0  0  0  0  0  0  0  0  0  0  0  0
    1.0575    0.0069    0.5465 N   0  0  0  0  0  0  0  0  0  0  0  0
    0.4608    0.8274    1.5959 C   0  0  0  0  0  0  0  0  0  0  0  0
   -0.7665   -0.0032    1.9330 C   0  0  0  0  0  0  0  0  0  0  0  0
   -1.1805   -0.5105    0.6512 N   0  0  0  0  0  0  0  0  0  0  0  0
   -2.5192   -0.9468    0.2883 C   0  0  0  0  0  0  0  0  0  0  0  0
   -3.3395    0.1384   -0.2441 C   0  0  0  0  0  0  0  0  0  0  0  0
   -3.0006    1.4121   -0.3910 N   0  0  0  0  0  0  0  0  0  0  0  0
   -4.0356    2.1062   -0.9035 C   0  0  0  0  0  0  0  0  0  0  0  0
   -5.0447    1.2266   -1.0763 N   0  0  0  0  0  0  0  0  0  0  0  0
   -4.6526    0.0175   -0.6848 C   0  0  0  0  0  0  0  0  0  0  0  0
   -5.4713   -1.2193   -0.7203 C   0  0  0  0  0  0  0  0  0  0  0  0
   -0.0342   -0.5126   -0.2200 C   0  0  0  0  0  0  0  0  0  0  0  0
    0.0014   -0.8899   -1.4045 O   0  0  0  0  0  0  0  0  0  0  0  0
    3.3500    0.7332   -0.0478 C   0  0  0  0  0  0  0  0  0  0  0  0
  1  2  1  0
  2  3  2  0
  3  4  1  0
  4  5  2  0
  5  6  1  0
  6  7  1  0
  7  8  1  0
  8  9  1  0
  9 10  1  0
 10 11  1  0
 11 12  1  0
 12 13  1  0
 13 14  2  0
 14 15  1  0
 15 16  1  0
 16 17  1  0
 10 18  1  0
 18 19  2  0
  6 20  2  0
 20  2  1  0
 18  7  1  0
 16 12  2  0
M  END
>  <zinc_id>  (1) 
ZINC000000018501

>  <smiles>  (1) 
Cc1cccc(N2CCN(Cc3nc[nH]c3C)C2=O)c1

$$$$
