
     RDKit          3D

 31 34  0  0  0  0  0  0  0  0999 V2000
    5.5030    5.0177   -0.4679 C   0  0  0  0  0  0  0  0  0  0  0  0
    6.5898    4.3648    0.3641 C   0  0  0  0  0  0  0  0  0  0  0  0
    6.7092    3.0265   -0.0907 O   0  0  0  0  0  0  0  0  0  0  0  0
    5.6092    2.1744   -0.0152 C   0  0  0  0  0  0  0  0  0  0  0  0
    5.6997    0.8777   -0.4484 C   0  0  0  0  0  0  0  0  0  0  0  0
    4.6163    0.0328   -0.3758 C   0  0  0  0  0  0  0  0  0  0  0  0
    3.4150    0.4626    0.1317 C   0  0  0  0  0  0  0  0  0  0  0  0
    2.2920   -0.4934    0.1813 C   0  0  0  0  0  0  0  0  0  0  0  0
    1.0613   -0.1119    0.6767 C   0  0  0  0  0  0  0  0  0  0  0  0
    0.0356   -1.0318    0.7052 C   0  0  0  0  0  0  0  0  0  0  0  0
   -1.2962   -0.6970    1.2135 C   0  0  0  0  0  0  0  0  0  0  0  0
   -2.0344   -1.4858    1.8407 O   0  0  0  0  0  0  0  0  0  0  0  0
   -1.7812    0.6202    0.9748 N   0  0  0  0  0  0  0  0  0  0  0  0
   -3.0564    1.1010    1.4045 C   0  0  0  0  0  0  0  0  0  0  0  0
   -4.1776    0.6089    0.5723 C   0  0  0  0  0  0  0  0  0  0  0  0
   -4.2089   -0.7303    0.2500 C   0  0  0  0  0  0  0  0  0  0  0  0
   -5.2233   -1.2678   -0.5245 C   0  0  0  0  0  0  0  0  0  0  0  0
   -6.2225   -0.4669   -0.9873 C   0  0  0  0  0  0  0  0  0  0  0  0
   -6.2211    0.8935   -0.6796 C   0  0  0  0  0  0  0  0  0  0  0  0
   -7.2546    1.6534   -1.1739 O   0  0  0  0  0  0  0  0  0  0  0  0
   -7.4035    3.0304   -0.9592 C   0  0  0  0  0  0  0  0  0  0  0  0
   -5.1929    1.4096    0.0990 C   0  0  0  0  0  0  0  0  0  0  0  0
    0.1942   -2.3427    0.2495 C   0  0  0  0  0  0  0  0  0  0  0  0
   -0.8539   -3.2405    0.2921 C   0  0  0  0  0  0  0  0  0  0  0  0
   -0.6331   -4.5248   -0.1738 C   0  0  0  0  0  0  0  0  0  0  0  0
    0.6105   -4.8674   -0.6611 C   0  0  0  0  0  0  0  0  0  0  0  0
    1.6437   -3.9570   -0.6953 C   0  0  0  0  0  0  0  0  0  0  0  0
    1.4501   -2.6556   -0.2324 C   0  0  0  0  0  0  0  0  0  0  0  0
    2.4494   -1.7518   -0.2577 N   0  0  0  0  0  0  0  0  0  0  0  0
    3.2912    1.7569    0.5746 C   0  0  0  0  0  0  0  0  0  0  0  0
    4.3894    2.5945    0.4951 C   0  0  0  0  0  0  0  0  0  0  0  0
  1  2  1  0
  2  3  1  0
  3  4  1  0
  4  5  2  0
  5  6  1  0
  6  7  2  0
  7  8  1  0
  8  9  2  0
  9 10  1  0
 10 11  1  0
 11 12  2  0
 11 13  1  0
 13 14  1  0
 14 15  1  0
 15 16  2  0
 16 17  1  0
 17 18  2  0
 18 19  1  0
 19 20  1  0
 20 21  1  0
 19 22  2  0
 10 23  2  0
 23 24  1  0
 24 25  2  0
 25 26  1  0
 26 27  2  0
 27 28  1  0
 28 29  2  0
  7 30  1  0
 30 31  2  0
 31  4  1  0
 29  8  1  0
 22 15  1  0
 28 23  1  0
M  END
>  <zinc_id>  (1) 
ZINC000003007999

>  <smiles>  (1) 
CCOc1ccc(-c2cc(C(=O)NCc3cccc(OC)c3)c3ccccc3n2)cc1

$$$$
