
     RDKit          3D

 30 32  0  0  0  0  0  0  0  0999 V2000
   -6.0390   -3.6324   -0.4374 C   0  0  0  0  0  0  0  0  0  0  0  0
   -5.5928   -2.1851   -0.4355 C   0  0  0  0  0  0  0  0  0  0  0  0
   -6.5424   -1.4450   -1.3665 C   0  0  0  0  0  0  0  0  0  0  0  0
   -5.7617   -1.6535    0.9651 C   0  0  0  0  0  0  0  0  0  0  0  0
   -5.3617   -0.2693    1.0826 N   0  0  0  0  0  0  0  0  0  0  0  0
   -4.0539    0.1908    0.7979 C   0  0  0  0  0  0  0  0  0  0  0  0
   -3.2092   -0.6612    0.4244 O   0  0  0  0  0  0  0  0  0  0  0  0
   -3.7124    1.6110    0.9380 C   0  0  0  0  0  0  0  0  0  0  0  0
   -4.6269    2.5499    1.3418 C   0  0  0  0  0  0  0  0  0  0  0  0
   -4.3008    3.8906    1.4698 C   0  0  0  0  0  0  0  0  0  0  0  0
   -3.0126    4.3079    1.1837 C   0  0  0  0  0  0  0  0  0  0  0  0
   -2.0803    3.3491    0.7719 C   0  0  0  0  0  0  0  0  0  0  0  0
   -2.4451    2.0245    0.6571 C   0  0  0  0  0  0  0  0  0  0  0  0
   -1.4483    1.1030    0.2377 N   0  0  0  0  0  0  0  0  0  0  0  0
   -0.1150    1.4631   -0.0754 C   0  0  0  0  0  0  0  0  0  0  0  0
    0.1818    2.6825    0.0309 O   0  0  0  0  0  0  0  0  0  0  0  0
    0.8782    0.4668   -0.5034 C   0  0  0  0  0  0  0  0  0  0  0  0
    0.5539   -0.8683   -0.5814 C   0  0  0  0  0  0  0  0  0  0  0  0
    1.4693   -1.8210   -0.9782 C   0  0  0  0  0  0  0  0  0  0  0  0
    2.7640   -1.4781   -1.3185 C   0  0  0  0  0  0  0  0  0  0  0  0
    3.7491   -2.5216   -1.7444 C   0  0  0  0  0  0  0  0  0  0  0  0
    4.6471   -3.1653   -0.2884 S   0  0  0  0  0  0  0  0  0  0  0  0
    5.6315   -1.7913    0.3201 C   0  0  0  0  0  0  0  0  0  0  0  0
    5.1719   -0.8875    1.2422 C   0  0  0  0  0  0  0  0  0  0  0  0
    6.0243    0.1281    1.6346 C   0  0  0  0  0  0  0  0  0  0  0  0
    7.3028    0.2592    1.1355 C   0  0  0  0  0  0  0  0  0  0  0  0
    7.7754   -0.6596    0.1956 C   0  0  0  0  0  0  0  0  0  0  0  0
    6.8991   -1.6568   -0.1711 C   0  0  0  0  0  0  0  0  0  0  0  0
    3.0863   -0.1407   -1.2395 C   0  0  0  0  0  0  0  0  0  0  0  0
    2.1674    0.8099   -0.8420 C   0  0  0  0  0  0  0  0  0  0  0  0
  1  2  1  0
  2  3  1  0
  2  4  1  0
  4  5  1  0
  5  6  1  0
  6  7  2  0
  6  8  1  0
  8  9  2  0
  9 10  1  0
 10 11  2  0
 11 12  1  0
 12 13  2  0
 13 14  1  0
 14 15  1  0
 15 16  2  0
 15 17  1  0
 17 18  2  0
 18 19  1  0
 19 20  2  0
 20 21  1  0
 21 22  1  0
 22 23  1  0
 23 24  2  0
 24 25  1  0
 25 26  2  0
 26 27  1  0
 27 28  2  0
 20 29  1  0
 29 30  2  0
 13  8  1  0
 30 17  1  0
 28 23  1  0
M  END
>  <zinc_id>  (1) 
ZINC000002837145

>  <smiles>  (1) 
CC(C)CNC(=O)c1ccccc1NC(=O)c1ccc(CSc2ccccc2)cc1

$$$$
