
     RDKit          3D

 20 21  0  0  0  0  0  0  0  0999 V2000
   -3.1593    3.0130   -0.7818 C   0  0  0  0  0  0  0  0  0  0  0  0
   -2.6235    1.7001   -0.3039 C   0  0  0  0  0  0  0  0  0  0  0  0
   -3.4864    0.6284   -0.3627 C   0  0  0  0  0  0  0  0  0  0  0  0
   -3.0268   -0.5868    0.0678 C   0  0  0  0  0  0  0  0  0  0  0  0
   -3.9198   -1.7852    0.0271 C   0  0  0  0  0  0  0  0  0  0  0  0
   -1.7103   -0.6859    0.5451 C   0  0  0  0  0  0  0  0  0  0  0  0
   -1.2617   -1.9921    1.0153 C   0  0  0  0  0  0  0  0  0  0  0  0
   -2.1641   -3.1178    0.8874 N   0  0  0  0  0  0  0  0  0  0  0  0
   -0.1623   -2.2359    1.5229 O   0  0  0  0  0  0  0  0  0  0  0  0
   -0.8731    0.3748    0.5961 C   0  0  0  0  0  0  0  0  0  0  0  0
    0.4047    0.3597    1.0356 O   0  0  0  0  0  0  0  0  0  0  0  0
    1.5689    0.2639    0.3332 C   0  0  0  0  0  0  0  0  0  0  0  0
    2.4394   -0.7689    0.5691 C   0  0  0  0  0  0  0  0  0  0  0  0
    3.6297   -0.9408   -0.0902 C   0  0  0  0  0  0  0  0  0  0  0  0
    4.0099   -0.0370   -1.0597 C   0  0  0  0  0  0  0  0  0  0  0  0
    5.5261   -0.2555   -1.9000 Cl  0  0  0  0  0  0  0  0  0  0  0  0
    3.1555    1.0073   -1.3153 C   0  0  0  0  0  0  0  0  0  0  0  0
    1.9536    1.1689   -0.6400 C   0  0  0  0  0  0  0  0  0  0  0  0
    1.0690    2.3173   -0.9544 C   0  0  0  0  0  0  0  0  0  0  0  0
   -1.3695    1.5722    0.1575 N   0  0  0  0  0  0  0  0  0  0  0  0
  1  2  1  0
  2  3  2  0
  3  4  1  0
  4  5  1  0
  4  6  2  0
  6  7  1  0
  7  8  1  0
  7  9  2  0
  6 10  1  0
 10 11  1  0
 11 12  1  0
 12 13  2  0
 13 14  1  0
 14 15  2  0
 15 16  1  0
 15 17  1  0
 17 18  2  0
 18 19  1  0
 10 20  2  0
 20  2  1  0
 18 12  1  0
M  END
>  <zinc_id>  (1) 
ZINC000000127903

>  <smiles>  (1) 
Cc1cc(C)c(C(N)=O)c(Oc2ccc(Cl)cc2C)n1

$$$$
