
     RDKit          3D

 20 22  0  0  0  0  0  0  0  0999 V2000
    0.9141    1.3157   -0.7943 O   0  0  0  0  0  0  0  0  0  0  0  0
    0.1261    0.3474   -0.6032 C   0  0  0  0  0  0  0  0  0  0  0  0
    0.6283   -0.7952    0.0833 N   0  0  0  0  0  0  0  0  0  0  0  0
    1.8200   -0.9876    0.5565 N   0  0  0  0  0  0  0  0  0  0  0  0
    3.0439   -0.4405    0.8268 C   0  0  0  0  0  0  0  0  0  0  0  0
    4.0748   -1.2003    1.2563 C   0  0  0  0  0  0  0  0  0  0  0  0
    5.3922   -0.6063    1.5459 C   0  0  0  0  0  0  0  0  0  0  0  0
    5.7050    0.3130    0.3882 C   0  0  0  0  0  0  0  0  0  0  0  0
    4.6509    1.3593    0.1385 C   0  0  0  0  0  0  0  0  0  0  0  0
    3.3057    1.0079    0.6738 C   0  0  0  0  0  0  0  0  0  0  0  0
   -1.2508    0.3425   -1.0467 C   0  0  0  0  0  0  0  0  0  0  0  0
   -1.5153    0.1419   -2.3739 C   0  0  0  0  0  0  0  0  0  0  0  0
   -2.8176    0.0347   -2.8525 C   0  0  0  0  0  0  0  0  0  0  0  0
   -3.8758    0.1326   -1.9750 C   0  0  0  0  0  0  0  0  0  0  0  0
   -3.5893    0.3362   -0.6389 C   0  0  0  0  0  0  0  0  0  0  0  0
   -4.6451    0.4620    0.2203 C   0  0  0  0  0  0  0  0  0  0  0  0
   -4.4223    0.6970    1.5412 C   0  0  0  0  0  0  0  0  0  0  0  0
   -3.1454    0.8102    2.0530 C   0  0  0  0  0  0  0  0  0  0  0  0
   -2.1179    0.6758    1.1669 C   0  0  0  0  0  0  0  0  0  0  0  0
   -2.2817    0.4437   -0.1662 C   0  0  0  0  0  0  0  0  0  0  0  0
  1  2  2  0
  2  3  1  0
  3  4  1  0
  4  5  1  0
  5  6  2  0
  6  7  1  0
  7  8  1  0
  8  9  1  0
  9 10  1  0
  2 11  1  0
 11 12  2  0
 12 13  1  0
 13 14  2  0
 14 15  1  0
 15 16  2  0
 16 17  1  0
 17 18  2  0
 18 19  1  0
 19 20  2  0
 10  5  1  0
 20 11  1  0
 20 15  1  0
M  END
>  <zinc_id>  (1) 
ZINC000002790623

>  <smiles>  (1) 
O=C(NNC1=CCCCC1)c1cccc2ccccc12

$$$$
