
     RDKit          3D

 30 34  0  0  0  0  0  0  0  0999 V2000
   -0.5524   -0.7108    1.0070 O   0  0  0  0  0  0  0  0  0  0  0  0
   -1.0670    0.3539    0.5217 C   0  0  0  0  0  0  0  0  0  0  0  0
   -2.4699    0.1463    0.1065 C   0  0  0  0  0  0  0  0  0  0  0  0
   -3.2112   -0.9946    0.1883 C   0  0  0  0  0  0  0  0  0  0  0  0
   -4.4625   -0.7585   -0.3050 N   0  0  0  0  0  0  0  0  0  0  0  0
   -5.5673   -1.6545   -0.4180 C   0  0  0  0  0  0  0  0  0  0  0  0
   -6.3987   -1.5032    1.0031 C   0  0  1  0  0  0  0  0  0  0  0  0
   -6.6845    0.1163    0.7664 C   0  0  0  0  0  0  0  0  0  0  0  0
   -7.3268    0.0770   -0.5644 C   0  0  0  0  0  0  0  0  0  0  0  0
   -7.8403   -1.1576   -0.7984 O   0  0  0  0  0  0  0  0  0  0  0  0
   -7.8407   -1.9084    0.3285 C   0  0  0  0  0  0  0  0  0  0  0  0
   -4.4755    0.5125   -0.6806 N   0  0  0  0  0  0  0  0  0  0  0  0
   -3.2834    1.0669   -0.4382 N   0  0  0  0  0  0  0  0  0  0  0  0
   -0.4372    1.5654    0.3815 N   0  0  0  0  0  0  0  0  0  0  0  0
   -1.0637    2.7437   -0.1750 C   0  0  0  0  0  0  0  0  0  0  0  0
   -0.1223    3.0481   -1.3275 C   0  0  0  0  0  0  0  0  0  0  0  0
    1.2186    2.4698   -0.9526 C   0  0  0  0  0  0  0  0  0  0  0  0
    0.8981    2.1850    0.6533 C   0  0  2  0  0  0  0  0  0  0  0  0
    1.8421    0.9674    0.9508 C   0  0  0  0  0  0  0  0  0  0  0  0
    3.0429    0.9864    0.3524 N   0  0  0  0  0  0  0  0  0  0  0  0
    3.7431   -0.1210    0.7042 C   0  0  0  0  0  0  0  0  0  0  0  0
    5.0974   -0.5034    0.2826 C   0  0  0  0  0  0  0  0  0  0  0  0
    5.8409    0.2798   -0.5711 C   0  0  0  0  0  0  0  0  0  0  0  0
    7.0996   -0.0269   -0.9935 C   0  0  0  0  0  0  0  0  0  0  0  0
    7.6909   -1.1790   -0.5604 C   0  0  0  0  0  0  0  0  0  0  0  0
    8.9569   -1.5021   -0.9762 F   0  0  0  0  0  0  0  0  0  0  0  0
    6.9880   -2.0000    0.2970 C   0  0  0  0  0  0  0  0  0  0  0  0
    5.6948   -1.6673    0.7200 C   0  0  0  0  0  0  0  0  0  0  0  0
    2.8938   -0.7577    1.5177 N   0  0  0  0  0  0  0  0  0  0  0  0
    1.7963   -0.0733    1.6248 O   0  0  0  0  0  0  0  0  0  0  0  0
  1  2  2  0
  2  3  1  0
  3  4  2  0
  4  5  1  0
  5  6  1  0
  7  6  1  6
  7  8  1  0
  8  9  1  0
  9 10  1  0
 10 11  1  0
  5 12  1  0
 12 13  2  0
  2 14  1  0
 14 15  1  0
 15 16  1  0
 16 17  1  0
 17 18  1  0
 18 19  1  6
 19 20  2  0
 20 21  1  0
 21 22  1  0
 22 23  2  0
 23 24  1  0
 24 25  2  0
 25 26  1  0
 25 27  1  0
 27 28  2  0
 21 29  2  0
 29 30  1  0
 13  3  1  0
 18 14  1  0
 30 19  1  0
 11  7  1  0
 28 22  1  0
M  END
>  <zinc_id>  (1) 
ZINC000000023116

>  <smiles>  (1) 
O=C(c1cn(C[C@H]2CCOC2)nn1)N1CCC[C@@H]1c1nc(-c2ccc(F)cc2)no1

$$$$
