
     RDKit          3D

 20 22  0  0  0  0  0  0  0  0999 V2000
    5.6654    1.1543    0.4948 C   0  0  0  0  0  0  0  0  0  0  0  0
    5.6816    0.3833    1.7894 C   0  0  0  0  0  0  0  0  0  0  0  0
    5.0034   -0.9541    1.5124 C   0  0  0  0  0  0  0  0  0  0  0  0
    3.5940   -0.6905    1.0519 C   0  0  0  0  0  0  0  0  0  0  0  0
    2.4797   -0.5848    1.8240 C   0  0  0  0  0  0  0  0  0  0  0  0
    1.3039   -0.3459    1.2278 C   0  0  0  0  0  0  0  0  0  0  0  0
    1.2890   -0.2216   -0.1257 C   0  0  0  0  0  0  0  0  0  0  0  0
    2.9627   -0.4493   -0.5158 S   0  0  0  0  0  0  0  0  0  0  0  0
    0.0660    0.0196   -0.8202 N   0  0  0  0  0  0  0  0  0  0  0  0
   -0.9261    1.0486   -0.1130 C   0  0  1  0  0  0  0  0  0  0  0  0
   -2.2313    0.5434   -0.9048 C   0  0  0  0  0  0  0  0  0  0  0  0
   -3.0395    1.5374   -1.4010 C   0  0  0  0  0  0  0  0  0  0  0  0
   -4.1970    1.1639   -2.1036 C   0  0  0  0  0  0  0  0  0  0  0  0
   -4.4929   -0.1691   -2.2777 C   0  0  0  0  0  0  0  0  0  0  0  0
   -5.7333   -0.5899   -3.0305 C   0  0  0  0  0  0  0  0  0  0  0  0
   -3.6338   -1.0994   -1.7509 C   0  0  0  0  0  0  0  0  0  0  0  0
   -2.4939   -0.7492   -1.0589 C   0  0  0  0  0  0  0  0  0  0  0  0
   -1.1524    0.0603    1.1529 N   0  0  0  0  0  0  0  0  0  0  0  0
   -0.0136   -0.1924    1.8981 C   0  0  0  0  0  0  0  0  0  0  0  0
   -0.1321   -0.2867    3.1510 O   0  0  0  0  0  0  0  0  0  0  0  0
  1  2  1  0
  2  3  1  0
  3  4  1  0
  4  5  2  0
  5  6  1  0
  6  7  2  0
  7  8  1  0
  7  9  1  0
  9 10  1  0
 10 11  1  6
 11 12  2  0
 12 13  1  0
 13 14  2  0
 14 15  1  0
 14 16  1  0
 16 17  2  0
 10 18  1  0
 18 19  1  0
 19 20  2  0
  8  4  1  0
 17 11  1  0
 19  6  1  0
M  END
>  <zinc_id>  (1) 
ZINC000002738012

>  <smiles>  (1) 
CCCc1cc2c(s1)N[C@@H](c1ccc(C)cc1)NC2=O

$$$$
