
     RDKit          3D

 19 20  0  0  0  0  0  0  0  0999 V2000
   -1.0196   -2.9755    0.6803 C   0  0  0  0  0  0  0  0  0  0  0  0
   -0.8311   -1.7258    0.1846 C   0  0  0  0  0  0  0  0  0  0  0  0
    0.3936   -1.2576    0.0042 N   0  0  0  0  0  0  0  0  0  0  0  0
    1.5399   -0.7337   -0.0849 N   0  0  0  0  0  0  0  0  0  0  0  0
    2.2831    0.2621    0.5479 C   0  0  0  0  0  0  0  0  0  0  0  0
    1.7648    0.8876    1.4884 O   0  0  0  0  0  0  0  0  0  0  0  0
    3.6632    0.5951    0.1395 C   0  0  0  0  0  0  0  0  0  0  0  0
    4.4029    0.0714   -0.8837 C   0  0  0  0  0  0  0  0  0  0  0  0
    5.6409    0.5346   -1.0510 C   0  0  0  0  0  0  0  0  0  0  0  0
    6.0825    1.4968   -0.1921 C   0  0  0  0  0  0  0  0  0  0  0  0
    4.7370    1.7252    0.8317 S   0  0  0  0  0  0  0  0  0  0  0  0
   -2.0280   -1.0016   -0.1883 C   0  0  0  0  0  0  0  0  0  0  0  0
   -3.2050   -1.8297   -0.5584 C   0  0  0  0  0  0  0  0  0  0  0  0
   -4.2777   -1.0668   -0.8930 C   0  0  0  0  0  0  0  0  0  0  0  0
   -4.4555    0.2358   -0.9487 C   0  0  0  0  0  0  0  0  0  0  0  0
   -5.6686    0.9362   -1.3269 C   0  0  0  0  0  0  0  0  0  0  0  0
   -3.2973    1.0743   -0.5795 C   0  0  0  0  0  0  0  0  0  0  0  0
   -3.4603    2.4895   -0.6273 C   0  0  0  0  0  0  0  0  0  0  0  0
   -2.2648    0.2820   -0.2586 C   0  0  0  0  0  0  0  0  0  0  0  0
  1  2  2  0
  2  3  1  0
  3  4  1  0
  4  5  1  0
  5  6  2  0
  5  7  1  0
  7  8  2  0
  8  9  1  0
  9 10  2  0
 10 11  1  0
  2 12  1  0
 12 13  2  0
 13 14  1  0
 14 15  2  0
 15 16  1  0
 15 17  1  0
 17 18  1  0
 17 19  2  0
 11  7  1  0
 19 12  1  0
M  END
>  <zinc_id>  (1) 
ZINC000003619825

>  <smiles>  (1) 
C=C(NNC(=O)c1cccs1)c1ccc(C)c(C)c1

$$$$
