
     RDKit          3D

 30 32  0  0  0  0  0  0  0  0999 V2000
   -4.6000   -2.4668   -0.1675 C   0  0  0  0  0  0  0  0  0  0  0  0
   -4.5690   -2.2542    1.0901 C   0  0  0  0  0  0  0  0  0  0  0  0
   -3.5248   -1.4277    1.7726 C   0  0  0  0  0  0  0  0  0  0  0  0
   -2.6099   -0.9508    0.7413 N   0  0  0  0  0  0  0  0  0  0  0  0
   -1.5089   -1.5762    0.3249 C   0  0  0  0  0  0  0  0  0  0  0  0
   -0.9147   -3.1365    0.9408 S   0  0  0  0  0  0  0  0  0  0  0  0
    0.1847   -2.7742    2.3378 C   0  0  0  0  0  0  0  0  0  0  0  0
    1.3620   -2.0646    1.7828 C   0  0  0  0  0  0  0  0  0  0  0  0
    2.2680   -1.7160    2.5800 O   0  0  0  0  0  0  0  0  0  0  0  0
    1.5188   -1.7615    0.4101 N   0  0  0  0  0  0  0  0  0  0  0  0
    2.7221   -1.0689    0.0295 C   0  0  0  0  0  0  0  0  0  0  0  0
    2.9590   -0.6967   -1.2749 C   0  0  0  0  0  0  0  0  0  0  0  0
    4.1172   -0.0430   -1.5928 C   0  0  0  0  0  0  0  0  0  0  0  0
    5.0483    0.2534   -0.6604 C   0  0  0  0  0  0  0  0  0  0  0  0
    6.3829    0.9965   -1.0740 C   0  0  1  0  0  0  0  0  0  0  0  0
    5.6663    2.0786   -2.0540 C   0  0  0  0  0  0  0  0  0  0  0  0
    6.4303    1.9913    0.2057 C   0  0  0  0  0  0  0  0  0  0  0  0
    7.6550    2.8455    0.0574 C   0  0  0  0  0  0  0  0  0  0  0  0
    4.8648   -0.0901    0.6370 C   0  0  0  0  0  0  0  0  0  0  0  0
    3.6948   -0.7492    0.9532 C   0  0  0  0  0  0  0  0  0  0  0  0
   -0.9552   -0.8147   -0.6274 N   0  0  0  0  0  0  0  0  0  0  0  0
   -1.7005    0.2643   -0.7981 N   0  0  0  0  0  0  0  0  0  0  0  0
   -2.7369    0.2107    0.0374 C   0  0  0  0  0  0  0  0  0  0  0  0
   -3.8129    1.1622    0.2046 C   0  0  0  0  0  0  0  0  0  0  0  0
   -4.8027    0.9554    1.1304 C   0  0  0  0  0  0  0  0  0  0  0  0
   -5.8295    1.8624    1.2859 C   0  0  0  0  0  0  0  0  0  0  0  0
   -5.8521    2.9903    0.4940 C   0  0  0  0  0  0  0  0  0  0  0  0
   -4.8533    3.2101   -0.4483 C   0  0  0  0  0  0  0  0  0  0  0  0
   -3.8414    2.2790   -0.5747 C   0  0  0  0  0  0  0  0  0  0  0  0
   -2.7625    2.4915   -1.5761 C   0  0  0  0  0  0  0  0  0  0  0  0
  1  2  2  0
  2  3  1  0
  3  4  1  0
  4  5  1  0
  5  6  1  0
  6  7  1  0
  7  8  1  0
  8  9  2  0
  8 10  1  0
 10 11  1  0
 11 12  2  0
 12 13  1  0
 13 14  2  0
 14 15  1  0
 15 16  1  6
 15 17  1  0
 17 18  1  0
 14 19  1  0
 19 20  2  0
  5 21  2  0
 21 22  1  0
 22 23  2  0
 23 24  1  0
 24 25  2  0
 25 26  1  0
 26 27  2  0
 27 28  1  0
 28 29  2  0
 29 30  1  0
 23  4  1  0
 29 24  1  0
 20 11  1  0
M  END
>  <zinc_id>  (1) 
ZINC000002338464

>  <smiles>  (1) 
C=CCn1c(SCC(=O)Nc2ccc([C@@H](C)CC)cc2)nnc1-c1ccccc1C

$$$$
