
     RDKit          3D

 32 36  0  0  0  0  0  0  0  0999 V2000
   -5.3933    4.9881    0.1477 C   0  0  0  0  0  0  0  0  0  0  0  0
   -4.3110    4.0136   -0.2584 C   0  0  0  0  0  0  0  0  0  0  0  0
   -4.4362    2.7390    0.5055 C   0  0  0  0  0  0  0  0  0  0  0  0
   -5.7884    2.0625    0.2599 C   0  0  0  0  0  0  0  0  0  0  0  0
   -5.8686    0.8630    0.9978 O   0  0  0  0  0  0  0  0  0  0  0  0
   -4.9421   -0.1355    0.7588 C   0  0  0  0  0  0  0  0  0  0  0  0
   -4.9498   -1.3298    1.4315 C   0  0  0  0  0  0  0  0  0  0  0  0
   -4.0225   -2.3125    1.1831 C   0  0  0  0  0  0  0  0  0  0  0  0
   -3.0376   -2.0627    0.1977 C   0  0  0  0  0  0  0  0  0  0  0  0
   -3.0285   -0.8773   -0.4713 C   0  0  0  0  0  0  0  0  0  0  0  0
   -1.9000   -0.6638   -1.5597 C   0  0  1  0  0  0  0  0  0  0  0  0
   -1.5413    0.8464   -1.0847 N   0  0  0  0  0  0  0  0  0  0  0  0
   -0.5879    1.2686   -2.0861 C   0  0  0  0  0  0  0  0  0  0  0  0
    0.5759    0.3242   -2.2083 C   0  0  0  0  0  0  0  0  0  0  0  0
    0.5063   -0.7439   -1.1764 C   0  0  0  0  0  0  0  0  0  0  0  0
   -0.6667   -1.3153   -0.7685 C   0  0  0  0  0  0  0  0  0  0  0  0
   -0.4746   -2.2098    0.1275 N   0  0  0  0  0  0  0  0  0  0  0  0
    0.8229   -2.3121    0.3918 C   0  0  0  0  0  0  0  0  0  0  0  0
    1.5708   -3.0824    1.2373 C   0  0  0  0  0  0  0  0  0  0  0  0
    2.9555   -2.9725    1.3058 C   0  0  0  0  0  0  0  0  0  0  0  0
    3.5887   -2.0439    0.4814 C   0  0  0  0  0  0  0  0  0  0  0  0
    4.9691   -1.9012    0.5170 O   0  0  0  0  0  0  0  0  0  0  0  0
    5.7132   -1.0012   -0.2636 C   0  0  0  0  0  0  0  0  0  0  0  0
    5.3472    0.4001   -0.0291 C   0  0  0  0  0  0  0  0  0  0  0  0
    4.4629    1.0490   -0.8638 C   0  0  0  0  0  0  0  0  0  0  0  0
    4.0994    2.3522   -0.6761 C   0  0  0  0  0  0  0  0  0  0  0  0
    4.6158    3.0875    0.3818 C   0  0  0  0  0  0  0  0  0  0  0  0
    5.5090    2.4419    1.2298 C   0  0  0  0  0  0  0  0  0  0  0  0
    5.8552    1.1377    1.0189 C   0  0  0  0  0  0  0  0  0  0  0  0
    2.8385   -1.2646   -0.3732 C   0  0  0  0  0  0  0  0  0  0  0  0
    1.4664   -1.4033   -0.4120 C   0  0  0  0  0  0  0  0  0  0  0  0
   -3.9483    0.0579   -0.2027 C   0  0  0  0  0  0  0  0  0  0  0  0
  1  2  1  0
  2  3  1  0
  3  4  1  0
  4  5  1  0
  5  6  1  0
  6  7  2  0
  7  8  1  0
  8  9  2  0
  9 10  1  0
 11 10  1  1
 11 12  1  0
 12 13  1  0
 13 14  1  0
 14 15  1  0
 15 16  2  0
 16 17  1  0
 17 18  1  0
 18 19  2  0
 19 20  1  0
 20 21  2  0
 21 22  1  0
 22 23  1  0
 23 24  1  0
 24 25  2  0
 25 26  1  0
 26 27  2  0
 27 28  1  0
 28 29  2  0
 21 30  1  0
 30 31  2  0
 10 32  2  0
 32  6  1  0
 16 11  1  0
 31 18  1  0
 31 15  1  0
 29 24  1  0
M  END
>  <zinc_id>  (1) 
ZINC000003738371

>  <smiles>  (1) 
CCCCOc1cccc([C@H]2NCCc3c2[nH]c2ccc(OCc4ccccc4)cc32)c1

$$$$
