
     RDKit          3D

 21 23  0  0  0  0  0  0  0  0999 V2000
    4.8171   -0.6267   -0.0344 C   0  0  0  0  0  0  0  0  0  0  0  0
    4.6050    0.6851   -0.6981 C   0  0  0  0  0  0  0  0  0  0  0  0
    5.1067    1.8788    0.0486 C   0  0  0  0  0  0  0  0  0  0  0  0
    3.2278    0.9358   -1.1879 C   0  0  0  0  0  0  0  0  0  0  0  0
    2.2250    0.8689    0.1304 C   0  0  2  0  0  0  0  0  0  0  0  0
    2.6063   -0.6319    0.4601 N   0  0  0  0  0  0  0  0  0  0  0  0
    1.3644   -1.2582    0.7047 C   0  0  0  0  0  0  0  0  0  0  0  0
    1.1851   -2.2475    1.4494 O   0  0  0  0  0  0  0  0  0  0  0  0
    0.3471   -0.5926   -0.0243 N   0  0  0  0  0  0  0  0  0  0  0  0
   -1.0445   -0.8832   -0.0739 C   0  0  0  0  0  0  0  0  0  0  0  0
   -1.5228   -2.1959   -0.0306 C   0  0  0  0  0  0  0  0  0  0  0  0
   -2.8432   -2.5131   -0.0803 C   0  0  0  0  0  0  0  0  0  0  0  0
   -3.7923   -1.5181   -0.1779 C   0  0  0  0  0  0  0  0  0  0  0  0
   -3.3510   -0.2231   -0.2219 C   0  0  0  0  0  0  0  0  0  0  0  0
   -4.2967    0.7726   -0.3195 C   0  0  0  0  0  0  0  0  0  0  0  0
   -3.9412    2.0959   -0.3679 C   0  0  0  0  0  0  0  0  0  0  0  0
   -2.5952    2.4157   -0.3169 C   0  0  0  0  0  0  0  0  0  0  0  0
   -1.6476    1.4181   -0.2196 C   0  0  0  0  0  0  0  0  0  0  0  0
   -2.0085    0.1002   -0.1714 C   0  0  0  0  0  0  0  0  0  0  0  0
    0.9285    0.4700   -0.7434 C   0  0  0  0  0  0  0  0  0  0  0  0
    0.6301    1.0495   -1.7870 O   0  0  0  0  0  0  0  0  0  0  0  0
  1  2  1  0
  2  3  1  0
  2  4  1  0
  5  4  1  6
  5  6  1  0
  6  7  1  0
  7  8  2  0
  7  9  1  0
  9 10  1  0
 10 11  2  0
 11 12  1  0
 12 13  2  0
 13 14  1  0
 14 15  2  0
 15 16  1  0
 16 17  2  0
 17 18  1  0
 18 19  2  0
  9 20  1  0
 20 21  2  0
 20  5  1  0
 19 10  1  0
 19 14  1  0
M  END
>  <zinc_id>  (1) 
ZINC000001040987

>  <smiles>  (1) 
CC(C)C[C@@H]1NC(=O)N(c2cccc3ccccc23)C1=O

$$$$
