
     RDKit          3D

 31 35  0  0  0  0  0  0  0  0999 V2000
    7.3729    0.4661   -2.0934 C   0  0  0  0  0  0  0  0  0  0  0  0
    6.1917    1.0793   -1.6097 O   0  0  0  0  0  0  0  0  0  0  0  0
    5.3069    0.2578   -0.9240 C   0  0  0  0  0  0  0  0  0  0  0  0
    5.5247   -1.0870   -0.7021 C   0  0  0  0  0  0  0  0  0  0  0  0
    4.6575   -1.9153   -0.0242 C   0  0  0  0  0  0  0  0  0  0  0  0
    3.4909   -1.3626    0.4669 C   0  0  0  0  0  0  0  0  0  0  0  0
    3.2420   -0.0863    0.2791 C   0  0  0  0  0  0  0  0  0  0  0  0
    1.9519    0.6857    0.7817 C   0  0  2  0  0  0  0  0  0  0  0  0
    1.8791   -0.0328    2.1786 N   0  0  0  0  0  0  0  0  0  0  0  0
    0.8152    0.7526    2.8162 C   0  0  0  0  0  0  0  0  0  0  0  0
   -0.3720    0.9424    1.8938 C   0  0  0  0  0  0  0  0  0  0  0  0
   -0.3327   -0.0110    0.7528 C   0  0  0  0  0  0  0  0  0  0  0  0
    0.8516   -0.2195    0.0944 C   0  0  0  0  0  0  0  0  0  0  0  0
    0.7209   -1.0670   -0.8623 N   0  0  0  0  0  0  0  0  0  0  0  0
   -0.5587   -1.4859   -0.9126 C   0  0  0  0  0  0  0  0  0  0  0  0
   -1.3128   -2.3522   -1.6747 C   0  0  0  0  0  0  0  0  0  0  0  0
   -2.6673   -2.5373   -1.4226 C   0  0  0  0  0  0  0  0  0  0  0  0
   -3.3041   -1.8621   -0.4027 C   0  0  0  0  0  0  0  0  0  0  0  0
   -4.6538   -2.0277   -0.1287 O   0  0  0  0  0  0  0  0  0  0  0  0
   -5.3419   -1.3719    0.8834 C   0  0  0  0  0  0  0  0  0  0  0  0
   -5.3081    0.1126    0.7126 C   0  0  0  0  0  0  0  0  0  0  0  0
   -5.8774    0.9164    1.6912 C   0  0  0  0  0  0  0  0  0  0  0  0
   -5.8769    2.2909    1.5832 C   0  0  0  0  0  0  0  0  0  0  0  0
   -5.3102    2.9260    0.4973 C   0  0  0  0  0  0  0  0  0  0  0  0
   -4.7479    2.1163   -0.4680 C   0  0  0  0  0  0  0  0  0  0  0  0
   -4.7455    0.7410   -0.3651 C   0  0  0  0  0  0  0  0  0  0  0  0
   -2.5695   -0.9902    0.3729 C   0  0  0  0  0  0  0  0  0  0  0  0
   -1.2304   -0.8279    0.0991 C   0  0  0  0  0  0  0  0  0  0  0  0
    4.1007    0.7510   -0.3965 C   0  0  0  0  0  0  0  0  0  0  0  0
    3.8519    2.0889   -0.5998 O   0  0  0  0  0  0  0  0  0  0  0  0
    4.2513    3.1097    0.2865 C   0  0  0  0  0  0  0  0  0  0  0  0
  1  2  1  0
  2  3  1  0
  3  4  2  0
  4  5  1  0
  5  6  2  0
  6  7  1  0
  8  7  1  6
  8  9  1  0
  9 10  1  0
 10 11  1  0
 11 12  1  0
 12 13  2  0
 13 14  1  0
 14 15  1  0
 15 16  2  0
 16 17  1  0
 17 18  2  0
 18 19  1  0
 19 20  1  0
 20 21  1  0
 21 22  2  0
 22 23  1  0
 23 24  2  0
 24 25  1  0
 25 26  2  0
 18 27  1  0
 27 28  2  0
  7 29  2  0
 29 30  1  0
 30 31  1  0
 29  3  1  0
 13  8  1  0
 28 15  1  0
 28 12  1  0
 26 21  1  0
M  END
>  <zinc_id>  (1) 
ZINC000003738957

>  <smiles>  (1) 
COc1cccc([C@@H]2NCCc3c2[nH]c2ccc(OCc4ccccc4)cc32)c1OC

$$$$
