
     RDKit          3D

 20 22  0  0  0  0  0  0  0  0999 V2000
    4.8098    2.8977    1.0339 C   0  0  0  0  0  0  0  0  0  0  0  0
    4.1864    1.6492    0.5521 C   0  0  0  0  0  0  0  0  0  0  0  0
    4.9250    0.6058    0.0863 C   0  0  0  0  0  0  0  0  0  0  0  0
    4.3068   -0.5289   -0.3490 C   0  0  0  0  0  0  0  0  0  0  0  0
    2.9384   -0.6160   -0.3164 C   0  0  0  0  0  0  0  0  0  0  0  0
    2.1580    0.4201    0.1485 C   0  0  0  0  0  0  0  0  0  0  0  0
    0.7413    0.3008    0.1703 N   0  0  0  0  0  0  0  0  0  0  0  0
    0.0972   -0.8784   -0.2820 C   0  0  0  0  0  0  0  0  0  0  0  0
    0.8455   -1.7909   -0.6945 O   0  0  0  0  0  0  0  0  0  0  0  0
   -1.3880   -1.0220   -0.2668 C   0  0  0  0  0  0  0  0  0  0  0  0
   -1.9410   -2.1912   -0.7196 C   0  0  0  0  0  0  0  0  0  0  0  0
   -1.2911   -3.3739   -1.2379 N   0  0  0  0  0  0  0  0  0  0  0  0
   -3.6130   -1.9331   -0.5301 S   0  0  0  0  0  0  0  0  0  0  0  0
   -3.5762   -0.3599    0.1145 C   0  0  0  0  0  0  0  0  0  0  0  0
   -2.2553   -0.0728    0.1665 C   0  0  0  0  0  0  0  0  0  0  0  0
   -1.8993    1.3006    0.7153 C   0  0  0  0  0  0  0  0  0  0  0  0
   -2.9167    1.6529    1.7777 C   0  0  0  0  0  0  0  0  0  0  0  0
   -4.2284    1.8522    1.0269 C   0  0  0  0  0  0  0  0  0  0  0  0
   -4.6893    0.5309    0.5365 C   0  0  0  0  0  0  0  0  0  0  0  0
    2.7899    1.5568    0.5840 C   0  0  0  0  0  0  0  0  0  0  0  0
  1  2  1  0
  2  3  2  0
  3  4  1  0
  4  5  2  0
  5  6  1  0
  6  7  1  0
  7  8  1  0
  8  9  2  0
  8 10  1  0
 10 11  2  0
 11 12  1  0
 11 13  1  0
 13 14  1  0
 14 15  2  0
 15 16  1  0
 16 17  1  0
 17 18  1  0
 18 19  1  0
  6 20  2  0
 20  2  1  0
 15 10  1  0
 19 14  1  0
M  END
>  <zinc_id>  (1) 
ZINC000001196454

>  <smiles>  (1) 
Cc1cccc(NC(=O)c2c(N)sc3c2CCCC3)c1

$$$$
