
     RDKit          3D

 31 34  0  0  0  0  0  0  0  0999 V2000
    7.4620    0.4952    1.2411 C   0  0  0  0  0  0  0  0  0  0  0  0
    6.0044    0.4930    1.7198 C   0  0  0  0  0  0  0  0  0  0  0  0
    5.3369    1.7517    1.1807 C   0  0  0  0  0  0  0  0  0  0  0  0
    5.4334    1.6733   -0.3483 C   0  0  0  0  0  0  0  0  0  0  0  0
    4.6925    0.4050   -0.7460 C   0  0  0  0  0  0  0  0  0  0  0  0
    3.3619    0.5522   -0.3003 O   0  0  0  0  0  0  0  0  0  0  0  0
    2.4630   -0.4692   -0.5357 C   0  0  0  0  0  0  0  0  0  0  0  0
    2.8718   -1.4911   -1.1388 O   0  0  0  0  0  0  0  0  0  0  0  0
    1.0685   -0.4080   -0.1161 C   0  0  0  0  0  0  0  0  0  0  0  0
    0.4488    0.6411    0.5591 C   0  0  0  0  0  0  0  0  0  0  0  0
    1.1692    1.8075    0.9484 N   0  0  0  0  0  0  0  0  0  0  0  0
   -0.8290    0.3393    0.7670 N   0  0  0  0  0  0  0  0  0  0  0  0
   -1.8566    1.1156    1.3983 C   0  0  0  0  0  0  0  0  0  0  0  0
   -2.6896    1.9165    0.4974 C   0  0  0  0  0  0  0  0  0  0  0  0
   -3.9297    1.4340    0.0878 C   0  0  0  0  0  0  0  0  0  0  0  0
   -4.7413    2.1330   -0.7764 C   0  0  0  0  0  0  0  0  0  0  0  0
   -4.2994    3.3510   -1.2447 C   0  0  0  0  0  0  0  0  0  0  0  0
   -3.0822    3.8329   -0.8470 C   0  0  0  0  0  0  0  0  0  0  0  0
   -2.2776    3.1178    0.0231 C   0  0  0  0  0  0  0  0  0  0  0  0
   -1.0747    3.7174    0.3483 O   0  0  0  0  0  0  0  0  0  0  0  0
   -0.6481    4.9662   -0.1458 C   0  0  0  0  0  0  0  0  0  0  0  0
   -1.0261   -0.9098    0.2230 C   0  0  0  0  0  0  0  0  0  0  0  0
   -2.1375   -1.6517    0.1764 N   0  0  0  0  0  0  0  0  0  0  0  0
   -2.0627   -2.8717   -0.4282 C   0  0  0  0  0  0  0  0  0  0  0  0
   -3.1820   -3.6884   -0.5068 C   0  0  0  0  0  0  0  0  0  0  0  0
   -3.1272   -4.9228   -1.1110 C   0  0  0  0  0  0  0  0  0  0  0  0
   -1.9638   -5.4093   -1.6663 C   0  0  0  0  0  0  0  0  0  0  0  0
   -0.8434   -4.6097   -1.5960 C   0  0  0  0  0  0  0  0  0  0  0  0
   -0.8998   -3.3567   -0.9825 C   0  0  0  0  0  0  0  0  0  0  0  0
    0.2160   -2.5798   -0.9200 N   0  0  0  0  0  0  0  0  0  0  0  0
    0.1424   -1.3746   -0.3231 C   0  0  0  0  0  0  0  0  0  0  0  0
  1  2  1  0
  2  3  1  0
  3  4  1  0
  4  5  1  0
  5  6  1  0
  6  7  1  0
  7  8  2  0
  7  9  1  0
  9 10  2  0
 10 11  1  0
 10 12  1  0
 12 13  1  0
 13 14  1  0
 14 15  2  0
 15 16  1  0
 16 17  2  0
 17 18  1  0
 18 19  2  0
 19 20  1  0
 20 21  1  0
 12 22  1  0
 22 23  2  0
 23 24  1  0
 24 25  2  0
 25 26  1  0
 26 27  2  0
 27 28  1  0
 28 29  2  0
 29 30  1  0
 30 31  2  0
 31  9  1  0
 19 14  1  0
 31 22  1  0
 29 24  1  0
M  END
>  <zinc_id>  (1) 
ZINC000002424040

>  <smiles>  (1) 
CCCCCOC(=O)c1c(N)n(Cc2ccccc2OC)c2nc3ccccc3nc12

$$$$
