
     RDKit          3D

 21 23  0  0  0  0  0  0  0  0999 V2000
   -5.8705    0.9066   -0.0602 C   0  0  0  0  0  0  0  0  0  0  0  0
   -4.5762    1.2934    0.4567 N   0  0  0  0  0  0  0  0  0  0  0  0
   -4.4908    2.5983    1.0923 C   0  0  0  0  0  0  0  0  0  0  0  0
   -3.4199    0.4860    0.3693 C   0  0  0  0  0  0  0  0  0  0  0  0
   -3.1455   -0.4614    1.3417 C   0  0  0  0  0  0  0  0  0  0  0  0
   -2.0117   -1.2359    1.2366 C   0  0  0  0  0  0  0  0  0  0  0  0
   -1.0971   -1.1212    0.1809 C   0  0  0  0  0  0  0  0  0  0  0  0
    0.0148   -2.0226    0.1827 C   0  0  0  0  0  0  0  0  0  0  0  0
    1.2474   -1.6194   -0.0228 C   0  0  0  0  0  0  0  0  0  0  0  0
    2.4341   -2.5230   -0.0329 C   0  0  0  0  0  0  0  0  0  0  0  0
    2.3464   -3.7684    0.1318 O   0  0  0  0  0  0  0  0  0  0  0  0
    3.5463   -1.6927   -0.2530 N   0  0  0  0  0  0  0  0  0  0  0  0
    3.1443   -0.3391   -0.3807 C   0  0  0  0  0  0  0  0  0  0  0  0
    3.8800    0.8335   -0.5966 C   0  0  0  0  0  0  0  0  0  0  0  0
    3.1955    2.0203   -0.6660 C   0  0  0  0  0  0  0  0  0  0  0  0
    4.0765    3.5040   -0.9338 Cl  0  0  0  0  0  0  0  0  0  0  0  0
    1.8261    2.0659   -0.5293 C   0  0  0  0  0  0  0  0  0  0  0  0
    1.0909    0.9128   -0.3161 C   0  0  0  0  0  0  0  0  0  0  0  0
    1.7585   -0.2880   -0.2431 C   0  0  0  0  0  0  0  0  0  0  0  0
   -1.4072   -0.1688   -0.7614 C   0  0  0  0  0  0  0  0  0  0  0  0
   -2.5417    0.6197   -0.6747 C   0  0  0  0  0  0  0  0  0  0  0  0
  1  2  1  0
  2  3  1  0
  2  4  1  0
  4  5  2  0
  5  6  1  0
  6  7  2  0
  7  8  1  0
  8  9  2  0
  9 10  1  0
 10 11  2  0
 10 12  1  0
 12 13  1  0
 13 14  2  0
 14 15  1  0
 15 16  1  0
 15 17  2  0
 17 18  1  0
 18 19  2  0
  7 20  1  0
 20 21  2  0
 21  4  1  0
 19  9  1  0
 19 13  1  0
M  END
>  <zinc_id>  (1) 
ZINC000000573338

>  <smiles>  (1) 
CN(C)c1ccc(/C=C2/C(=O)Nc3cc(Cl)ccc32)cc1

$$$$
