
     RDKit          3D

 18 19  0  0  0  0  0  0  0  0999 V2000
    4.8427   -0.4853   -0.8875 C   0  0  0  0  0  0  0  0  0  0  0  0
    4.9836    0.7905   -0.0730 C   0  0  0  0  0  0  0  0  0  0  0  0
    3.8028    1.6506   -0.4994 C   0  0  0  0  0  0  0  0  0  0  0  0
    2.5830    0.8531   -0.1469 C   0  0  0  0  0  0  0  0  0  0  0  0
    2.1227   -0.0162   -1.0572 N   0  0  0  0  0  0  0  0  0  0  0  0
    1.0489   -0.7566   -0.8322 C   0  0  0  0  0  0  0  0  0  0  0  0
    0.3806   -0.6169    0.4038 C   0  0  0  0  0  0  0  0  0  0  0  0
   -0.8272   -1.4476    0.5189 C   0  0  0  0  0  0  0  0  0  0  0  0
   -2.0582   -0.8316    0.0790 N   0  0  0  0  0  4  0  0  0  0  0  0
   -2.3167   -0.8346   -1.2847 C   0  0  0  0  0  0  0  0  0  0  0  0
   -3.4375   -0.2500   -1.7990 C   0  0  0  0  0  0  0  0  0  0  0  0
   -4.3590    0.3714   -0.9651 C   0  0  0  0  0  0  0  0  0  0  0  0
   -4.1205    0.3851    0.3828 C   0  0  0  0  0  0  0  0  0  0  0  0
   -2.9457   -0.2385    0.8465 C   0  0  0  0  0  0  0  0  0  0  0  0
   -2.7411   -0.2600    2.3449 C   0  0  0  0  0  0  0  0  0  0  0  0
    0.8445    0.2656    1.3372 C   0  0  0  0  0  0  0  0  0  0  0  0
    0.2398    0.4397    2.6176 N   0  0  0  0  0  0  0  0  0  0  0  0
    1.9572    0.9812    1.0103 N   0  0  0  0  0  0  0  0  0  0  0  0
  1  2  1  0
  2  3  1  0
  3  4  1  0
  4  5  2  0
  5  6  1  0
  6  7  2  0
  7  8  1  0
  8  9  1  0
  9 10  2  0
 10 11  1  0
 11 12  2  0
 12 13  1  0
 13 14  2  0
 14 15  1  0
  7 16  1  0
 16 17  1  0
 16 18  2  0
 18  4  1  0
 14  9  1  0
M  CHG  1   9   1
M  END
>  <zinc_id>  (1) 
ZINC000000000934

>  <smiles>  (1) 
CCCc1ncc(C[n+]2ccccc2C)c(N)n1

$$$$
