
     RDKit          3D

 30 32  0  0  0  0  0  0  0  0999 V2000
   -6.4277   -0.6781   -1.2185 C   0  0  0  0  0  0  0  0  0  0  0  0
   -6.7790   -0.1013    0.2426 C   0  0  1  0  0  0  0  0  0  0  0  0
   -5.7999   -1.0369    1.0885 C   0  0  0  0  0  0  0  0  0  0  0  0
   -4.4164   -0.8561    0.6881 C   0  0  0  0  0  0  0  0  0  0  0  0
   -3.9866   -0.1390   -0.2457 O   0  0  0  0  0  0  0  0  0  0  0  0
   -3.3940   -1.5500    1.4083 N   0  0  0  0  0  0  0  0  0  0  0  0
   -2.0107   -1.4781    1.1471 C   0  0  0  0  0  0  0  0  0  0  0  0
   -1.2128   -2.1670    2.0733 C   0  0  0  0  0  0  0  0  0  0  0  0
    0.1406   -2.2017    1.9760 C   0  0  0  0  0  0  0  0  0  0  0  0
    0.7915   -1.5567    0.9559 C   0  0  0  0  0  0  0  0  0  0  0  0
    2.2769   -1.5932    0.8566 C   0  0  0  0  0  0  0  0  0  0  0  0
    3.0538   -2.2751    1.7772 C   0  0  0  0  0  0  0  0  0  0  0  0
    4.6279   -1.9849    1.2009 S   0  0  0  0  0  0  0  0  0  0  0  0
    4.2254   -1.0302   -0.1532 C   0  0  0  0  0  0  0  0  0  0  0  0
    5.0718   -0.4133   -1.1441 N   0  0  0  0  0  0  0  0  0  0  0  0
    5.2549   -1.1556   -2.3695 C   0  0  0  0  0  0  0  0  0  0  0  0
    5.6935    0.8417   -0.9323 C   0  0  0  0  0  0  0  0  0  0  0  0
    5.0818    2.0137   -1.2949 C   0  0  0  0  0  0  0  0  0  0  0  0
    5.6906    3.2459   -1.0898 C   0  0  0  0  0  0  0  0  0  0  0  0
    6.9377    3.2809   -0.5077 C   0  0  0  0  0  0  0  0  0  0  0  0
    7.5813    2.1467   -0.1328 C   0  0  0  0  0  0  0  0  0  0  0  0
    6.9594    0.9281   -0.3451 C   0  0  0  0  0  0  0  0  0  0  0  0
    2.9058   -0.9813   -0.0975 N   0  0  0  0  0  0  0  0  0  0  0  0
    0.0442   -0.8748    0.0345 C   0  0  0  0  0  0  0  0  0  0  0  0
   -1.3596   -0.8500    0.1516 C   0  0  0  0  0  0  0  0  0  0  0  0
   -5.7937    1.1647    0.1940 C   0  0  0  0  0  0  0  0  0  0  0  0
   -6.1888    2.0590   -0.9380 C   0  0  0  0  0  0  0  0  0  0  0  0
   -7.6353    2.5566   -0.7484 C   0  0  0  0  0  0  0  0  0  0  0  0
   -5.9944    1.3880   -2.2443 C   0  0  0  0  0  0  0  0  0  0  0  0
   -5.3382    3.2978   -0.8807 C   0  0  0  0  0  0  0  0  0  0  0  0
  2  1  1  6
  2  3  1  0
  3  4  1  0
  4  5  2  0
  4  6  1  0
  6  7  1  0
  7  8  2  0
  8  9  1  0
  9 10  2  0
 10 11  1  0
 11 12  2  0
 12 13  1  0
 13 14  1  0
 14 15  1  0
 15 16  1  0
 15 17  1  0
 17 18  2  0
 18 19  1  0
 19 20  2  0
 20 21  1  0
 21 22  2  0
 14 23  2  0
 10 24  1  0
 24 25  2  0
  2 26  1  0
 26 27  1  0
 27 28  1  0
 27 29  1  0
 27 30  1  0
 25  7  1  0
 23 11  1  0
 22 17  1  0
M  END
>  <zinc_id>  (1) 
ZINC000004369054

>  <smiles>  (1) 
C[C@@H](CC(=O)Nc1ccc(-c2csc(N(C)c3ccccc3)n2)cc1)CC(C)(C)C

$$$$
