
     RDKit          3D

 18 19  0  0  0  0  0  0  0  0999 V2000
   -4.6231    2.0702   -0.4521 C   0  0  0  0  0  0  0  0  0  0  0  0
   -3.9422    0.7748   -0.3028 C   0  0  0  0  0  0  0  0  0  0  0  0
   -4.6226   -0.4113   -0.1700 C   0  0  0  0  0  0  0  0  0  0  0  0
   -3.9223   -1.5896   -0.0339 C   0  0  0  0  0  0  0  0  0  0  0  0
   -4.7084   -2.8425    0.1062 C   0  0  0  0  0  0  0  0  0  0  0  0
   -2.5367   -1.5654   -0.0325 C   0  0  0  0  0  0  0  0  0  0  0  0
   -1.8219   -0.3959   -0.1633 C   0  0  0  0  0  0  0  0  0  0  0  0
   -0.4003   -0.3597   -0.1631 N   0  0  0  0  0  0  0  0  0  0  0  0
    0.3049    0.8608   -0.2998 C   0  0  0  0  0  0  0  0  0  0  0  0
   -0.5534    2.2457   -0.4599 S   0  0  0  0  0  0  0  0  0  0  0  0
    1.7187    0.8708   -0.2966 N   0  0  0  0  0  0  0  0  0  0  0  0
    2.4203   -0.3863   -0.1515 C   0  0  0  0  0  0  0  0  0  0  0  0
    3.9061   -0.1717   -0.1712 C   0  0  0  0  0  0  0  0  0  0  0  0
    4.7171    0.0693    0.9008 C   0  0  0  0  0  0  0  0  0  0  0  0
    6.0124    0.2061    0.4440 C   0  0  0  0  0  0  0  0  0  0  0  0
    5.9210    0.0358   -0.9278 C   0  0  0  0  0  0  0  0  0  0  0  0
    4.6782   -0.1805   -1.2324 O   0  0  0  0  0  0  0  0  0  0  0  0
   -2.5477    0.7695   -0.2980 C   0  0  0  0  0  0  0  0  0  0  0  0
  1  2  1  0
  2  3  2  0
  3  4  1  0
  4  5  1  0
  4  6  2  0
  6  7  1  0
  7  8  1  0
  8  9  1  0
  9 10  2  0
  9 11  1  0
 11 12  1  0
 12 13  1  0
 13 14  2  0
 14 15  1  0
 15 16  2  0
 16 17  1  0
  7 18  2  0
 18  2  1  0
 17 13  1  0
M  END
>  <zinc_id>  (1) 
ZINC000000305188

>  <smiles>  (1) 
Cc1cc(C)cc(NC(=S)NCc2ccco2)c1

$$$$
