
     RDKit          3D

 21 22  0  0  0  0  0  0  0  0999 V2000
   -4.4439    3.0978   -0.0607 C   0  0  0  0  0  0  0  0  0  0  0  0
   -4.1129    1.6760    0.0988 C   0  0  0  0  0  0  0  0  0  0  0  0
   -5.1294    0.7752    0.3020 C   0  0  0  0  0  0  0  0  0  0  0  0
   -4.9225   -0.5818    0.4633 C   0  0  0  0  0  0  0  0  0  0  0  0
   -6.0381   -1.5459    0.6831 C   0  0  0  0  0  0  0  0  0  0  0  0
   -3.6063   -1.0074    0.4097 C   0  0  0  0  0  0  0  0  0  0  0  0
   -2.5402   -0.1621    0.2097 C   0  0  0  0  0  0  0  0  0  0  0  0
   -1.1660   -0.6463    0.1591 C   0  0  0  0  0  0  0  0  0  0  0  0
   -0.9414   -1.8887    0.3033 O   0  0  0  0  0  0  0  0  0  0  0  0
   -0.0581    0.1865   -0.0420 N   0  0  0  0  0  0  0  0  0  0  0  0
    1.2888   -0.3081   -0.0890 C   0  0  0  0  0  0  0  0  0  0  0  0
    1.5926   -1.6309    0.0592 C   0  0  0  0  0  0  0  0  0  0  0  0
    2.9243   -2.0116   -0.0014 C   0  0  0  0  0  0  0  0  0  0  0  0
    3.9410   -1.0794   -0.2079 C   0  0  0  0  0  0  0  0  0  0  0  0
    5.2460   -1.4321   -0.2699 F   0  0  0  0  0  0  0  0  0  0  0  0
    3.6269    0.2605   -0.3575 C   0  0  0  0  0  0  0  0  0  0  0  0
    4.6275    1.2297   -0.5676 N   0  0  0  0  0  4  0  0  0  0  0  0
    4.4416    2.3932   -0.2093 O   0  0  0  0  0  0  0  0  0  0  0  0
    5.7962    0.8771   -1.1657 O   0  0  0  0  0  1  0  0  0  0  0  0
    2.2850    0.6189   -0.2932 C   0  0  0  0  0  0  0  0  0  0  0  0
   -2.8112    1.1794    0.0558 C   0  0  0  0  0  0  0  0  0  0  0  0
  1  2  1  0
  2  3  2  0
  3  4  1  0
  4  5  1  0
  4  6  2  0
  6  7  1  0
  7  8  1  0
  8  9  2  0
  8 10  1  0
 10 11  1  0
 11 12  2  0
 12 13  1  0
 13 14  2  0
 14 15  1  0
 14 16  1  0
 16 17  1  0
 17 18  2  0
 17 19  1  0
 16 20  2  0
  7 21  2  0
 21  2  1  0
 20 11  1  0
M  CHG  2  17   1  19  -1
M  END
>  <zinc_id>  (1) 
ZINC000000505728

>  <smiles>  (1) 
Cc1cc(C)cc(C(=O)Nc2ccc(F)c([N+](=O)[O-])c2)c1

$$$$
