
     RDKit          3D

 21 22  0  0  0  0  0  0  0  0999 V2000
   -5.1458   -1.3765   -1.4053 C   0  0  0  0  0  0  0  0  0  0  0  0
   -4.3301   -0.5081   -0.5066 C   0  0  0  0  0  0  0  0  0  0  0  0
   -4.9188    0.3764    0.3726 C   0  0  0  0  0  0  0  0  0  0  0  0
   -4.1873    1.1956    1.2196 C   0  0  0  0  0  0  0  0  0  0  0  0
   -2.8093    1.0897    1.1479 C   0  0  0  0  0  0  0  0  0  0  0  0
   -2.2140    0.2048    0.2687 C   0  0  0  0  0  0  0  0  0  0  0  0
   -0.8011    0.0764    0.1764 N   0  0  0  0  0  0  0  0  0  0  0  0
    0.0004    0.8818    1.0113 C   0  0  0  0  0  0  0  0  0  0  0  0
   -0.5504    1.6777    1.8005 O   0  0  0  0  0  0  0  0  0  0  0  0
    1.4527    0.7659    0.9325 C   0  0  0  0  0  0  0  0  0  0  0  0
    2.2668    1.5523    1.7305 C   0  0  0  0  0  0  0  0  0  0  0  0
    3.6241    1.4417    1.6533 C   0  0  0  0  0  0  0  0  0  0  0  0
    4.1778    0.5381    0.7720 C   0  0  0  0  0  0  0  0  0  0  0  0
    3.3548   -0.2553   -0.0330 C   0  0  0  0  0  0  0  0  0  0  0  0
    3.9479   -1.1809   -0.9348 N   0  0  0  0  0  4  0  0  0  0  0  0
    5.0938   -0.9128   -1.3610 O   0  0  0  0  0  0  0  0  0  0  0  0
    3.2399   -2.2986   -1.2806 O   0  0  0  0  0  1  0  0  0  0  0  0
    1.9904   -0.1429    0.0457 C   0  0  0  0  0  0  0  0  0  0  0  0
    1.0756   -0.9752   -0.8000 C   0  0  0  0  0  0  0  0  0  0  0  0
   -2.9730   -0.6004   -0.5648 C   0  0  0  0  0  0  0  0  0  0  0  0
   -2.2946   -1.5497   -1.5074 C   0  0  0  0  0  0  0  0  0  0  0  0
  1  2  1  0
  2  3  2  0
  3  4  1  0
  4  5  2  0
  5  6  1  0
  6  7  1  0
  7  8  1  0
  8  9  2  0
  8 10  1  0
 10 11  2  0
 11 12  1  0
 12 13  2  0
 13 14  1  0
 14 15  1  0
 15 16  2  0
 15 17  1  0
 14 18  2  0
 18 19  1  0
  6 20  2  0
 20 21  1  0
 20  2  1  0
 18 10  1  0
M  CHG  2  15   1  17  -1
M  END
>  <zinc_id>  (1) 
ZINC000000272602

>  <smiles>  (1) 
Cc1cccc(NC(=O)c2cccc([N+](=O)[O-])c2C)c1C

$$$$
