
     RDKit          3D

 21 23  0  0  0  0  0  0  0  0999 V2000
    1.7842   -0.1239   -3.3472 N   0  0  0  0  0  0  0  0  0  0  0  0
    1.7549   -0.1792   -2.1727 C   0  0  0  0  0  0  0  0  0  0  0  0
    1.7024   -0.2427   -0.7025 C   0  0  0  0  0  0  0  0  0  0  0  0
    0.4853   -0.1440   -0.0945 C   0  0  0  0  0  0  0  0  0  0  0  0
   -0.8242    0.0190   -0.6563 N   0  0  0  0  0  0  0  0  0  0  0  0
   -1.9729    0.1010    0.1670 C   0  0  0  0  0  0  0  0  0  0  0  0
   -1.8067    0.0253    1.5406 C   0  0  0  0  0  0  0  0  0  0  0  0
   -2.8967    0.1017    2.3712 C   0  0  0  0  0  0  0  0  0  0  0  0
   -4.1553    0.2544    1.8121 C   0  0  0  0  0  0  0  0  0  0  0  0
   -4.2759    0.3243    0.4678 C   0  0  0  0  0  0  0  0  0  0  0  0
   -3.1944    0.2514   -0.4186 C   0  0  0  0  0  0  0  0  0  0  0  0
   -3.4015    0.3333   -1.8185 N   0  0  0  0  0  4  0  0  0  0  0  0
   -2.6371   -0.2861   -2.5794 O   0  0  0  0  0  0  0  0  0  0  0  0
   -4.4403    1.0955   -2.2970 O   0  0  0  0  0  1  0  0  0  0  0  0
    0.8488   -0.2592    1.5608 S   0  0  0  0  0  0  0  0  0  0  0  0
    2.5323   -0.4305    1.4631 C   0  0  0  0  0  0  0  0  0  0  0  0
    2.7774   -0.3929    0.1074 C   0  0  0  0  0  0  0  0  0  0  0  0
    4.2295   -0.5328   -0.3444 C   0  0  0  0  0  0  0  0  0  0  0  0
    5.1032    0.1938    0.5751 C   0  0  0  0  0  0  0  0  0  0  0  0
    4.6745    0.4818    1.9519 C   0  0  0  0  0  0  0  0  0  0  0  0
    3.7124   -0.5900    2.4141 C   0  0  0  0  0  0  0  0  0  0  0  0
  1  2  3  0
  2  3  1  0
  3  4  2  0
  4  5  1  0
  5  6  1  0
  6  7  2  0
  7  8  1  0
  8  9  2  0
  9 10  1  0
 10 11  2  0
 11 12  1  0
 12 13  2  0
 12 14  1  0
  4 15  1  0
 15 16  1  0
 16 17  2  0
 17 18  1  0
 18 19  1  0
 19 20  1  0
 20 21  1  0
 17  3  1  0
 11  6  1  0
 21 16  1  0
M  CHG  2  12   1  14  -1
M  END
>  <zinc_id>  (1) 
ZINC000004183653

>  <smiles>  (1) 
N#Cc1c(Nc2ccccc2[N+](=O)[O-])sc2c1CCCC2

$$$$
