
     RDKit          3D

 30 32  0  0  0  0  0  0  0  0999 V2000
   -4.8049    3.1201   -1.4525 C   0  0  0  0  0  0  0  0  0  0  0  0
   -5.8339    2.0490   -1.6386 C   0  0  0  0  0  0  0  0  0  0  0  0
   -5.9607    1.1040   -0.5204 C   0  0  0  0  0  0  0  0  0  0  0  0
   -7.0217    1.1859    0.3666 C   0  0  0  0  0  0  0  0  0  0  0  0
   -7.1326    0.2967    1.4036 C   0  0  0  0  0  0  0  0  0  0  0  0
   -6.1630   -0.6930    1.5564 C   0  0  0  0  0  0  0  0  0  0  0  0
   -5.1165   -0.7861    0.6950 C   0  0  0  0  0  0  0  0  0  0  0  0
   -4.0928   -1.8326    0.8708 C   0  0  0  0  0  0  0  0  0  0  0  0
   -4.2398   -2.9536   -0.1184 C   0  0  0  0  0  0  0  0  0  0  0  0
   -4.9967    0.1009   -0.3487 C   0  0  0  0  0  0  0  0  0  0  0  0
   -3.9299    0.0642   -1.2816 N   0  0  0  0  0  0  0  0  0  0  0  0
   -2.7121    0.7606   -0.9305 C   0  0  0  0  0  0  0  0  0  0  0  0
   -2.6755    1.3318    0.1672 O   0  0  0  0  0  0  0  0  0  0  0  0
   -1.5614    0.7835   -1.8514 C   0  0  0  0  0  0  0  0  0  0  0  0
   -0.5124    1.4886   -1.2643 O   0  0  0  0  0  0  0  0  0  0  0  0
    0.0942    1.0548   -0.0832 C   0  0  0  0  0  0  0  0  0  0  0  0
   -0.3004    0.0132    0.4677 O   0  0  0  0  0  0  0  0  0  0  0  0
    1.1879    1.8941    0.4293 C   0  0  0  0  0  0  0  0  0  0  0  0
    2.4428    1.0858    0.4202 C   0  0  0  0  0  0  0  0  0  0  0  0
    3.1938    1.0153   -0.7444 C   0  0  0  0  0  0  0  0  0  0  0  0
    4.3651    0.3034   -0.7968 C   0  0  0  0  0  0  0  0  0  0  0  0
    4.8557   -0.3828    0.3175 C   0  0  0  0  0  0  0  0  0  0  0  0
    6.1074   -1.1274    0.2684 C   0  0  0  0  0  0  0  0  0  0  0  0
    6.9445   -1.2749    1.3621 C   0  0  0  0  0  0  0  0  0  0  0  0
    8.1403   -1.9943    1.2563 C   0  0  0  0  0  0  0  0  0  0  0  0
    8.5065   -2.5672    0.0655 C   0  0  0  0  0  0  0  0  0  0  0  0
    7.6838   -2.4265   -1.0221 C   0  0  0  0  0  0  0  0  0  0  0  0
    6.5052   -1.7161   -0.9137 C   0  0  0  0  0  0  0  0  0  0  0  0
    4.1044   -0.3064    1.4635 C   0  0  0  0  0  0  0  0  0  0  0  0
    2.9230    0.4092    1.5218 C   0  0  0  0  0  0  0  0  0  0  0  0
  1  2  1  0
  2  3  1  0
  3  4  2  0
  4  5  1  0
  5  6  2  0
  6  7  1  0
  7  8  1  0
  8  9  1  0
  7 10  2  0
 10 11  1  0
 11 12  1  0
 12 13  2  0
 12 14  1  0
 14 15  1  0
 15 16  1  0
 16 17  2  0
 16 18  1  0
 18 19  1  0
 19 20  2  0
 20 21  1  0
 21 22  2  0
 22 23  1  0
 23 24  2  0
 24 25  1  0
 25 26  2  0
 26 27  1  0
 27 28  2  0
 22 29  1  0
 29 30  2  0
 10  3  1  0
 30 19  1  0
 28 23  1  0
M  END
>  <zinc_id>  (1) 
ZINC000003216401

>  <smiles>  (1) 
CCc1cccc(CC)c1NC(=O)COC(=O)Cc1ccc(-c2ccccc2)cc1

$$$$
