
     RDKit          3D

 31 34  0  0  0  0  0  0  0  0999 V2000
    5.6331   -1.4893    2.2275 C   0  0  0  0  0  0  0  0  0  0  0  0
    6.9554   -0.7858    1.9971 C   0  0  0  0  0  0  0  0  0  0  0  0
    7.2394   -0.8701    0.6153 O   0  0  0  0  0  0  0  0  0  0  0  0
    6.3768   -0.3258   -0.3427 C   0  0  0  0  0  0  0  0  0  0  0  0
    5.2113    0.3181   -0.0133 C   0  0  0  0  0  0  0  0  0  0  0  0
    4.3534    0.8590   -0.9485 C   0  0  0  0  0  0  0  0  0  0  0  0
    4.6430    0.7699   -2.3054 C   0  0  0  0  0  0  0  0  0  0  0  0
    3.8254    1.2924   -3.2926 O   0  0  0  0  0  0  0  0  0  0  0  0
    2.6403    1.9507   -2.9138 C   0  0  0  0  0  0  0  0  0  0  0  0
    1.7044    1.0591   -2.1655 C   0  0  0  0  0  0  0  0  0  0  0  0
    1.8612   -0.3108   -2.1456 C   0  0  0  0  0  0  0  0  0  0  0  0
    0.9810   -1.1187   -1.4457 C   0  0  0  0  0  0  0  0  0  0  0  0
   -0.0814   -0.5930   -0.7446 C   0  0  0  0  0  0  0  0  0  0  0  0
   -1.0428   -1.4174   -0.0027 C   0  0  0  0  0  0  0  0  0  0  0  0
   -1.0006   -2.6526   -0.1117 O   0  0  0  0  0  0  0  0  0  0  0  0
   -1.9742   -0.7515    0.8025 N   0  0  0  0  0  0  0  0  0  0  0  0
   -2.9278   -1.4314    1.5445 N   0  0  0  0  0  0  0  0  0  0  0  0
   -4.0269   -0.7447    2.1583 C   0  0  0  0  0  0  0  0  0  0  0  0
   -4.0731   -0.3517    3.3944 C   0  0  0  0  0  0  0  0  0  0  0  0
   -5.1736    0.3426    4.0346 C   0  0  0  0  0  0  0  0  0  0  0  0
   -6.3395    0.6866    3.2130 C   0  0  0  0  0  0  0  0  0  0  0  0
   -6.2729    0.2243    1.8276 C   0  0  0  0  0  0  0  0  0  0  0  0
   -7.3801    0.4921    0.9948 C   0  0  0  0  0  0  0  0  0  0  0  0
   -7.3864    0.0910   -0.3195 C   0  0  0  0  0  0  0  0  0  0  0  0
   -6.2913   -0.5702   -0.7888 C   0  0  0  0  0  0  0  0  0  0  0  0
   -5.1968   -0.8524   -0.0210 C   0  0  0  0  0  0  0  0  0  0  0  0
   -5.1925   -0.4429    1.3200 C   0  0  0  0  0  0  0  0  0  0  0  0
   -0.2133    0.7771   -0.7821 C   0  0  0  0  0  0  0  0  0  0  0  0
    0.6419    1.5921   -1.4641 C   0  0  0  0  0  0  0  0  0  0  0  0
    5.8251    0.1147   -2.6266 C   0  0  0  0  0  0  0  0  0  0  0  0
    6.6817   -0.4239   -1.6955 C   0  0  0  0  0  0  0  0  0  0  0  0
  1  2  1  0
  2  3  1  0
  3  4  1  0
  4  5  2  0
  5  6  1  0
  6  7  2  0
  7  8  1  0
  8  9  1  0
  9 10  1  0
 10 11  2  0
 11 12  1  0
 12 13  2  0
 13 14  1  0
 14 15  2  0
 14 16  1  0
 16 17  1  0
 17 18  1  0
 18 19  2  0
 19 20  1  0
 20 21  1  0
 21 22  1  0
 22 23  2  0
 23 24  1  0
 24 25  2  0
 25 26  1  0
 26 27  2  0
 13 28  1  0
 28 29  2  0
  7 30  1  0
 30 31  2  0
 31  4  1  0
 29 10  1  0
 27 18  1  0
 27 22  1  0
M  END
>  <zinc_id>  (1) 
ZINC000003247329

>  <smiles>  (1) 
CCOc1ccc(OCc2ccc(C(=O)NNC3=CCCc4ccccc43)cc2)cc1

$$$$
