
     RDKit          3D

 20 21  0  0  0  0  0  0  0  0999 V2000
    4.4635    0.7919    3.0521 C   0  0  0  0  0  0  0  0  0  0  0  0
    4.1941    0.3360    1.6585 C   0  0  0  0  0  0  0  0  0  0  0  0
    5.2013    0.0011    0.8009 C   0  0  0  0  0  0  0  0  0  0  0  0
    4.9044   -0.4121   -0.4696 C   0  0  0  0  0  0  0  0  0  0  0  0
    3.5743   -0.4941   -0.8973 C   0  0  0  0  0  0  0  0  0  0  0  0
    2.5603   -0.1607   -0.0453 C   0  0  0  0  0  0  0  0  0  0  0  0
    1.1733   -0.2677   -0.5552 C   0  0  0  0  0  0  0  0  0  0  0  0
    1.0225   -0.6614   -1.7462 O   0  0  0  0  0  0  0  0  0  0  0  0
    0.0723    0.0069    0.1087 N   0  0  0  0  0  0  0  0  0  0  0  0
   -1.2737    0.1202    0.2593 C   0  0  0  0  0  0  0  0  0  0  0  0
   -1.9022    0.6778    1.8290 S   0  0  0  0  0  0  0  0  0  0  0  0
   -3.5339    0.6425    1.4986 C   0  0  0  0  0  0  0  0  0  0  0  0
   -4.6877    0.9961    2.3896 C   0  0  0  0  0  0  0  0  0  0  0  0
   -3.5940    0.2133    0.2152 C   0  0  0  0  0  0  0  0  0  0  0  0
   -4.9812    0.0597   -0.4329 C   0  0  0  0  0  0  0  0  0  0  0  0
   -2.4395   -0.0577   -0.4304 C   0  0  0  0  0  0  0  0  0  0  0  0
   -2.4406   -0.5325   -1.8408 C   0  0  0  0  0  0  0  0  0  0  0  0
   -3.7156   -0.6965   -2.5046 N   0  0  0  0  0  0  0  0  0  0  0  0
   -1.4834   -0.8109   -2.5354 O   0  0  0  0  0  0  0  0  0  0  0  0
    2.8860    0.2482    1.2165 C   0  0  0  0  0  0  0  0  0  0  0  0
  1  2  1  0
  2  3  2  0
  3  4  1  0
  4  5  2  0
  5  6  1  0
  6  7  1  0
  7  8  2  0
  7  9  1  0
  9 10  1  0
 10 11  1  0
 11 12  1  0
 12 13  1  0
 12 14  2  0
 14 15  1  0
 14 16  1  0
 16 17  1  0
 17 18  1  0
 17 19  2  0
  6 20  2  0
 20  2  1  0
 16 10  2  0
M  END
>  <zinc_id>  (1) 
ZINC000000038746

>  <smiles>  (1) 
Cc1cccc(C(=O)Nc2sc(C)c(C)c2C(N)=O)c1

$$$$
