
     RDKit          3D

 20 22  0  0  0  0  0  0  0  0999 V2000
    6.1151    1.7340    0.1302 C   0  0  0  0  0  0  0  0  0  0  0  0
    6.0399    0.8587   -1.1113 C   0  0  0  0  0  0  0  0  0  0  0  0
    5.2266   -0.2528   -0.8805 O   0  0  0  0  0  0  0  0  0  0  0  0
    3.8871   -0.1373   -0.5307 C   0  0  0  0  0  0  0  0  0  0  0  0
    3.1377   -1.2759   -0.3163 C   0  0  0  0  0  0  0  0  0  0  0  0
    1.8019   -1.2125    0.0333 C   0  0  0  0  0  0  0  0  0  0  0  0
    1.1575   -0.0016    0.1837 C   0  0  0  0  0  0  0  0  0  0  0  0
   -0.2228    0.0742    0.5449 N   0  0  0  0  0  0  0  0  0  0  0  0
   -1.0031    1.2754    0.7312 C   0  0  0  0  0  0  0  0  0  0  0  0
   -2.3255    0.8797    0.1552 C   0  0  0  0  0  0  0  0  0  0  0  0
   -3.3849    1.5898   -0.3668 C   0  0  0  0  0  0  0  0  0  0  0  0
   -4.4568    0.9219   -0.8077 N   0  0  0  0  0  0  0  0  0  0  0  0
   -4.5769   -0.4165   -0.7775 C   0  0  0  0  0  0  0  0  0  0  0  0
   -5.8194   -1.0328   -1.2983 C   0  0  0  0  0  0  0  0  0  0  0  0
   -3.5275   -1.1621   -0.2579 C   0  0  0  0  0  0  0  0  0  0  0  0
   -3.6524   -2.5369   -0.2276 O   0  0  0  0  0  0  0  0  0  0  0  0
   -2.4175   -0.4896    0.1998 C   0  0  0  0  0  0  0  0  0  0  0  0
   -1.1408   -1.0273    0.8028 C   0  0  0  0  0  0  0  0  0  0  0  0
    1.9133    1.1326   -0.0323 C   0  0  0  0  0  0  0  0  0  0  0  0
    3.2485    1.0789   -0.3819 C   0  0  0  0  0  0  0  0  0  0  0  0
  1  2  1  0
  2  3  1  0
  3  4  1  0
  4  5  2  0
  5  6  1  0
  6  7  2  0
  7  8  1  0
  8  9  1  0
  9 10  1  0
 10 11  2  0
 11 12  1  0
 12 13  2  0
 13 14  1  0
 13 15  1  0
 15 16  1  0
 15 17  2  0
 17 18  1  0
  7 19  1  0
 19 20  2  0
 20  4  1  0
 18  8  1  0
 17 10  1  0
M  END
>  <zinc_id>  (1) 
ZINC000000015584

>  <smiles>  (1) 
CCOc1ccc(N2Cc3cnc(C)c(O)c3C2)cc1

$$$$
