
     RDKit          3D

 19 21  0  0  0  0  0  0  0  0999 V2000
   -3.1175    3.4324    0.2630 C   0  0  0  0  0  0  0  0  0  0  0  0
   -3.0018    1.9407    0.1514 C   0  0  0  0  0  0  0  0  0  0  0  0
   -4.0791    1.1140    0.0688 C   0  0  0  0  0  0  0  0  0  0  0  0
   -3.8826   -0.2547   -0.0319 C   0  0  0  0  0  0  0  0  0  0  0  0
   -5.0660   -1.1360   -0.1207 C   0  0  0  0  0  0  0  0  0  0  0  0
   -2.5883   -0.7891   -0.0490 C   0  0  0  0  0  0  0  0  0  0  0  0
   -2.4502   -2.1474   -0.1500 O   0  0  0  0  0  0  0  0  0  0  0  0
   -1.4902    0.0487    0.0349 C   0  0  0  0  0  0  0  0  0  0  0  0
   -0.1192   -0.4970    0.0182 C   0  0  0  0  0  0  0  0  0  0  0  0
    0.2472   -1.7149   -0.0680 N   0  0  0  0  0  0  0  0  0  0  0  0
    1.6715   -1.8145   -0.0540 N   0  0  0  0  0  0  0  0  0  0  0  0
    1.8795   -0.5048   -0.9965 C   0  0  2  0  0  0  0  0  0  0  0  0
    3.3055   -0.1770   -0.5419 C   0  0  0  0  0  0  0  0  0  0  0  0
    3.8481   -0.1337    0.6625 C   0  0  0  0  0  0  0  0  0  0  0  0
    5.1454    0.1903    0.7499 C   0  0  0  0  0  0  0  0  0  0  0  0
    5.8292    0.4557   -0.4022 C   0  0  0  0  0  0  0  0  0  0  0  0
    4.5535    0.2227   -1.5721 S   0  0  0  0  0  0  0  0  0  0  0  0
    1.0637    0.3664    0.1456 C   0  0  0  0  0  0  0  0  0  0  0  0
   -1.7484    1.3983    0.1330 C   0  0  0  0  0  0  0  0  0  0  0  0
  1  2  1  0
  2  3  2  0
  3  4  1  0
  4  5  1  0
  4  6  2  0
  6  7  1  0
  6  8  1  0
  8  9  1  0
  9 10  2  0
 10 11  1  0
 11 12  1  0
 12 13  1  1
 13 14  2  0
 14 15  1  0
 15 16  2  0
 16 17  1  0
 12 18  1  0
  8 19  2  0
 19  2  1  0
 18  9  1  0
 17 13  1  0
M  END
>  <zinc_id>  (1) 
ZINC000004368351

>  <smiles>  (1) 
Cc1cc(C)c(O)c(C2=NN[C@H](c3cccs3)C2)c1

$$$$
