
     RDKit          3D

 21 23  0  0  0  0  0  0  0  0999 V2000
   -4.6665   -1.8942    1.0035 O   0  0  0  0  0  0  0  0  0  0  0  0
   -4.0244   -0.8458    0.3463 C   0  0  0  0  0  0  0  0  0  0  0  0
   -4.7233    0.0940   -0.3932 C   0  0  0  0  0  0  0  0  0  0  0  0
   -4.0711    1.1253   -1.0372 C   0  0  0  0  0  0  0  0  0  0  0  0
   -2.6793    1.2559   -0.9644 C   0  0  0  0  0  0  0  0  0  0  0  0
   -2.1056    2.3771   -1.6805 C   0  0  0  0  0  0  0  0  0  0  0  0
   -0.8567    2.5711   -1.6688 N   0  0  0  0  0  0  0  0  0  0  0  0
   -0.0034    1.6918   -0.9535 C   0  0  0  0  0  0  0  0  0  0  0  0
    0.3352    1.8923    0.3693 C   0  0  0  0  0  0  0  0  0  0  0  0
    1.1715    1.0130    1.0252 C   0  0  0  0  0  0  0  0  0  0  0  0
    1.7152   -0.1070    0.4098 C   0  0  0  0  0  0  0  0  0  0  0  0
    2.5749   -1.0020    1.1008 N   0  0  0  0  0  0  0  0  0  0  0  0
    2.9659   -0.8473    2.4827 C   0  0  0  0  0  0  0  0  0  0  0  0
    4.2728   -1.5583    2.7417 C   0  0  0  0  0  0  0  0  0  0  0  0
    5.1528   -1.3570    1.5208 C   0  0  0  0  0  0  0  0  0  0  0  0
    4.5997   -2.1852    0.3829 C   0  0  0  0  0  0  0  0  0  0  0  0
    3.0899   -2.1394    0.3725 C   0  0  0  0  0  0  0  0  0  0  0  0
    1.3715   -0.2987   -0.9107 C   0  0  0  0  0  0  0  0  0  0  0  0
    0.5356    0.5793   -1.5678 C   0  0  0  0  0  0  0  0  0  0  0  0
   -2.0034    0.3285   -0.2362 C   0  0  0  0  0  0  0  0  0  0  0  0
   -2.6512   -0.6933    0.4017 C   0  0  0  0  0  0  0  0  0  0  0  0
  1  2  1  0
  2  3  2  0
  3  4  1  0
  4  5  2  0
  5  6  1  0
  6  7  2  0
  7  8  1  0
  8  9  2  0
  9 10  1  0
 10 11  2  0
 11 12  1  0
 12 13  1  0
 13 14  1  0
 14 15  1  0
 15 16  1  0
 16 17  1  0
 11 18  1  0
 18 19  2  0
  5 20  1  0
 20 21  2  0
 21  2  1  0
 19  8  1  0
 17 12  1  0
M  END
>  <zinc_id>  (1) 
ZINC000000497884

>  <smiles>  (1) 
Oc1ccc(/C=N\c2ccc(N3CCCCC3)cc2)cc1

$$$$
