
     RDKit          3D

 19 20  0  0  0  0  0  0  0  0999 V2000
   -0.9313    3.8044    1.6931 C   0  0  0  0  0  0  0  0  0  0  0  0
   -1.7969    3.3936    0.5210 C   0  0  0  0  0  0  0  0  0  0  0  0
   -1.6917    2.0143    0.2429 O   0  0  0  0  0  0  0  0  0  0  0  0
   -0.4518    1.4700   -0.0911 C   0  0  0  0  0  0  0  0  0  0  0  0
    0.6688    2.3032   -0.1447 C   0  0  0  0  0  0  0  0  0  0  0  0
    1.8835    1.7048   -0.4841 C   0  0  0  0  0  0  0  0  0  0  0  0
    1.9999    0.3802   -0.7540 C   0  0  0  0  0  0  0  0  0  0  0  0
    3.3867   -0.2406   -1.1379 C   0  0  1  0  0  0  0  0  0  0  0  0
    4.2463    0.5747   -0.0058 C   0  0  0  0  0  0  0  0  0  0  0  0
    3.2298   -1.5761   -0.2002 C   0  0  0  0  0  0  0  0  0  0  0  0
    4.5123   -2.3669   -0.4174 C   0  0  0  0  0  0  0  0  0  0  0  0
    0.8880   -0.4114   -0.6942 C   0  0  0  0  0  0  0  0  0  0  0  0
   -0.3634    0.1230   -0.3599 C   0  0  0  0  0  0  0  0  0  0  0  0
   -1.5463   -0.7233   -0.2971 C   0  0  0  0  0  0  0  0  0  0  0  0
   -1.5346   -2.0858   -0.5545 C   0  0  0  0  0  0  0  0  0  0  0  0
   -2.8464   -2.5479   -0.3956 C   0  0  0  0  0  0  0  0  0  0  0  0
   -3.2887   -3.8896   -0.5642 N   0  0  0  0  0  0  0  0  0  0  0  0
   -3.5604   -1.4968   -0.0652 O   0  0  0  0  0  0  0  0  0  0  0  0
   -2.8043   -0.4299   -0.0068 N   0  0  0  0  0  0  0  0  0  0  0  0
  1  2  1  0
  2  3  1  0
  3  4  1  0
  4  5  2  0
  5  6  1  0
  6  7  2  0
  7  8  1  0
  8  9  1  1
  8 10  1  0
 10 11  1  0
  7 12  1  0
 12 13  2  0
 13 14  1  0
 14 15  1  0
 15 16  2  0
 16 17  1  0
 16 18  1  0
 18 19  1  0
 13  4  1  0
 19 14  2  0
M  END
>  <zinc_id>  (1) 
ZINC000003704569

>  <smiles>  (1) 
CCOc1ccc([C@@H](C)CC)cc1-c1cc(N)on1

$$$$
