
     RDKit          3D

 19 21  0  0  0  0  0  0  0  0999 V2000
    4.1119    2.9590    3.5092 C   0  0  0  0  0  0  0  0  0  0  0  0
    2.7475    3.0795    2.8392 C   0  0  0  0  0  0  0  0  0  0  0  0
    2.4832    1.7824    2.1172 C   0  0  0  0  0  0  0  0  0  0  0  0
    1.4183    1.4110    1.3855 C   0  0  0  0  0  0  0  0  0  0  0  0
    1.3903    0.1945    0.8250 C   0  0  0  0  0  0  0  0  0  0  0  0
    0.3678   -0.3424    0.0416 C   0  0  0  0  0  0  0  0  0  0  0  0
   -0.8185    0.4342   -0.2397 N   0  0  0  0  0  0  0  0  0  0  0  0
   -1.8656   -0.1034   -1.0364 C   0  0  0  0  0  0  0  0  0  0  0  0
   -1.7325   -1.3807   -1.5383 C   0  0  0  0  0  0  0  0  0  0  0  0
   -2.6877   -1.9672   -2.3082 C   0  0  0  0  0  0  0  0  0  0  0  0
   -3.8391   -1.2759   -2.6095 C   0  0  0  0  0  0  0  0  0  0  0  0
   -3.9963    0.0117   -2.1158 C   0  0  0  0  0  0  0  0  0  0  0  0
   -5.1738    0.6579   -2.4511 O   0  0  0  0  0  0  0  0  0  0  0  0
   -3.0120    0.5812   -1.3380 C   0  0  0  0  0  0  0  0  0  0  0  0
    0.5124   -1.5777   -0.4356 N   0  0  0  0  0  0  0  0  0  0  0  0
    1.5647   -2.3754   -0.2349 C   0  0  0  0  0  0  0  0  0  0  0  0
    2.5672   -1.8687    0.5244 N   0  0  0  0  0  0  0  0  0  0  0  0
    2.4838   -0.6060    1.0463 C   0  0  0  0  0  0  0  0  0  0  0  0
    3.4783    0.3862    2.0191 S   0  0  0  0  0  0  0  0  0  0  0  0
  1  2  1  0
  2  3  1  0
  3  4  2  0
  4  5  1  0
  5  6  2  0
  6  7  1  0
  7  8  1  0
  8  9  2  0
  9 10  1  0
 10 11  2  0
 11 12  1  0
 12 13  1  0
 12 14  2  0
  6 15  1  0
 15 16  2  0
 16 17  1  0
 17 18  2  0
 18 19  1  0
 19  3  1  0
 18  5  1  0
 14  8  1  0
M  END
>  <zinc_id>  (1) 
ZINC000001291412

>  <smiles>  (1) 
CCc1cc2c(Nc3cccc(O)c3)ncnc2s1

$$$$
