
     RDKit          3D

 20 22  0  0  0  0  0  0  0  0999 V2000
   -0.5894   -3.0377   -1.0640 N   0  0  0  0  0  0  0  0  0  0  0  0
   -1.0906   -2.0216   -0.7343 C   0  0  0  0  0  0  0  0  0  0  0  0
   -1.6945   -0.7402   -0.3150 C   0  0  0  0  0  0  0  0  0  0  0  0
   -0.8780    0.2328    0.1680 C   0  0  0  0  0  0  0  0  0  0  0  0
    0.5626    0.2192    0.3487 N   0  0  0  0  0  0  0  0  0  0  0  0
    1.3575    0.6346   -0.5465 C   0  0  0  0  0  0  0  0  0  0  0  0
    2.8080    0.6508   -0.4345 C   0  0  0  0  0  0  0  0  0  0  0  0
    3.6185    1.1150   -1.4428 C   0  0  0  0  0  0  0  0  0  0  0  0
    5.0089    1.1238   -1.3199 C   0  0  0  0  0  0  0  0  0  0  0  0
    5.6096    0.6609   -0.1689 C   0  0  0  0  0  0  0  0  0  0  0  0
    4.7994    0.1953    0.8428 C   0  0  0  0  0  0  0  0  0  0  0  0
    5.4286   -0.2672    1.9958 O   0  0  0  0  0  0  0  0  0  0  0  0
    3.4200    0.1921    0.7078 C   0  0  0  0  0  0  0  0  0  0  0  0
   -1.9462    1.5120    0.5265 S   0  0  0  0  0  0  0  0  0  0  0  0
   -3.4049    0.7824    0.0551 C   0  0  0  0  0  0  0  0  0  0  0  0
   -3.0231   -0.4594   -0.3775 C   0  0  0  0  0  0  0  0  0  0  0  0
   -4.1042   -1.4177   -0.8888 C   0  0  0  0  0  0  0  0  0  0  0  0
   -5.3590   -1.0423   -0.1962 C   0  0  0  0  0  0  0  0  0  0  0  0
   -5.7187    0.3707   -0.6803 C   0  0  0  0  0  0  0  0  0  0  0  0
   -4.8045    1.2967    0.0747 C   0  0  0  0  0  0  0  0  0  0  0  0
  1  2  3  0
  2  3  1  0
  3  4  2  0
  4  5  1  0
  5  6  2  0
  6  7  1  0
  7  8  2  0
  8  9  1  0
  9 10  2  0
 10 11  1  0
 11 12  1  0
 11 13  2  0
  4 14  1  0
 14 15  1  0
 15 16  2  0
 16 17  1  0
 17 18  1  0
 18 19  1  0
 19 20  1  0
 16  3  1  0
 13  7  1  0
 20 15  1  0
M  END
>  <zinc_id>  (1) 
ZINC000000323862

>  <smiles>  (1) 
N#Cc1c(/N=C/c2cccc(O)c2)sc2c1CCCC2

$$$$
