
     RDKit          3D

 30 33  0  0  0  0  0  0  0  0999 V2000
    6.1146   -3.4678   -1.2596 C   0  0  0  0  0  0  0  0  0  0  0  0
    5.5573   -2.2356   -0.6125 C   0  0  0  0  0  0  0  0  0  0  0  0
    4.2595   -1.8756   -1.2863 C   0  0  0  0  0  0  0  0  0  0  0  0
    3.6425   -0.6918   -0.7267 N   0  0  0  0  0  0  0  0  0  0  0  0
    2.7696   -0.5612    0.2712 C   0  0  0  0  0  0  0  0  0  0  0  0
    2.1929   -1.7694    1.1025 C   0  0  1  0  0  0  0  0  0  0  0  0
    2.3717   -1.1026    2.4512 O   0  0  0  0  0  0  0  0  0  0  0  0
    0.6615   -1.4165    0.9810 C   0  0  0  0  0  0  0  0  0  0  0  0
   -0.2054   -2.3824    0.6250 C   0  0  0  0  0  0  0  0  0  0  0  0
   -1.5454   -2.0241    0.5159 C   0  0  0  0  0  0  0  0  0  0  0  0
   -1.9929   -0.7439    0.7560 C   0  0  0  0  0  0  0  0  0  0  0  0
   -3.3008   -0.5346    0.6160 O   0  0  0  0  0  0  0  0  0  0  0  0
   -4.4160   -1.1796    0.3004 C   0  0  0  0  0  0  0  0  0  0  0  0
   -5.5637   -0.2563    0.3537 C   0  0  0  0  0  0  0  0  0  0  0  0
   -5.8971    0.4233   -0.7828 C   0  0  0  0  0  0  0  0  0  0  0  0
   -6.9459    1.2949   -0.8122 C   0  0  0  0  0  0  0  0  0  0  0  0
   -7.6895    1.4955    0.3356 C   0  0  0  0  0  0  0  0  0  0  0  0
   -7.3572    0.8119    1.4856 C   0  0  0  0  0  0  0  0  0  0  0  0
   -6.2820   -0.0756    1.4990 C   0  0  0  0  0  0  0  0  0  0  0  0
   -1.0585    0.2025    1.1172 C   0  0  0  0  0  0  0  0  0  0  0  0
   -1.4977    1.4890    1.3600 O   0  0  0  0  0  0  0  0  0  0  0  0
   -0.6192    2.5374    1.7374 C   0  0  0  0  0  0  0  0  0  0  0  0
    0.2900   -0.1421    1.2309 C   0  0  0  0  0  0  0  0  0  0  0  0
    2.5104    0.7223    0.4014 N   0  0  0  0  0  0  0  0  0  0  0  0
    3.2079    1.4549   -0.5075 C   0  0  0  0  0  0  0  0  0  0  0  0
    3.2522    2.8171   -0.7407 C   0  0  0  0  0  0  0  0  0  0  0  0
    4.0655    3.2784   -1.7482 C   0  0  0  0  0  0  0  0  0  0  0  0
    4.7958    2.3810   -2.4778 C   0  0  0  0  0  0  0  0  0  0  0  0
    4.7429    1.0062   -2.2329 C   0  0  0  0  0  0  0  0  0  0  0  0
    3.9370    0.5448   -1.2341 C   0  0  0  0  0  0  0  0  0  0  0  0
  1  2  1  0
  2  3  1  0
  3  4  1  0
  4  5  1  0
  5  6  1  0
  6  7  1  1
  6  8  1  0
  8  9  2  0
  9 10  1  0
 10 11  2  0
 11 12  1  0
 12 13  1  0
 13 14  1  0
 14 15  2  0
 15 16  1  0
 16 17  2  0
 17 18  1  0
 18 19  2  0
 11 20  1  0
 20 21  1  0
 21 22  1  0
 20 23  2  0
  5 24  2  0
 24 25  1  0
 25 26  2  0
 26 27  1  0
 27 28  2  0
 28 29  1  0
 29 30  2  0
 30  4  1  0
 23  8  1  0
 30 25  1  0
 19 14  1  0
M  END
>  <zinc_id>  (1) 
ZINC000000709232

>  <smiles>  (1) 
CCCn1c([C@@H](O)c2ccc(OCc3ccccc3)c(OC)c2)nc2ccccc21

$$$$
