
     RDKit          3D

 22 24  0  0  0  0  0  0  0  0999 V2000
   -5.2664    1.0127    0.4519 C   0  0  0  0  0  0  0  0  0  0  0  0
   -3.9769    0.2417    0.2618 C   0  0  0  0  0  0  0  0  0  0  0  0
   -3.9950   -1.0392    0.5588 C   0  0  0  0  0  0  0  0  0  0  0  0
   -3.4413    0.4791   -1.3445 C   0  0  2  0  0  0  0  0  0  0  0  0
   -2.3674   -0.5868   -1.6058 C   0  0  0  0  0  0  0  0  0  0  0  0
   -1.3844   -1.0538   -1.0261 C   0  0  0  0  0  0  0  0  0  0  0  0
   -0.5347   -2.1023   -1.5607 N   0  0  0  0  0  0  0  0  0  0  0  0
   -1.0178   -3.2635   -2.0206 O   0  0  0  0  0  0  0  0  0  0  0  0
   -1.0739   -0.4815    0.2952 C   0  0  1  0  0  0  0  0  0  0  0  0
   -1.3368   -1.3552    1.4930 C   0  0  0  0  0  0  0  0  0  0  0  0
    0.4148   -0.4744    0.3320 N   0  0  0  0  0  4  0  0  0  0  0  0
    1.0923   -1.6599    0.2097 O   0  0  0  0  0  1  0  0  0  0  0  0
    1.1326    0.5493    0.4693 C   0  0  0  0  0  0  0  0  0  0  0  0
    2.5974    0.5790    0.5082 C   0  0  0  0  0  0  0  0  0  0  0  0
    3.4000   -0.5001    0.4010 C   0  0  0  0  0  0  0  0  0  0  0  0
    4.7708   -0.3569    0.4508 C   0  0  0  0  0  0  0  0  0  0  0  0
    5.2937    0.9098    0.6118 C   0  0  0  0  0  0  0  0  0  0  0  0
    4.5031    2.0330    0.7244 C   0  0  0  0  0  0  0  0  0  0  0  0
    3.1342    1.8425    0.6692 C   0  0  0  0  0  0  0  0  0  0  0  0
    2.3398    2.9612    0.7812 F   0  0  0  0  0  0  0  0  0  0  0  0
   -1.4388    0.8472    0.2717 C   0  0  0  0  0  0  0  0  0  0  0  0
   -2.8454    1.4180   -0.0699 C   0  0  2  0  0  0  0  0  0  0  0  0
  1  2  1  0
  2  3  1  0
  2  4  1  0
  4  5  1  1
  5  6  2  0
  6  7  1  0
  7  8  1  0
  6  9  1  0
  9 10  1  1
  9 11  1  0
 11 12  1  0
 11 13  2  0
 13 14  1  0
 14 15  2  0
 15 16  1  0
 16 17  2  0
 17 18  1  0
 18 19  2  0
 19 20  1  0
  9 21  1  0
 22 21  1  1
 22  2  1  0
 22  4  1  0
 19 14  1  0
M  CHG  2  11   1  12  -1
M  END
>  <zinc_id>  (1) 
ZINC000003201406

>  <smiles>  (1) 
CC1(C)[C@@H]2C=C(NO)[C@@](C)(/[N+]([O-])=C/c3ccccc3F)C[C@@H]21

$$$$
