
     RDKit          3D

 22 25  0  0  0  0  0  0  0  0999 V2000
   -0.3248   -2.0109    0.0564 O   0  0  0  0  0  0  0  0  0  0  0  0
    0.1256   -0.8743    0.3273 C   0  0  0  0  0  0  0  0  0  0  0  0
   -0.8051    0.1186    0.7150 N   0  0  0  0  0  0  0  0  0  0  0  0
   -2.2197   -0.0629    0.8288 C   0  0  0  0  0  0  0  0  0  0  0  0
   -2.8887    1.2943    0.6790 C   0  0  0  0  0  0  0  0  0  0  0  0
   -4.3876    1.1654    0.9701 C   0  0  0  0  0  0  0  0  0  0  0  0
   -4.9734    0.0954    0.0733 C   0  0  0  0  0  0  0  0  0  0  0  0
   -4.7985    0.5931   -1.3612 C   0  0  0  0  0  0  0  0  0  0  0  0
   -3.3255    0.7522   -1.6735 C   0  0  0  0  0  0  0  0  0  0  0  0
   -2.6573    1.7534   -0.7554 C   0  0  0  0  0  0  0  0  0  0  0  0
   -2.6881   -0.6303   -1.5747 C   0  0  0  0  0  0  0  0  0  0  0  0
   -2.8078   -1.0647   -0.1253 C   0  0  0  0  0  0  0  0  0  0  0  0
   -4.2652   -1.2288    0.2761 C   0  0  0  0  0  0  0  0  0  0  0  0
    1.5421   -0.5500    0.2574 C   0  0  0  0  0  0  0  0  0  0  0  0
    2.1326   -0.0098   -0.8627 C   0  0  0  0  0  0  0  0  0  0  0  0
    3.4784    0.2983   -0.9162 C   0  0  0  0  0  0  0  0  0  0  0  0
    4.3132    0.0811    0.1567 C   0  0  0  0  0  0  0  0  0  0  0  0
    5.7121    0.3986    0.1088 N   0  0  0  0  0  4  0  0  0  0  0  0
    6.4200    0.1826    1.1103 O   0  0  0  0  0  0  0  0  0  0  0  0
    6.3048    0.9281   -0.9896 O   0  0  0  0  0  1  0  0  0  0  0  0
    3.7306   -0.4596    1.2834 C   0  0  0  0  0  0  0  0  0  0  0  0
    2.3824   -0.7698    1.3417 C   0  0  0  0  0  0  0  0  0  0  0  0
  1  2  2  0
  2  3  1  0
  3  4  1  0
  4  5  1  0
  5  6  1  0
  6  7  1  0
  7  8  1  0
  8  9  1  0
  9 10  1  0
  9 11  1  0
 11 12  1  0
 12 13  1  0
  2 14  1  0
 14 15  2  0
 15 16  1  0
 16 17  2  0
 17 18  1  0
 18 19  2  0
 18 20  1  0
 17 21  1  0
 21 22  2  0
 12  4  1  0
 22 14  1  0
 10  5  1  0
 13  7  1  0
M  CHG  2  18   1  20  -1
M  END
>  <zinc_id>  (1) 
ZINC000000568773

>  <smiles>  (1) 
O=C(NC1C2CC3CC(C2)CC1C3)c1ccc([N+](=O)[O-])cc1

$$$$
