
     RDKit          3D

 20 22  0  0  0  0  0  0  0  0999 V2000
    2.8879   -2.0398   -1.9166 C   0  0  0  0  0  0  0  0  0  0  0  0
    1.9129   -0.8955   -2.1778 C   0  0  0  0  0  0  0  0  0  0  0  0
    1.6583   -0.2884   -0.7857 C   0  0  2  0  0  0  0  0  0  0  0  0
    2.9392    0.2128   -0.2029 C   0  0  0  0  0  0  0  0  0  0  0  0
    3.1373    1.4301    0.4236 C   0  0  0  0  0  0  0  0  0  0  0  0
    4.4404    1.5151    0.7740 N   0  0  0  0  0  0  0  0  0  0  0  0
    5.0568    0.3792    0.3793 C   0  0  0  0  0  0  0  0  0  0  0  0
    4.1100   -0.3987   -0.2132 N   0  0  0  0  0  0  0  0  0  0  0  0
    0.9849   -1.3167    0.0307 C   0  0  0  0  0  0  0  0  0  0  0  0
   -0.4022   -0.8601    0.2000 C   0  0  0  0  0  0  0  0  0  0  0  0
   -1.5101   -1.5043    0.8241 C   0  0  0  0  0  0  0  0  0  0  0  0
   -2.7274   -0.8744    0.8814 C   0  0  0  0  0  0  0  0  0  0  0  0
   -4.1500   -1.5809    1.6331 Cl  0  0  0  0  0  0  0  0  0  0  0  0
   -2.9089    0.3903    0.3418 C   0  0  0  0  0  0  0  0  0  0  0  0
   -4.1653    1.0135    0.4288 N   0  0  0  0  0  4  0  0  0  0  0  0
   -4.2178    2.2552    0.4602 O   0  0  0  0  0  0  0  0  0  0  0  0
   -5.3122    0.3010    0.4835 O   0  0  0  0  0  1  0  0  0  0  0  0
   -1.8297    1.0268   -0.2717 C   0  0  0  0  0  0  0  0  0  0  0  0
   -0.5770    0.3753   -0.3308 C   0  0  0  0  0  0  0  0  0  0  0  0
    0.6728    0.8596   -0.9620 C   0  0  0  0  0  0  0  0  0  0  0  0
  1  2  1  0
  3  2  1  6
  3  4  1  0
  4  5  2  0
  5  6  1  0
  6  7  1  0
  7  8  2  0
  3  9  1  0
  9 10  1  0
 10 11  2  0
 11 12  1  0
 12 13  1  0
 12 14  2  0
 14 15  1  0
 15 16  2  0
 15 17  1  0
 14 18  1  0
 18 19  2  0
 19 20  1  0
 20  3  1  0
  8  4  1  0
 19 10  1  0
M  CHG  2  15   1  17  -1
M  END
>  <zinc_id>  (1) 
ZINC000000016716

>  <smiles>  (1) 
CC[C@]1(c2c[nH]cn2)Cc2cc(Cl)c([N+](=O)[O-])cc2C1

$$$$
