
     RDKit          3D

 20 22  0  0  0  0  0  0  0  0999 V2000
   -4.4348    2.0499   -0.4803 C   0  0  0  0  0  0  0  0  0  0  0  0
   -4.8884    0.6660   -0.4206 N   0  0  0  0  0  0  0  0  0  0  0  0
   -6.3543    0.4928   -0.4462 C   0  0  0  0  0  0  0  0  0  0  0  0
   -4.0277   -0.4467   -0.3376 C   0  0  0  0  0  0  0  0  0  0  0  0
   -4.5060   -1.6306   -0.2598 O   0  0  0  0  0  0  0  0  0  0  0  0
   -2.6247   -0.3622   -0.3266 N   0  0  0  0  0  0  0  0  0  0  0  0
   -1.4883   -1.2739   -0.2704 C   0  0  0  0  0  0  0  0  0  0  0  0
   -0.7102   -0.1782    0.4063 C   0  0  0  0  0  0  0  0  0  0  0  0
   -0.9012   -0.1139    1.7846 O   0  0  0  0  0  0  0  0  0  0  0  0
    0.6941   -0.0236   -0.0118 C   0  0  0  0  0  0  0  0  0  0  0  0
    0.9596    0.4261   -1.2843 C   0  0  0  0  0  0  0  0  0  0  0  0
    2.3064    0.5473   -1.6320 C   0  0  0  0  0  0  0  0  0  0  0  0
    3.2874    0.2282   -0.7259 C   0  0  0  0  0  0  0  0  0  0  0  0
    4.6367    0.3466   -1.0569 C   0  0  0  0  0  0  0  0  0  0  0  0
    5.6479    0.0447   -0.1888 C   0  0  0  0  0  0  0  0  0  0  0  0
    5.3255   -0.4074    1.0901 C   0  0  0  0  0  0  0  0  0  0  0  0
    4.0142   -0.5402    1.4672 C   0  0  0  0  0  0  0  0  0  0  0  0
    3.0182   -0.2240    0.5639 C   0  0  0  0  0  0  0  0  0  0  0  0
    1.6955   -0.3424    0.8942 C   0  0  0  0  0  0  0  0  0  0  0  0
   -1.6499    0.7412   -0.3691 C   0  0  0  0  0  0  0  0  0  0  0  0
  1  2  1  0
  2  3  1  0
  2  4  1  0
  4  5  2  0
  4  6  1  0
  6  7  1  0
  7  8  1  0
  8  9  1  0
  8 10  1  0
 10 11  2  0
 11 12  1  0
 12 13  2  0
 13 14  1  0
 14 15  2  0
 15 16  1  0
 16 17  2  0
 17 18  1  0
 18 19  2  0
  8 20  1  0
 20  6  1  0
 19 10  1  0
 18 13  1  0
M  END
>  <zinc_id>  (1) 
ZINC000000387810

>  <smiles>  (1) 
CN(C)C(=O)N1CC(O)(c2ccc3ccccc3c2)C1

$$$$
