
     RDKit          3D

 31 35  0  0  0  0  0  0  0  0999 V2000
    7.6640    3.7797   -0.5425 C   0  0  0  0  0  0  0  0  0  0  0  0
    6.2486    4.3138   -0.3546 C   0  0  0  0  0  0  0  0  0  0  0  0
    5.2775    3.1785   -0.5382 C   0  0  0  0  0  0  0  0  0  0  0  0
    5.5776    2.2007    0.4340 O   0  0  0  0  0  0  0  0  0  0  0  0
    4.7744    1.0328    0.4400 C   0  0  0  0  0  0  0  0  0  0  0  0
    3.7592    0.8703   -0.4577 C   0  0  0  0  0  0  0  0  0  0  0  0
    2.9920   -0.2640   -0.4391 C   0  0  0  0  0  0  0  0  0  0  0  0
    3.2248   -1.2132    0.4465 C   0  0  0  0  0  0  0  0  0  0  0  0
    2.4188   -2.5667    0.5776 C   0  0  2  0  0  0  0  0  0  0  0  0
    2.4085   -2.8695   -0.9920 N   0  0  0  0  0  0  0  0  0  0  0  0
    1.6328   -4.1022   -1.0572 C   0  0  0  0  0  0  0  0  0  0  0  0
    0.1671   -3.6971   -1.0389 C   0  0  0  0  0  0  0  0  0  0  0  0
   -0.0273   -2.5457   -0.0978 C   0  0  0  0  0  0  0  0  0  0  0  0
    0.9543   -2.0169    0.6371 C   0  0  0  0  0  0  0  0  0  0  0  0
    0.4865   -1.0308    1.3583 N   0  0  0  0  0  0  0  0  0  0  0  0
   -0.8412   -0.8486    1.1409 C   0  0  0  0  0  0  0  0  0  0  0  0
   -1.8131    0.0072    1.6070 C   0  0  0  0  0  0  0  0  0  0  0  0
   -3.1086   -0.0996    1.1485 C   0  0  0  0  0  0  0  0  0  0  0  0
   -3.4830   -1.0490    0.2212 C   0  0  0  0  0  0  0  0  0  0  0  0
   -4.7557   -1.2137   -0.2809 O   0  0  0  0  0  0  0  0  0  0  0  0
   -5.8961   -0.5019    0.0124 C   0  0  0  0  0  0  0  0  0  0  0  0
   -5.7139    0.9316   -0.3259 C   0  0  0  0  0  0  0  0  0  0  0  0
   -5.2540    1.7673    0.6696 C   0  0  0  0  0  0  0  0  0  0  0  0
   -5.0876    3.0979    0.3464 C   0  0  0  0  0  0  0  0  0  0  0  0
   -5.3721    3.5394   -0.9068 C   0  0  0  0  0  0  0  0  0  0  0  0
   -5.8298    2.7024   -1.8940 C   0  0  0  0  0  0  0  0  0  0  0  0
   -6.0047    1.3642   -1.5943 C   0  0  0  0  0  0  0  0  0  0  0  0
   -2.4842   -1.8898   -0.2242 C   0  0  0  0  0  0  0  0  0  0  0  0
   -1.1797   -1.8319    0.1943 C   0  0  0  0  0  0  0  0  0  0  0  0
    4.2247   -1.1004    1.3631 C   0  0  0  0  0  0  0  0  0  0  0  0
    5.0403    0.0552    1.3780 C   0  0  0  0  0  0  0  0  0  0  0  0
  1  2  1  0
  2  3  1  0
  3  4  1  0
  4  5  1  0
  5  6  2  0
  6  7  1  0
  7  8  2  0
  9  8  1  6
  9 10  1  0
 10 11  1  0
 11 12  1  0
 12 13  1  0
 13 14  2  0
 14 15  1  0
 15 16  1  0
 16 17  2  0
 17 18  1  0
 18 19  2  0
 19 20  1  0
 20 21  1  0
 21 22  1  0
 22 23  2  0
 23 24  1  0
 24 25  2  0
 25 26  1  0
 26 27  2  0
 19 28  1  0
 28 29  2  0
  8 30  1  0
 30 31  2  0
 31  5  1  0
 14  9  1  0
 29 16  1  0
 29 13  1  0
 27 22  1  0
M  END
>  <zinc_id>  (1) 
ZINC000003738090

>  <smiles>  (1) 
CCCOc1ccc([C@@H]2NCCc3c2[nH]c2ccc(OCc4ccccc4)cc32)cc1

$$$$
