
     RDKit          3D

 18 18  0  0  0  0  0  0  0  0999 V2000
    3.6484    0.7313    1.2009 C   0  0  0  0  0  0  0  0  0  0  0  0
    3.6919   -0.1120   -0.0283 C   0  0  0  0  0  0  0  0  0  0  0  0
    5.0850   -0.6831   -0.1657 C   0  0  0  0  0  0  0  0  0  0  0  0
    3.3566    0.5416   -1.3049 C   0  0  0  0  0  0  0  0  0  0  0  0
    1.9181    1.1379   -1.3459 C   0  0  2  0  0  0  0  0  0  0  0  0
    2.1208    2.4275    0.1828 Br  0  0  0  0  0  0  0  0  0  0  0  0
    1.1090    0.0745   -0.6261 C   0  0  0  0  0  0  0  0  0  0  0  0
    1.5626   -0.9735   -0.1567 O   0  0  0  0  0  0  0  0  0  0  0  0
   -0.2647    0.3581   -0.5133 N   0  0  0  0  0  0  0  0  0  0  0  0
   -1.1929   -0.5066    0.1238 C   0  0  0  0  0  0  0  0  0  0  0  0
   -0.8205   -1.6991    0.6852 C   0  0  0  0  0  0  0  0  0  0  0  0
   -1.7472   -2.5139    1.2955 C   0  0  0  0  0  0  0  0  0  0  0  0
   -3.0911   -2.1733    1.3726 C   0  0  0  0  0  0  0  0  0  0  0  0
   -3.4455   -0.9663    0.7999 C   0  0  0  0  0  0  0  0  0  0  0  0
   -2.5179   -0.1398    0.1833 C   0  0  0  0  0  0  0  0  0  0  0  0
   -2.9518    1.1126   -0.3982 C   0  0  0  0  0  0  0  0  0  0  0  0
   -4.3239    1.5029   -0.3421 N   0  0  0  0  0  0  0  0  0  0  0  0
   -2.1371    1.8814   -0.9626 O   0  0  0  0  0  0  0  0  0  0  0  0
  1  2  1  0
  2  3  1  0
  2  4  1  0
  5  4  1  1
  5  6  1  0
  5  7  1  0
  7  8  2  0
  7  9  1  0
  9 10  1  0
 10 11  2  0
 11 12  1  0
 12 13  2  0
 13 14  1  0
 14 15  2  0
 15 16  1  0
 16 17  1  0
 16 18  2  0
 15 10  1  0
M  END
>  <zinc_id>  (1) 
ZINC000000344401

>  <smiles>  (1) 
CC(C)C[C@H](Br)C(=O)Nc1ccccc1C(N)=O

$$$$
