
     RDKit          3D

 21 22  0  0  0  0  0  0  0  0999 V2000
   -2.4973   -0.8594   -1.4959 C   0  0  0  0  0  0  0  0  0  0  0  0
   -1.0496   -1.3055   -1.2675 C   0  0  0  0  0  0  0  0  0  0  0  0
   -0.4977   -0.7718   -0.2206 C   0  0  0  0  0  0  0  0  0  0  0  0
   -1.2199    0.1777    0.6224 C   0  0  0  0  0  0  0  0  0  0  0  0
   -0.6005    0.6332    1.6076 O   0  0  0  0  0  0  0  0  0  0  0  0
   -2.4859    0.6238    0.4620 O   0  0  0  0  0  0  0  0  0  0  0  0
   -3.1788    1.5372    1.2745 C   0  0  0  0  0  0  0  0  0  0  0  0
   -4.5721    1.6976    0.6531 C   0  0  0  0  0  0  0  0  0  0  0  0
   -3.3364    1.0763    2.6963 C   0  0  0  0  0  0  0  0  0  0  0  0
    0.8865   -1.3061    0.2254 C   0  0  2  0  0  0  0  0  0  0  0  0
    1.6065   -0.0012    0.7199 C   0  0  0  0  0  0  0  0  0  0  0  0
    2.2644   -0.1219    1.9104 C   0  0  0  0  0  0  0  0  0  0  0  0
    2.9458    1.0064    2.4385 C   0  0  0  0  0  0  0  0  0  0  0  0
    2.9332    2.1925    1.7496 C   0  0  0  0  0  0  0  0  0  0  0  0
    2.2703    2.2918    0.5627 C   0  0  0  0  0  0  0  0  0  0  0  0
    1.6089    1.1642    0.0684 C   0  0  0  0  0  0  0  0  0  0  0  0
    0.9212    1.2186   -1.1358 O   0  0  0  0  0  0  0  0  0  0  0  0
    1.5850   -1.6892   -0.9897 N   0  0  0  0  0  0  0  0  0  0  0  0
    0.9830   -2.2734   -2.0651 C   0  0  0  0  0  0  0  0  0  0  0  0
    1.8593   -3.1917   -3.1452 S   0  0  0  0  0  0  0  0  0  0  0  0
   -0.4258   -2.0992   -2.2762 N   0  0  0  0  0  0  0  0  0  0  0  0
  1  2  1  0
  2  3  2  0
  3  4  1  0
  4  5  2  0
  4  6  1  0
  6  7  1  0
  7  8  1  0
  7  9  1  0
  3 10  1  0
 10 11  1  6
 11 12  2  0
 12 13  1  0
 13 14  2  0
 14 15  1  0
 15 16  2  0
 16 17  1  0
 10 18  1  0
 18 19  1  0
 19 20  2  0
 19 21  1  0
 21  2  1  0
 16 11  1  0
M  END
>  <zinc_id>  (1) 
ZINC000000123261

>  <smiles>  (1) 
CC1=C(C(=O)OC(C)C)[C@H](c2ccccc2O)NC(=S)N1

$$$$
