
     RDKit          3D

 21 23  0  0  0  0  0  0  0  0999 V2000
   -3.0913   -2.1398    1.1142 C   0  0  0  0  0  0  0  0  0  0  0  0
   -3.1056   -1.1251    0.4528 C   0  0  0  0  0  0  0  0  0  0  0  0
   -3.1208    0.0962   -0.3736 C   0  0  0  0  0  0  0  0  0  0  0  0
   -1.9756    0.0627   -1.1771 O   0  0  0  0  0  0  0  0  0  0  0  0
   -0.6890    0.0260   -0.6408 C   0  0  0  0  0  0  0  0  0  0  0  0
   -0.6025    0.0242    0.6078 O   0  0  0  0  0  0  0  0  0  0  0  0
    0.4814   -0.0082   -1.4114 N   0  0  0  0  0  0  0  0  0  0  0  0
    1.7500   -0.0444   -0.7365 C   0  0  0  0  0  0  0  0  0  0  0  0
    2.9432   -0.0791   -1.4247 C   0  0  0  0  0  0  0  0  0  0  0  0
    3.9608   -0.1079   -0.4624 C   0  0  0  0  0  0  0  0  0  0  0  0
    5.3214   -0.1471   -0.5138 C   0  0  0  0  0  0  0  0  0  0  0  0
    6.0599   -0.1677    0.6414 C   0  0  0  0  0  0  0  0  0  0  0  0
    5.4174   -0.1484    1.8540 C   0  0  0  0  0  0  0  0  0  0  0  0
    4.0409   -0.1087    1.9214 C   0  0  0  0  0  0  0  0  0  0  0  0
    3.3058   -0.0883    0.7508 C   0  0  0  0  0  0  0  0  0  0  0  0
    1.9997   -0.0508    0.5375 O   0  0  0  0  0  0  0  0  0  0  0  0
   -3.1889    1.3406    0.4922 C   0  0  0  0  0  0  0  0  0  0  0  0
   -4.2882    1.0712    1.5285 C   0  0  0  0  0  0  0  0  0  0  0  0
   -5.5124    0.5972    0.7641 C   0  0  0  0  0  0  0  0  0  0  0  0
   -5.3799    0.9678   -0.7100 C   0  0  0  0  0  0  0  0  0  0  0  0
   -4.3263    0.0295   -1.2938 C   0  0  0  0  0  0  0  0  0  0  0  0
  1  2  3  0
  2  3  1  0
  3  4  1  0
  4  5  1  0
  5  6  2  0
  5  7  1  0
  7  8  1  0
  8  9  2  0
  9 10  1  0
 10 11  2  0
 11 12  1  0
 12 13  2  0
 13 14  1  0
 14 15  2  0
 15 16  1  0
  3 17  1  0
 17 18  1  0
 18 19  1  0
 19 20  1  0
 20 21  1  0
 21  3  1  0
 16  8  1  0
 15 10  1  0
M  END
>  <zinc_id>  (1) 
ZINC000001627515

>  <smiles>  (1) 
C#CC1(OC(=O)Nc2cc3ccccc3o2)CCCCC1

$$$$
