
     RDKit          3D

 21 22  0  0  0  0  0  0  0  0999 V2000
    1.9067   -3.1075    0.2347 C   0  0  0  0  0  0  0  0  0  0  0  0
    1.2091   -1.8776    0.8515 C   0  0  0  0  0  0  0  0  0  0  0  0
    1.3666   -0.7918   -0.1191 C   0  0  0  0  0  0  0  0  0  0  0  0
    0.3863   -0.0827   -0.5606 C   0  0  0  0  0  0  0  0  0  0  0  0
   -0.9786   -0.2487   -0.1730 C   0  0  0  0  0  0  0  0  0  0  0  0
   -1.7328   -1.3847   -0.1513 C   0  0  0  0  0  0  0  0  0  0  0  0
   -1.3350   -3.0214   -0.6505 Cl  0  0  0  0  0  0  0  0  0  0  0  0
   -2.9547   -1.0121    0.3353 N   0  0  0  0  0  0  0  0  0  0  0  0
   -4.0724   -1.9273    0.5221 C   0  0  0  0  0  0  0  0  0  0  0  0
   -2.9720    0.2969    0.6077 C   0  0  0  0  0  0  0  0  0  0  0  0
   -3.9608    1.1510    1.1164 C   0  0  0  0  0  0  0  0  0  0  0  0
   -3.7010    2.4845    1.3027 C   0  0  0  0  0  0  0  0  0  0  0  0
   -2.4643    2.9960    0.9913 C   0  0  0  0  0  0  0  0  0  0  0  0
   -1.4544    2.1759    0.4826 C   0  0  0  0  0  0  0  0  0  0  0  0
   -1.7506    0.8389    0.3077 C   0  0  0  0  0  0  0  0  0  0  0  0
    2.7185   -0.5110   -0.6089 C   0  0  0  0  0  0  0  0  0  0  0  0
    3.6708   -1.1912   -0.1834 O   0  0  0  0  0  0  0  0  0  0  0  0
    2.9638    0.5295   -1.5670 N   0  0  0  0  0  0  0  0  0  0  0  0
    3.9958    1.2812   -1.4197 C   0  0  0  0  0  0  0  0  0  0  0  0
    4.8888    1.0864   -0.3180 N   0  0  0  0  0  0  0  0  0  0  0  0
    4.2705    2.3157   -2.3413 N   0  0  0  0  0  0  0  0  0  0  0  0
  1  2  1  0
  2  3  1  0
  3  4  2  0
  4  5  1  0
  5  6  2  0
  6  7  1  0
  6  8  1  0
  8  9  1  0
  8 10  1  0
 10 11  2  0
 11 12  1  0
 12 13  2  0
 13 14  1  0
 14 15  2  0
  3 16  1  0
 16 17  2  0
 16 18  1  0
 18 19  2  3
 19 20  1  0
 19 21  1  0
 15  5  1  0
 15 10  1  0
M  END
>  <zinc_id>  (1) 
ZINC000003949689

>  <smiles>  (1) 
CC/C(=C\c1c(Cl)n(C)c2ccccc12)C(=O)N=C(N)N

$$$$
