
     RDKit          3D

 20 21  0  0  0  0  0  0  0  0999 V2000
    5.3060    1.0148    1.3847 C   0  0  0  0  0  0  0  0  0  0  0  0
    4.2339    1.0283    0.3208 C   0  0  0  0  0  0  0  0  0  0  0  0
    4.0445   -0.3364   -0.3162 C   0  0  0  0  0  0  0  0  0  0  0  0
    2.9329   -0.1406   -1.3607 C   0  0  0  0  0  0  0  0  0  0  0  0
    1.7080    0.3286   -0.6181 C   0  0  0  0  0  0  0  0  0  0  0  0
    1.3937   -0.8915    0.4309 C   0  0  2  0  0  0  0  0  0  0  0  0
    1.1741   -2.0101   -0.7047 C   0  0  0  0  0  0  0  0  0  0  0  0
    1.7989   -3.0663   -0.4155 O   0  0  0  0  0  0  0  0  0  0  0  0
    0.3936   -1.7427   -1.7914 N   0  0  0  0  0  0  0  0  0  0  0  0
   -0.7266   -0.8734   -1.7078 C   0  0  0  0  0  0  0  0  0  0  0  0
   -1.6629   -0.5504   -2.9868 S   0  0  0  0  0  0  0  0  0  0  0  0
   -0.9908   -0.2923   -0.4335 N   0  0  0  0  0  0  0  0  0  0  0  0
   -2.1025    0.5823   -0.1923 C   0  0  0  0  0  0  0  0  0  0  0  0
   -3.1668    0.1881    0.5781 C   0  0  0  0  0  0  0  0  0  0  0  0
   -4.2160    1.0812    0.8079 C   0  0  0  0  0  0  0  0  0  0  0  0
   -4.1800    2.3455    0.2622 C   0  0  0  0  0  0  0  0  0  0  0  0
   -3.1222    2.7203   -0.4962 C   0  0  0  0  0  0  0  0  0  0  0  0
   -2.1003    1.8380   -0.7142 C   0  0  0  0  0  0  0  0  0  0  0  0
   -0.1676   -0.5853    0.6426 C   0  0  0  0  0  0  0  0  0  0  0  0
   -0.5497   -0.6381    1.8515 O   0  0  0  0  0  0  0  0  0  0  0  0
  1  2  1  0
  2  3  1  0
  3  4  1  0
  4  5  1  0
  6  5  1  6
  6  7  1  0
  7  8  2  0
  7  9  1  0
  9 10  1  0
 10 11  2  0
 10 12  1  0
 12 13  1  0
 13 14  2  0
 14 15  1  0
 15 16  2  0
 16 17  1  0
 17 18  2  0
 12 19  1  0
 19 20  2  0
 19  6  1  0
 18 13  1  0
M  END
>  <zinc_id>  (1) 
ZINC000002689943

>  <smiles>  (1) 
CCCCC[C@@H]1C(=O)NC(=S)N(c2ccccc2)C1=O

$$$$
