
     RDKit          3D

 19 20  0  0  0  0  0  0  0  0999 V2000
   -1.1260    0.4833   -2.0299 C   0  0  0  0  0  0  0  0  0  0  0  0
   -1.3618    0.0300   -0.6360 C   0  0  0  0  0  0  0  0  0  0  0  0
   -0.3516   -0.2882    0.0690 N   0  0  0  0  0  0  0  0  0  0  0  0
    0.9771   -0.2419   -0.3769 N   0  0  0  0  0  0  0  0  0  0  0  0
    1.9894    0.0422    0.5773 C   0  0  0  0  0  0  0  0  0  0  0  0
    1.6632    0.2402    1.7757 O   0  0  0  0  0  0  0  0  0  0  0  0
    3.3996    0.1155    0.2299 C   0  0  0  0  0  0  0  0  0  0  0  0
    3.9430   -0.0735   -1.0342 C   0  0  0  0  0  0  0  0  0  0  0  0
    5.3063    0.0843   -0.9179 C   0  0  0  0  0  0  0  0  0  0  0  0
    6.2713   -0.0344   -2.0344 C   0  0  0  0  0  0  0  0  0  0  0  0
    5.5561    0.3547    0.3595 N   0  0  0  0  0  0  0  0  0  0  0  0
    4.4338    0.3743    1.0415 N   0  0  0  0  0  0  0  0  0  0  0  0
   -2.7155   -0.0551   -0.0694 C   0  0  0  0  0  0  0  0  0  0  0  0
   -2.9452   -0.4744    1.2221 C   0  0  0  0  0  0  0  0  0  0  0  0
   -4.2183   -0.5527    1.7497 C   0  0  0  0  0  0  0  0  0  0  0  0
   -5.3260   -0.2116    1.0005 C   0  0  0  0  0  0  0  0  0  0  0  0
   -6.5824   -0.2871    1.5161 F   0  0  0  0  0  0  0  0  0  0  0  0
   -5.0930    0.2082   -0.2934 C   0  0  0  0  0  0  0  0  0  0  0  0
   -3.8198    0.2860   -0.8196 C   0  0  0  0  0  0  0  0  0  0  0  0
  1  2  1  0
  2  3  2  0
  3  4  1  0
  4  5  1  0
  5  6  2  0
  5  7  1  0
  7  8  2  0
  8  9  1  0
  9 10  1  0
  9 11  2  0
 11 12  1  0
  2 13  1  0
 13 14  2  0
 14 15  1  0
 15 16  2  0
 16 17  1  0
 16 18  1  0
 18 19  2  0
 12  7  1  0
 19 13  1  0
M  END
>  <zinc_id>  (1) 
ZINC000000257645

>  <smiles>  (1) 
C/C(=N\NC(=O)c1cc(C)n[nH]1)c1ccc(F)cc1

$$$$
