
     RDKit          3D

 31 35  0  0  0  0  0  0  0  0999 V2000
   -6.7507    2.5433    2.6627 C   0  0  0  0  0  0  0  0  0  0  0  0
   -5.9671    1.3704    2.5387 O   0  0  0  0  0  0  0  0  0  0  0  0
   -5.1586    1.1892    1.3989 C   0  0  0  0  0  0  0  0  0  0  0  0
   -5.1038    2.1197    0.3943 C   0  0  0  0  0  0  0  0  0  0  0  0
   -4.3057    1.9173   -0.7077 C   0  0  0  0  0  0  0  0  0  0  0  0
   -3.5532    0.7602   -0.7962 C   0  0  0  0  0  0  0  0  0  0  0  0
   -2.6583    0.6187   -2.0996 C   0  0  2  0  0  0  0  0  0  0  0  0
   -3.0462   -0.8300   -2.4373 N   0  0  0  0  0  0  0  0  0  0  0  0
   -2.8452   -1.7101   -1.3507 C   0  0  0  0  0  0  0  0  0  0  0  0
   -1.3681   -2.0675   -1.4649 C   0  0  0  0  0  0  0  0  0  0  0  0
   -0.7040   -0.7929   -1.1769 C   0  0  0  0  0  0  0  0  0  0  0  0
   -1.2460    0.3845   -1.4423 C   0  0  0  0  0  0  0  0  0  0  0  0
   -0.3969    1.4084   -1.0638 N   0  0  0  0  0  0  0  0  0  0  0  0
    0.7154    0.8399   -0.5432 C   0  0  0  0  0  0  0  0  0  0  0  0
    1.8948    1.3292   -0.0055 C   0  0  0  0  0  0  0  0  0  0  0  0
    2.8320    0.4232    0.4386 C   0  0  0  0  0  0  0  0  0  0  0  0
    2.6856   -0.9478    0.3888 C   0  0  0  0  0  0  0  0  0  0  0  0
    3.6510   -1.8196    0.8454 O   0  0  0  0  0  0  0  0  0  0  0  0
    4.8590   -1.5790    1.3995 C   0  0  0  0  0  0  0  0  0  0  0  0
    5.8522   -0.8363    0.6259 C   0  0  0  0  0  0  0  0  0  0  0  0
    6.7808   -1.3712   -0.2209 C   0  0  0  0  0  0  0  0  0  0  0  0
    7.6905   -0.5948   -0.9198 C   0  0  0  0  0  0  0  0  0  0  0  0
    7.6566    0.7693   -0.7537 C   0  0  0  0  0  0  0  0  0  0  0  0
    6.7397    1.3603    0.0887 C   0  0  0  0  0  0  0  0  0  0  0  0
    5.8568    0.5399    0.7603 C   0  0  0  0  0  0  0  0  0  0  0  0
    1.5027   -1.4159   -0.1508 C   0  0  0  0  0  0  0  0  0  0  0  0
    0.5411   -0.5420   -0.6057 C   0  0  0  0  0  0  0  0  0  0  0  0
   -3.6055   -0.1324    0.1672 C   0  0  0  0  0  0  0  0  0  0  0  0
   -4.3982    0.0514    1.2785 C   0  0  0  0  0  0  0  0  0  0  0  0
   -4.4499   -0.8915    2.2904 O   0  0  0  0  0  0  0  0  0  0  0  0
   -3.7011   -2.0939    2.2524 C   0  0  0  0  0  0  0  0  0  0  0  0
  1  2  1  0
  2  3  1  0
  3  4  2  0
  4  5  1  0
  5  6  2  0
  7  6  1  1
  7  8  1  0
  8  9  1  0
  9 10  1  0
 10 11  1  0
 11 12  2  0
 12 13  1  0
 13 14  1  0
 14 15  2  0
 15 16  1  0
 16 17  2  0
 17 18  1  0
 18 19  1  0
 19 20  1  0
 20 21  2  0
 21 22  1  0
 22 23  2  0
 23 24  1  0
 24 25  2  0
 17 26  1  0
 26 27  2  0
  6 28  1  0
 28 29  2  0
 29 30  1  0
 30 31  1  0
 29  3  1  0
 12  7  1  0
 27 14  1  0
 27 11  1  0
 25 20  1  0
M  END
>  <zinc_id>  (1) 
ZINC000001322728

>  <smiles>  (1) 
COc1ccc([C@@H]2NCCc3c2[nH]c2ccc(OCc4ccccc4)cc32)cc1OC

$$$$
