
     RDKit          3D

 21 23  0  0  0  0  0  0  0  0999 V2000
    4.4366    2.1323    1.3288 C   0  0  0  0  0  0  0  0  0  0  0  0
    3.5136    2.5699    0.3339 N   0  0  0  0  0  0  0  0  0  0  0  0
    3.7102    3.8928   -0.2484 C   0  0  0  0  0  0  0  0  0  0  0  0
    2.4171    1.7565   -0.1004 C   0  0  0  0  0  0  0  0  0  0  0  0
    1.5398    2.1787   -1.0498 C   0  0  0  0  0  0  0  0  0  0  0  0
    0.4778    1.3552   -1.4505 C   0  0  0  0  0  0  0  0  0  0  0  0
    0.3148    0.1000   -0.8789 C   0  0  0  0  0  0  0  0  0  0  0  0
    1.1977   -0.2775    0.0500 C   0  0  0  0  0  0  0  0  0  0  0  0
    2.2728    0.5397    0.4649 C   0  0  0  0  0  0  0  0  0  0  0  0
    1.1064   -1.5054    0.6646 O   0  0  0  0  0  0  0  0  0  0  0  0
    0.0959   -2.3393    0.3116 C   0  0  0  0  0  0  0  0  0  0  0  0
    0.0247   -3.6180    0.9709 N   0  0  0  0  0  0  0  0  0  0  0  0
   -0.7799   -2.0515   -0.5612 C   0  0  0  0  0  0  0  0  0  0  0  0
   -1.8277   -2.9699   -0.8972 C   0  0  0  0  0  0  0  0  0  0  0  0
   -2.6819   -3.7387   -1.1595 N   0  0  0  0  0  0  0  0  0  0  0  0
   -0.8670   -0.7403   -1.3675 C   0  0  1  0  0  0  0  0  0  0  0  0
   -2.0201   -0.0531   -0.5689 C   0  0  0  0  0  0  0  0  0  0  0  0
   -2.4426   -0.2724    0.6698 C   0  0  0  0  0  0  0  0  0  0  0  0
   -3.4610    0.4660    1.1167 C   0  0  0  0  0  0  0  0  0  0  0  0
   -3.9973    1.3901    0.2788 C   0  0  0  0  0  0  0  0  0  0  0  0
   -3.0298    1.1848   -1.1401 S   0  0  0  0  0  0  0  0  0  0  0  0
  1  2  1  0
  2  3  1  0
  2  4  1  0
  4  5  2  0
  5  6  1  0
  6  7  2  0
  7  8  1  0
  8  9  2  0
  8 10  1  0
 10 11  1  0
 11 12  1  0
 11 13  2  0
 13 14  1  0
 14 15  3  0
 13 16  1  0
 16 17  1  1
 17 18  2  0
 18 19  1  0
 19 20  2  0
 20 21  1  0
  9  4  1  0
 21 17  1  0
 16  7  1  0
M  END
>  <zinc_id>  (1) 
ZINC000000229918

>  <smiles>  (1) 
CN(C)c1ccc2c(c1)OC(N)=C(C#N)[C@H]2c1cccs1

$$$$
