
     RDKit          3D

 20 21  0  0  0  0  0  0  0  0999 V2000
   -3.3222    3.1234   -0.9451 C   0  0  0  0  0  0  0  0  0  0  0  0
   -1.9317    2.7279   -1.3617 C   0  0  0  0  0  0  0  0  0  0  0  0
   -1.2032    2.1958   -0.2898 O   0  0  0  0  0  0  0  0  0  0  0  0
   -1.5678    1.0675    0.4287 C   0  0  0  0  0  0  0  0  0  0  0  0
   -2.3475    1.3606    1.5679 O   0  0  0  0  0  0  0  0  0  0  0  0
   -1.2238   -0.1376    0.0841 C   0  0  0  0  0  0  0  0  0  0  0  0
   -1.6378   -1.2463    0.8745 C   0  0  0  0  0  0  0  0  0  0  0  0
   -2.4592   -1.0217    2.0870 C   0  0  0  0  0  0  0  0  0  0  0  0
   -1.3250   -2.4687    0.5797 N   0  0  0  0  0  0  0  0  0  0  0  0
   -0.5490   -2.7168   -0.5604 C   0  0  0  0  0  0  0  0  0  0  0  0
   -0.2654   -4.0950   -0.7880 O   0  0  0  0  0  0  0  0  0  0  0  0
   -0.1592   -1.8148   -1.2838 N   0  0  0  0  0  0  0  0  0  0  0  0
   -0.3536   -0.3218   -1.2083 C   0  0  2  0  0  0  0  0  0  0  0  0
    1.0578    0.0494   -0.5870 C   0  0  0  0  0  0  0  0  0  0  0  0
    1.1618    0.9435    0.4060 C   0  0  0  0  0  0  0  0  0  0  0  0
    2.3267    1.3184    0.9907 C   0  0  0  0  0  0  0  0  0  0  0  0
    3.4785    0.7217    0.5114 C   0  0  0  0  0  0  0  0  0  0  0  0
    4.7356    1.0378    1.0456 O   0  0  0  0  0  0  0  0  0  0  0  0
    3.4013   -0.1983   -0.5058 C   0  0  0  0  0  0  0  0  0  0  0  0
    2.1837   -0.5251   -1.0459 C   0  0  0  0  0  0  0  0  0  0  0  0
  1  2  1  0
  2  3  1  0
  3  4  1  0
  4  5  1  0
  4  6  2  0
  6  7  1  0
  7  8  1  0
  7  9  2  0
  9 10  1  0
 10 11  1  0
 10 12  2  0
 12 13  1  0
 13 14  1  1
 14 15  2  0
 15 16  1  0
 16 17  2  0
 17 18  1  0
 17 19  1  0
 19 20  2  0
 13  6  1  0
 20 14  1  0
M  END
>  <zinc_id>  (1) 
ZINC000003194249

>  <smiles>  (1) 
CCO/C(O)=C1/C(C)=NC(O)=N[C@@H]1c1ccc(O)cc1

$$$$
