
     RDKit          3D

 30 32  0  0  0  0  0  0  0  0999 V2000
   -3.0557    5.6999    1.3139 C   0  0  0  0  0  0  0  0  0  0  0  0
   -2.2991    5.0142    0.3489 O   0  0  0  0  0  0  0  0  0  0  0  0
   -1.6947    3.7811    0.6077 C   0  0  0  0  0  0  0  0  0  0  0  0
   -0.9596    3.1322   -0.3543 C   0  0  0  0  0  0  0  0  0  0  0  0
   -0.3627    1.8946   -0.0698 C   0  0  0  0  0  0  0  0  0  0  0  0
   -0.5028    1.3145    1.1697 C   0  0  0  0  0  0  0  0  0  0  0  0
    0.1746   -0.0477    1.4269 C   0  0  2  0  0  0  0  0  0  0  0  0
    1.5989    0.3325    0.8445 C   0  0  0  0  0  0  0  0  0  0  0  0
    2.4904   -0.8386    0.9674 C   0  0  0  0  0  0  0  0  0  0  0  0
    2.0462   -1.8863    1.4638 O   0  0  0  0  0  0  0  0  0  0  0  0
    3.8539   -0.7168    0.5018 C   0  0  0  0  0  0  0  0  0  0  0  0
    4.7015   -1.8017    0.6053 C   0  0  0  0  0  0  0  0  0  0  0  0
    6.0232   -1.6957    0.1602 C   0  0  0  0  0  0  0  0  0  0  0  0
    6.4876   -0.5140   -0.3820 C   0  0  0  0  0  0  0  0  0  0  0  0
    7.9185   -0.4884   -0.8339 C   0  0  0  0  0  0  0  0  0  0  0  0
    5.6607    0.5631   -0.4891 C   0  0  0  0  0  0  0  0  0  0  0  0
    4.3511    0.4287   -0.0383 C   0  0  0  0  0  0  0  0  0  0  0  0
   -0.4530   -0.9298   -0.1409 S   0  0  0  0  0  0  0  0  0  0  0  0
   -2.2383   -1.0779    0.0429 C   0  0  0  0  0  0  0  0  0  0  0  0
   -2.8804   -0.5919    1.1768 C   0  0  0  0  0  0  0  0  0  0  0  0
   -4.2486   -0.7283    1.2719 C   0  0  0  0  0  0  0  0  0  0  0  0
   -4.9375   -1.3384    0.2472 C   0  0  0  0  0  0  0  0  0  0  0  0
   -4.2946   -1.8201   -0.8788 C   0  0  0  0  0  0  0  0  0  0  0  0
   -2.9115   -1.6887   -0.9874 C   0  0  0  0  0  0  0  0  0  0  0  0
   -2.2009   -2.1647   -2.1216 N   0  0  0  0  0  0  0  0  0  0  0  0
   -2.9113   -2.7912   -3.1800 C   0  0  0  0  0  0  0  0  0  0  0  0
   -2.1537   -3.2818   -4.3555 C   0  0  0  0  0  0  0  0  0  0  0  0
   -4.1514   -2.8969   -3.0634 O   0  0  0  0  0  0  0  0  0  0  0  0
   -1.2262    1.9515    2.1189 C   0  0  0  0  0  0  0  0  0  0  0  0
   -1.8247    3.1868    1.8413 C   0  0  0  0  0  0  0  0  0  0  0  0
  1  2  1  0
  2  3  1  0
  3  4  2  0
  4  5  1  0
  5  6  2  0
  6  7  1  0
  7  8  1  6
  8  9  1  0
  9 10  2  0
  9 11  1  0
 11 12  2  0
 12 13  1  0
 13 14  2  0
 14 15  1  0
 14 16  1  0
 16 17  2  0
  7 18  1  0
 18 19  1  0
 19 20  2  0
 20 21  1  0
 21 22  2  0
 22 23  1  0
 23 24  2  0
 24 25  1  0
 25 26  1  0
 26 27  1  0
 26 28  2  0
  6 29  1  0
 29 30  2  0
 30  3  1  0
 17 11  1  0
 24 19  1  0
M  END
>  <zinc_id>  (1) 
ZINC000000723797

>  <smiles>  (1) 
COc1ccc([C@H](CC(=O)c2ccc(C)cc2)Sc2ccccc2NC(C)=O)cc1

$$$$
