
     RDKit          3D

 20 21  0  0  0  0  0  0  0  0999 V2000
   -2.7222   -1.3343    1.0492 C   0  0  0  0  0  0  0  0  0  0  0  0
   -2.4685   -0.6319   -0.2767 C   0  0  0  0  0  0  0  0  0  0  0  0
   -1.7954   -1.5390   -1.2661 C   0  0  0  0  0  0  0  0  0  0  0  0
   -3.8529   -0.1934   -0.7778 C   0  0  0  0  0  0  0  0  0  0  0  0
   -4.4128    0.7648    0.2598 C   0  0  0  0  0  0  0  0  0  0  0  0
   -3.5233    1.9516    0.4843 C   0  0  0  0  0  0  0  0  0  0  0  0
   -2.1380    1.4449    0.8979 C   0  0  0  0  0  0  0  0  0  0  0  0
   -2.2192    0.7528    2.2561 C   0  0  0  0  0  0  0  0  0  0  0  0
   -1.2002    2.6135    0.9997 C   0  0  0  0  0  0  0  0  0  0  0  0
   -1.7112    0.5567   -0.1231 N   0  0  0  0  0  0  0  0  0  0  0  0
   -0.3967    0.4763   -0.3451 O   0  0  0  0  0  0  0  0  0  0  0  0
    0.4873   -0.4116    0.1950 C   0  0  0  0  0  0  0  0  0  0  0  0
    0.0390   -1.2666    1.0003 O   0  0  0  0  0  0  0  0  0  0  0  0
    1.9217   -0.4261   -0.1080 C   0  0  0  0  0  0  0  0  0  0  0  0
    2.4924    0.4774   -0.9803 C   0  0  0  0  0  0  0  0  0  0  0  0
    3.8446    0.4621   -1.2644 C   0  0  0  0  0  0  0  0  0  0  0  0
    4.6811   -0.4673   -0.6796 C   0  0  0  0  0  0  0  0  0  0  0  0
    6.0778   -0.5015   -0.9580 N   0  0  0  0  0  0  0  0  0  0  0  0
    4.1268   -1.3800    0.1967 C   0  0  0  0  0  0  0  0  0  0  0  0
    2.7698   -1.3485    0.4685 C   0  0  0  0  0  0  0  0  0  0  0  0
  1  2  1  0
  2  3  1  0
  2  4  1  0
  4  5  1  0
  5  6  1  0
  6  7  1  0
  7  8  1  0
  7  9  1  0
  7 10  1  0
 10 11  1  0
 11 12  1  0
 12 13  2  0
 12 14  1  0
 14 15  2  0
 15 16  1  0
 16 17  2  0
 17 18  1  0
 17 19  1  0
 19 20  2  0
 10  2  1  0
 20 14  1  0
M  END
>  <zinc_id>  (1) 
ZINC000000128048

>  <smiles>  (1) 
CC1(C)CCCC(C)(C)N1OC(=O)c1ccc(N)cc1

$$$$
