
     RDKit          3D

 31 34  0  0  0  0  0  0  0  0999 V2000
   10.1007   -0.8417   -0.3108 C   0  0  0  0  0  0  0  0  0  0  0  0
    9.1725   -1.2575    0.6939 O   0  0  0  0  0  0  0  0  0  0  0  0
    7.7973   -1.1780    0.4811 C   0  0  0  0  0  0  0  0  0  0  0  0
    6.9292   -1.5862    1.4652 C   0  0  0  0  0  0  0  0  0  0  0  0
    5.5560   -1.5109    1.2614 C   0  0  0  0  0  0  0  0  0  0  0  0
    5.0071   -1.0369    0.0968 C   0  0  0  0  0  0  0  0  0  0  0  0
    3.5385   -0.9636   -0.1065 C   0  0  0  0  0  0  0  0  0  0  0  0
    3.0872    0.3859    0.3908 C   0  0  0  0  0  0  0  0  0  0  0  0
    1.5955    0.5053    0.1979 C   0  0  0  0  0  0  0  0  0  0  0  0
    0.9289   -0.4286   -0.3341 O   0  0  0  0  0  0  0  0  0  0  0  0
    0.8863    1.6517    0.5993 N   0  0  0  0  0  0  0  0  0  0  0  0
   -0.5133    1.7885    0.4296 C   0  0  0  0  0  0  0  0  0  0  0  0
   -1.2422    2.3216   -0.6136 C   0  0  0  0  0  0  0  0  0  0  0  0
   -0.6155    2.8832   -1.8399 C   0  0  0  0  0  0  0  0  0  0  0  0
   -2.5436    2.2363   -0.3180 N   0  0  0  0  0  0  0  0  0  0  0  0
   -2.7000    1.6776    0.8575 N   0  0  0  0  0  0  0  0  0  0  0  0
   -3.9802    1.4015    1.5411 C   0  0  0  0  0  0  0  0  0  0  0  0
   -4.4867    0.0624    1.1490 C   0  0  0  0  0  0  0  0  0  0  0  0
   -4.3757   -1.0541    1.9407 C   0  0  0  0  0  0  0  0  0  0  0  0
   -4.8598   -2.2781    1.5202 C   0  0  0  0  0  0  0  0  0  0  0  0
   -5.4671   -2.4127    0.2947 C   0  0  0  0  0  0  0  0  0  0  0  0
   -5.5910   -1.3090   -0.5181 C   0  0  0  0  0  0  0  0  0  0  0  0
   -6.1984   -1.3844   -1.7644 C   0  0  0  0  0  0  0  0  0  0  0  0
   -6.3419   -0.3049   -2.5983 C   0  0  0  0  0  0  0  0  0  0  0  0
   -5.8433    0.9117   -2.1425 C   0  0  0  0  0  0  0  0  0  0  0  0
   -5.2407    1.0008   -0.9132 C   0  0  0  0  0  0  0  0  0  0  0  0
   -5.1061   -0.1017   -0.0871 C   0  0  0  0  0  0  0  0  0  0  0  0
   -1.4760    1.3953    1.3336 C   0  0  0  0  0  0  0  0  0  0  0  0
   -1.1909    0.7528    2.6435 C   0  0  0  0  0  0  0  0  0  0  0  0
    5.9022   -0.6268   -0.8919 C   0  0  0  0  0  0  0  0  0  0  0  0
    7.2711   -0.6995   -0.6949 C   0  0  0  0  0  0  0  0  0  0  0  0
  1  2  1  0
  2  3  1  0
  3  4  2  0
  4  5  1  0
  5  6  2  0
  6  7  1  0
  7  8  1  0
  8  9  1  0
  9 10  2  0
  9 11  1  0
 11 12  1  0
 12 13  1  0
 13 14  1  0
 13 15  2  0
 15 16  1  0
 16 17  1  0
 17 18  1  0
 18 19  2  0
 19 20  1  0
 20 21  2  0
 21 22  1  0
 22 23  2  0
 23 24  1  0
 24 25  2  0
 25 26  1  0
 26 27  2  0
 16 28  1  0
 28 29  1  0
  6 30  1  0
 30 31  2  0
 31  3  1  0
 28 12  2  0
 27 18  1  0
 27 22  1  0
M  END
>  <zinc_id>  (1) 
ZINC000001002623

>  <smiles>  (1) 
COc1ccc(CCC(=O)Nc2c(C)nn(Cc3cccc4ccccc34)c2C)cc1

$$$$
