
     RDKit          3D

 21 23  0  0  0  0  0  0  0  0999 V2000
   -3.4170    1.7791    1.6090 C   0  0  0  0  0  0  0  0  0  0  0  0
   -3.0848    1.6590    0.1278 C   0  0  0  0  0  0  0  0  0  0  0  0
   -2.7370    3.0083   -0.4442 C   0  0  0  0  0  0  0  0  0  0  0  0
   -4.2190    0.9973   -0.6226 C   0  0  0  0  0  0  0  0  0  0  0  0
   -1.8936    0.8228    0.0396 N   0  0  0  0  0  0  0  0  0  0  0  0
   -0.6625    1.2771    0.0980 N   0  0  0  0  0  0  0  0  0  0  0  0
    0.1960    0.2325   -0.0155 C   0  0  0  0  0  0  0  0  0  0  0  0
    1.6635    0.3172   -0.0007 C   0  0  0  0  0  0  0  0  0  0  0  0
    2.2328    1.2948   -0.7827 C   0  0  0  0  0  0  0  0  0  0  0  0
    3.5898    1.5069   -0.8685 C   0  0  0  0  0  0  0  0  0  0  0  0
    4.4015    0.6810   -0.1198 C   0  0  0  0  0  0  0  0  0  0  0  0
    5.7732    0.8278   -0.1498 F   0  0  0  0  0  0  0  0  0  0  0  0
    3.8390   -0.3002    0.6656 C   0  0  0  0  0  0  0  0  0  0  0  0
    2.4837   -0.4917    0.7342 C   0  0  0  0  0  0  0  0  0  0  0  0
   -0.5768   -0.8951   -0.1477 C   0  0  0  0  0  0  0  0  0  0  0  0
   -0.2245   -2.2215   -0.2979 C   0  0  0  0  0  0  0  0  0  0  0  0
    1.1232   -2.6405   -0.3426 N   0  0  0  0  0  0  0  0  0  0  0  0
   -1.2087   -3.1288   -0.4075 N   0  0  0  0  0  0  0  0  0  0  0  0
   -2.5156   -2.7563   -0.3722 C   0  0  0  0  0  0  0  0  0  0  0  0
   -2.8520   -1.4598   -0.2256 N   0  0  0  0  0  0  0  0  0  0  0  0
   -1.9111   -0.5099   -0.1114 C   0  0  0  0  0  0  0  0  0  0  0  0
  1  2  1  0
  2  3  1  0
  2  4  1  0
  2  5  1  0
  5  6  1  0
  6  7  2  0
  7  8  1  0
  8  9  2  0
  9 10  1  0
 10 11  2  0
 11 12  1  0
 11 13  1  0
 13 14  2  0
  7 15  1  0
 15 16  2  0
 16 17  1  0
 16 18  1  0
 18 19  2  0
 19 20  1  0
 20 21  2  0
 21  5  1  0
 14  8  1  0
 21 15  1  0
M  END
>  <zinc_id>  (1) 
ZINC000001404530

>  <smiles>  (1) 
CC(C)(C)n1nc(-c2ccc(F)cc2)c2c(N)ncnc21

$$$$
