
     RDKit          3D

 32 35  0  0  0  0  0  0  0  0999 V2000
   -7.1761   -4.0995   -1.5166 C   0  0  0  0  0  0  0  0  0  0  0  0
   -6.0237   -3.1461   -1.4538 C   0  0  0  0  0  0  0  0  0  0  0  0
   -5.1342   -3.4624   -0.4006 O   0  0  0  0  0  0  0  0  0  0  0  0
   -4.0164   -2.6628   -0.2201 C   0  0  0  0  0  0  0  0  0  0  0  0
   -3.0985   -2.9056    0.7869 C   0  0  0  0  0  0  0  0  0  0  0  0
   -1.9897   -2.0799    0.9348 C   0  0  0  0  0  0  0  0  0  0  0  0
   -1.7638   -1.0048    0.0989 C   0  0  0  0  0  0  0  0  0  0  0  0
   -0.5871   -0.1435    0.2703 C   0  0  0  0  0  0  0  0  0  0  0  0
    0.6798   -0.6811    0.4905 C   0  0  0  0  0  0  0  0  0  0  0  0
    1.7920    0.1182    0.6528 C   0  0  0  0  0  0  0  0  0  0  0  0
    3.1153   -0.4700    0.8835 C   0  0  0  0  0  0  0  0  0  0  0  0
    4.1040    0.2776    1.0267 O   0  0  0  0  0  0  0  0  0  0  0  0
    3.2873   -1.8604    0.9457 N   0  0  0  0  0  0  0  0  0  0  0  0
    4.6152   -2.3923    1.1758 C   0  0  0  0  0  0  0  0  0  0  0  0
    5.5739   -1.9904    0.1190 C   0  0  0  0  0  0  0  0  0  0  0  0
    5.8343   -2.6903   -1.0529 C   0  0  0  0  0  0  0  0  0  0  0  0
    6.7859   -1.9382   -1.7156 C   0  0  0  0  0  0  0  0  0  0  0  0
    7.0498   -0.8436   -0.9307 C   0  0  0  0  0  0  0  0  0  0  0  0
    6.3131   -0.9101    0.1466 O   0  0  0  0  0  0  0  0  0  0  0  0
    1.6047    1.4760    0.5891 C   0  0  0  0  0  0  0  0  0  0  0  0
    0.3755    2.0592    0.3739 C   0  0  0  0  0  0  0  0  0  0  0  0
    0.1751    3.4219    0.3080 C   0  0  0  0  0  0  0  0  0  0  0  0
   -1.0623    3.9899    0.0918 C   0  0  0  0  0  0  0  0  0  0  0  0
   -1.2167    5.3791    0.0327 O   0  0  0  0  0  0  0  0  0  0  0  0
   -0.0856    6.1913    0.1978 C   0  0  0  0  0  0  0  0  0  0  0  0
   -2.1438    3.1446   -0.0644 C   0  0  0  0  0  0  0  0  0  0  0  0
   -3.3899    3.7133   -0.2820 O   0  0  0  0  0  0  0  0  0  0  0  0
   -4.5137    2.8389   -0.4444 C   0  0  0  0  0  0  0  0  0  0  0  0
   -1.9643    1.7853   -0.0019 C   0  0  0  0  0  0  0  0  0  0  0  0
   -0.7120    1.2292    0.2164 C   0  0  0  0  0  0  0  0  0  0  0  0
   -2.6695   -0.7617   -0.8981 C   0  0  0  0  0  0  0  0  0  0  0  0
   -3.7585   -1.5820   -1.0345 C   0  0  0  0  0  0  0  0  0  0  0  0
  1  2  1  0
  2  3  1  0
  3  4  1  0
  4  5  2  0
  5  6  1  0
  6  7  2  0
  7  8  1  0
  8  9  2  0
  9 10  1  0
 10 11  1  0
 11 12  2  0
 11 13  1  0
 13 14  1  0
 14 15  1  0
 15 16  2  0
 16 17  1  0
 17 18  2  0
 18 19  1  0
 10 20  2  0
 20 21  1  0
 21 22  2  0
 22 23  1  0
 23 24  1  0
 24 25  1  0
 23 26  2  0
 26 27  1  0
 27 28  1  0
 26 29  1  0
 29 30  2  0
  7 31  1  0
 31 32  2  0
 32  4  1  0
 30  8  1  0
 19 15  1  0
 30 21  1  0
M  END
>  <zinc_id>  (1) 
ZINC000001464601

>  <smiles>  (1) 
CCOc1ccc(-c2cc(C(=O)NCc3ccco3)cc3cc(OC)c(OC)cc23)cc1

$$$$
