
     RDKit          3D

 20 22  0  0  0  0  0  0  0  0999 V2000
   -0.1322   -1.5786   -2.4113 C   0  0  0  0  0  0  0  0  0  0  0  0
   -1.0940   -0.8209   -1.5389 C   0  0  0  0  0  0  0  0  0  0  0  0
   -2.3442   -0.5471   -1.7887 O   0  0  0  0  0  0  0  0  0  0  0  0
   -2.8512    0.1308   -0.7872 C   0  0  0  0  0  0  0  0  0  0  0  0
   -4.1292    0.6608   -0.5558 C   0  0  0  0  0  0  0  0  0  0  0  0
   -4.3634    1.3412    0.6215 C   0  0  0  0  0  0  0  0  0  0  0  0
   -3.3761    1.5087    1.5656 C   0  0  0  0  0  0  0  0  0  0  0  0
   -3.6618    2.2050    2.7418 O   0  0  0  0  0  0  0  0  0  0  0  0
   -2.1074    0.9952    1.3603 C   0  0  0  0  0  0  0  0  0  0  0  0
   -1.8894    0.3157    0.1745 C   0  0  0  0  0  0  0  0  0  0  0  0
   -0.7428   -0.2974   -0.3009 C   0  0  0  0  0  0  0  0  0  0  0  0
    0.5572   -0.3906    0.3316 C   0  0  0  0  0  0  0  0  0  0  0  0
    0.7283    0.1268    1.4496 O   0  0  0  0  0  0  0  0  0  0  0  0
    1.5934   -1.0647   -0.3359 N   0  0  0  0  0  0  0  0  0  0  0  0
    2.9002   -1.1724    0.2724 C   0  0  0  0  0  0  0  0  0  0  0  0
    3.8985   -1.8839   -0.5679 C   0  0  0  0  0  0  0  0  0  0  0  0
    4.9292   -1.0079   -1.2073 C   0  0  0  0  0  0  0  0  0  0  0  0
    4.5307    0.4317   -1.2612 C   0  0  0  0  0  0  0  0  0  0  0  0
    4.1881    0.9782    0.0848 C   0  0  0  0  0  0  0  0  0  0  0  0
    3.3662    0.0692    0.9296 C   0  0  0  0  0  0  0  0  0  0  0  0
  1  2  1  0
  2  3  1  0
  3  4  1  0
  4  5  2  0
  5  6  1  0
  6  7  2  0
  7  8  1  0
  7  9  1  0
  9 10  2  0
 10 11  1  0
 11 12  1  0
 12 13  2  0
 12 14  1  0
 14 15  1  0
 15 16  1  0
 16 17  1  0
 17 18  1  0
 18 19  1  0
 19 20  1  0
 11  2  2  0
 20 15  1  0
 10  4  1  0
M  END
>  <zinc_id>  (1) 
ZINC000004136953

>  <smiles>  (1) 
Cc1oc2ccc(O)cc2c1C(=O)NC1CCCCC1

$$$$
