
     RDKit          3D

 21 22  0  0  0  0  0  0  0  0999 V2000
   -6.6085    1.5776    0.0597 C   0  0  0  0  0  0  0  0  0  0  0  0
   -5.2063    1.0296    0.0241 C   0  0  0  0  0  0  0  0  0  0  0  0
   -4.1471    1.8035   -0.4030 C   0  0  0  0  0  0  0  0  0  0  0  0
   -2.8785    1.3065   -0.4710 C   0  0  0  0  0  0  0  0  0  0  0  0
   -2.5682   -0.0424   -0.0972 C   0  0  0  0  0  0  0  0  0  0  0  0
   -1.2036   -0.3569   -0.2523 N   0  0  0  0  0  0  0  0  0  0  0  0
   -0.2453    0.0691    0.7652 C   0  0  0  0  0  0  0  0  0  0  0  0
   -0.6913    0.6321    1.7358 O   0  0  0  0  0  0  0  0  0  0  0  0
    1.1734   -0.2189    0.4689 C   0  0  0  0  0  0  0  0  0  0  0  0
    1.5761   -1.0168   -0.5484 C   0  0  0  0  0  0  0  0  0  0  0  0
    2.9219   -1.1518   -0.9471 C   0  0  0  0  0  0  0  0  0  0  0  0
    3.8938   -0.4617   -0.2834 C   0  0  0  0  0  0  0  0  0  0  0  0
    5.3333   -0.5018   -0.7411 C   0  0  0  0  0  0  0  0  0  0  0  0
    5.5624   -1.5946   -1.7465 C   0  0  0  0  0  0  0  0  0  0  0  0
    6.3163   -0.6076    0.3690 C   0  0  0  0  0  0  0  0  0  0  0  0
    5.6429    0.8446   -1.4375 C   0  0  0  0  0  0  0  0  0  0  0  0
    3.5015    0.3516    0.7683 C   0  0  0  0  0  0  0  0  0  0  0  0
    2.1663    0.4885    1.1600 C   0  0  0  0  0  0  0  0  0  0  0  0
   -3.6152   -0.7877    0.3279 C   0  0  0  0  0  0  0  0  0  0  0  0
   -4.9298   -0.2847    0.3981 C   0  0  0  0  0  0  0  0  0  0  0  0
   -5.9943   -1.0779    0.8504 O   0  0  0  0  0  0  0  0  0  0  0  0
  1  2  1  0
  2  3  2  0
  3  4  1  0
  4  5  2  0
  5  6  1  0
  6  7  1  0
  7  8  2  0
  7  9  1  0
  9 10  2  0
 10 11  1  0
 11 12  2  0
 12 13  1  0
 13 14  1  0
 13 15  1  0
 13 16  1  0
 12 17  1  0
 17 18  2  0
  5 19  1  0
 19 20  2  0
 20 21  1  0
 20  2  1  0
 18  9  1  0
M  END
>  <zinc_id>  (1) 
ZINC000000364397

>  <smiles>  (1) 
Cc1ccc(NC(=O)c2ccc(C(C)(C)C)cc2)cc1O

$$$$
