
     RDKit          3D

 19 20  0  0  0  0  0  0  0  0999 V2000
    4.9567    0.9303   -0.8326 C   0  0  0  0  0  0  0  0  0  0  0  0
    3.9611   -0.1483   -0.5303 C   0  0  0  0  0  0  0  0  0  0  0  0
    3.9211   -1.2349   -1.5715 C   0  0  0  0  0  0  0  0  0  0  0  0
    4.1577   -0.7146    0.8739 C   0  0  0  0  0  0  0  0  0  0  0  0
    3.1233   -1.7940    1.1107 C   0  0  0  0  0  0  0  0  0  0  0  0
    1.7775   -1.1657    0.9775 C   0  0  0  0  0  0  0  0  0  0  0  0
    1.1356   -0.6112    2.0814 C   0  0  0  0  0  0  0  0  0  0  0  0
   -0.1185   -0.0283    1.9453 C   0  0  0  0  0  0  0  0  0  0  0  0
   -0.7182   -0.0066    0.7020 C   0  0  0  0  0  0  0  0  0  0  0  0
   -2.0607    0.6278    0.6039 C   0  0  2  0  0  0  0  0  0  0  0  0
   -2.3878    1.4153    1.8492 C   0  0  0  0  0  0  0  0  0  0  0  0
   -3.0863   -0.3739    0.3938 N   0  0  0  0  0  0  0  0  0  0  0  0
   -3.9112    0.0935   -0.6665 C   0  0  0  0  0  0  0  0  0  0  0  0
   -4.9840   -0.4718   -0.9986 O   0  0  0  0  0  0  0  0  0  0  0  0
   -3.3469    1.2570   -1.2647 N   0  0  0  0  0  0  0  0  0  0  0  0
   -2.1533    1.5137   -0.5630 C   0  0  0  0  0  0  0  0  0  0  0  0
   -1.3031    2.3760   -0.8977 O   0  0  0  0  0  0  0  0  0  0  0  0
   -0.1021   -0.5446   -0.3841 C   0  0  0  0  0  0  0  0  0  0  0  0
    1.1390   -1.1197   -0.2415 C   0  0  0  0  0  0  0  0  0  0  0  0
  1  2  1  0
  2  3  1  0
  2  4  1  0
  4  5  1  0
  5  6  1  0
  6  7  2  0
  7  8  1  0
  8  9  2  0
  9 10  1  0
 10 11  1  1
 10 12  1  0
 12 13  1  0
 13 14  2  0
 13 15  1  0
 15 16  1  0
 16 17  2  0
  9 18  1  0
 18 19  2  0
 19  6  1  0
 16 10  1  0
M  END
>  <zinc_id>  (1) 
ZINC000000246384

>  <smiles>  (1) 
CC(C)CCc1ccc([C@]2(C)NC(=O)NC2=O)cc1

$$$$
