
     RDKit          3D

 32 35  0  0  0  0  0  0  0  0999 V2000
    7.2846    3.8023   -0.5130 C   0  0  0  0  0  0  0  0  0  0  0  0
    7.4937    2.6857    0.3187 O   0  0  0  0  0  0  0  0  0  0  0  0
    6.7432    1.5374    0.1346 C   0  0  0  0  0  0  0  0  0  0  0  0
    5.8059    1.5019   -0.8550 C   0  0  0  0  0  0  0  0  0  0  0  0
    5.0515    0.3712   -1.0526 C   0  0  0  0  0  0  0  0  0  0  0  0
    5.2402   -0.7241   -0.2542 C   0  0  0  0  0  0  0  0  0  0  0  0
    4.2804   -2.1483   -0.5184 S   0  0  0  0  0  0  0  0  0  0  0  0
    3.9758   -2.2349   -1.9842 O   0  0  0  0  0  0  0  0  0  0  0  0
    4.9796   -3.3899   -0.0391 O   0  0  0  0  0  0  0  0  0  0  0  0
    2.8486   -2.0007    0.4394 N   0  0  0  0  0  0  0  0  0  0  0  0
    2.1223   -0.7073   -0.1156 C   0  0  1  0  0  0  0  0  0  0  0  0
    1.9378   -1.3480   -1.6325 C   0  0  0  0  0  0  0  0  0  0  0  0
    0.6163   -1.2520    0.3708 C   0  0  0  0  0  0  0  0  0  0  0  0
   -0.2418   -0.1014   -0.0932 C   0  0  0  0  0  0  0  0  0  0  0  0
   -1.6797   -0.3091    0.2105 C   0  0  0  0  0  0  0  0  0  0  0  0
   -2.6858   -0.6629   -0.6672 C   0  0  0  0  0  0  0  0  0  0  0  0
   -3.8720   -0.7584   -0.0487 N   0  0  0  0  0  0  0  0  0  0  0  0
   -5.1699   -1.1074   -0.6440 C   0  0  0  0  0  0  0  0  0  0  0  0
   -5.8068    0.1465   -1.0922 C   0  0  0  0  0  0  0  0  0  0  0  0
   -5.6351    0.6695   -2.3463 C   0  0  0  0  0  0  0  0  0  0  0  0
   -6.2552    1.8636   -2.7380 C   0  0  0  0  0  0  0  0  0  0  0  0
   -7.0402    2.4951   -1.8285 C   0  0  0  0  0  0  0  0  0  0  0  0
   -7.2284    1.9942   -0.5695 C   0  0  0  0  0  0  0  0  0  0  0  0
   -6.6084    0.8181   -0.2068 C   0  0  0  0  0  0  0  0  0  0  0  0
   -3.6348   -0.4643    1.2431 C   0  0  0  0  0  0  0  0  0  0  0  0
   -4.5446   -0.4242    2.2986 C   0  0  0  0  0  0  0  0  0  0  0  0
   -4.1194   -0.1010    3.5610 C   0  0  0  0  0  0  0  0  0  0  0  0
   -2.7896    0.1806    3.7661 C   0  0  0  0  0  0  0  0  0  0  0  0
   -1.8813    0.1400    2.7092 C   0  0  0  0  0  0  0  0  0  0  0  0
   -2.3027   -0.1845    1.4362 C   0  0  0  0  0  0  0  0  0  0  0  0
    6.1740   -0.7084    0.7426 C   0  0  0  0  0  0  0  0  0  0  0  0
    6.9417    0.4206    0.9553 C   0  0  0  0  0  0  0  0  0  0  0  0
  1  2  1  0
  2  3  1  0
  3  4  2  0
  4  5  1  0
  5  6  2  0
  6  7  1  0
  7  8  2  0
  7  9  2  0
  7 10  1  0
 10 11  1  0
 11 12  1  6
 11 13  1  0
 13 14  1  0
 14 15  1  0
 15 16  2  0
 16 17  1  0
 17 18  1  0
 18 19  1  0
 19 20  2  0
 20 21  1  0
 21 22  2  0
 22 23  1  0
 23 24  2  0
 17 25  1  0
 25 26  2  0
 26 27  1  0
 27 28  2  0
 28 29  1  0
 29 30  2  0
  6 31  1  0
 31 32  2  0
 32  3  1  0
 30 15  1  0
 24 19  1  0
 30 25  1  0
M  END
>  <zinc_id>  (1) 
ZINC000003765581

>  <smiles>  (1) 
COc1ccc(S(=O)(=O)N[C@@H](C)CCc2cn(Cc3ccccc3)c3ccccc23)cc1

$$$$
