
     RDKit          3D

 32 36  0  0  0  0  0  0  0  0999 V2000
    0.1008   -0.5482    3.2844 C   0  0  0  0  0  0  0  0  0  0  0  0
    0.1035   -0.2372    1.7938 C   0  0  0  0  0  0  0  0  0  0  0  0
    0.5352    1.2893    1.7492 C   0  0  2  0  0  0  0  0  0  0  0  0
    0.4654    1.4281   -0.1517 S   0  0  0  0  0  0  0  0  0  0  0  0
   -1.2933    1.2156   -0.5004 C   0  0  0  0  0  0  0  0  0  0  0  0
   -2.1038    2.2878   -0.5327 N   0  0  0  0  0  0  0  0  0  0  0  0
   -3.3930    2.2186   -0.7785 N   0  0  0  0  0  0  0  0  0  0  0  0
   -3.9524    0.9972   -1.0156 C   0  0  0  0  0  0  0  0  0  0  0  0
   -5.2510    0.6167   -1.2971 C   0  0  0  0  0  0  0  0  0  0  0  0
   -6.4399    1.3257   -1.4389 C   0  0  0  0  0  0  0  0  0  0  0  0
   -7.6121    0.6491   -1.7294 C   0  0  0  0  0  0  0  0  0  0  0  0
   -7.5657   -0.7275   -1.8716 C   0  0  0  0  0  0  0  0  0  0  0  0
   -6.3998   -1.4238   -1.7326 C   0  0  0  0  0  0  0  0  0  0  0  0
   -5.2185   -0.7547   -1.4412 C   0  0  0  0  0  0  0  0  0  0  0  0
   -3.9511   -1.1891   -1.2547 N   0  0  0  0  0  0  0  0  0  0  0  0
   -3.5509   -2.5808   -1.3331 C   0  0  0  0  0  0  0  0  0  0  0  0
   -3.6537   -3.2662    0.0231 C   0  0  0  0  0  0  0  0  0  0  0  0
   -3.1552   -0.1283   -0.9915 C   0  0  0  0  0  0  0  0  0  0  0  0
   -1.8294    0.0038   -0.7321 N   0  0  0  0  0  0  0  0  0  0  0  0
    2.0543    1.1365    1.8828 C   0  0  0  0  0  0  0  0  0  0  0  0
    2.5359    1.7031    2.8864 O   0  0  0  0  0  0  0  0  0  0  0  0
    2.8881    0.4593    1.0290 N   0  0  0  0  0  0  0  0  0  0  0  0
    4.2882    0.3013    1.1254 C   0  0  0  0  0  0  0  0  0  0  0  0
    4.9109    0.8925    2.2030 C   0  0  0  0  0  0  0  0  0  0  0  0
    6.2731    0.8100    2.4084 C   0  0  0  0  0  0  0  0  0  0  0  0
    6.9747    0.0915    1.4568 C   0  0  0  0  0  0  0  0  0  0  0  0
    6.3644   -0.5084    0.3688 C   0  0  0  0  0  0  0  0  0  0  0  0
    7.0840   -1.2222   -0.5712 C   0  0  0  0  0  0  0  0  0  0  0  0
    6.4165   -1.7953   -1.6318 C   0  0  0  0  0  0  0  0  0  0  0  0
    5.0531   -1.6726   -1.7747 C   0  0  0  0  0  0  0  0  0  0  0  0
    4.3069   -0.9699   -0.8586 C   0  0  0  0  0  0  0  0  0  0  0  0
    5.0147   -0.4018    0.2040 C   0  0  0  0  0  0  0  0  0  0  0  0
  1  2  1  0
  3  2  1  6
  3  4  1  0
  4  5  1  0
  5  6  2  0
  6  7  1  0
  7  8  2  0
  8  9  1  0
  9 10  2  0
 10 11  1  0
 11 12  2  0
 12 13  1  0
 13 14  2  0
 14 15  1  0
 15 16  1  0
 16 17  1  0
 15 18  1  0
 18 19  2  0
  3 20  1  0
 20 21  2  0
 20 22  1  0
 22 23  1  0
 23 24  2  0
 24 25  1  0
 25 26  2  0
 26 27  1  0
 27 28  2  0
 28 29  1  0
 29 30  2  0
 30 31  1  0
 31 32  2  0
 19  5  1  0
 32 23  1  0
 18  8  1  0
 32 27  1  0
 14  9  1  0
M  END
>  <zinc_id>  (1) 
ZINC000000707252

>  <smiles>  (1) 
CC[C@H](Sc1nnc2c3ccccc3n(CC)c2n1)C(=O)Nc1cccc2ccccc12

$$$$
