
     RDKit          3D

 19 21  0  0  0  0  0  0  0  0999 V2000
   -3.0975    2.5072   -1.3137 C   0  0  0  0  0  0  0  0  0  0  0  0
   -1.8701    1.9291   -0.6166 C   0  0  0  0  0  0  0  0  0  0  0  0
   -1.7193    2.7454    0.7211 C   0  0  0  0  0  0  0  0  0  0  0  0
   -2.0756    0.5076   -0.1684 C   0  0  0  0  0  0  0  0  0  0  0  0
   -3.4384   -0.2874    0.4126 S   0  0  0  0  0  0  0  0  0  0  0  0
   -2.7093   -1.7849    0.7998 C   0  0  0  0  0  0  0  0  0  0  0  0
   -3.2696   -3.0009    1.3450 N   0  0  0  0  0  0  0  0  0  0  0  0
   -1.4444   -1.5789    0.4510 N   0  0  0  0  0  0  0  0  0  0  0  0
   -1.0651   -0.4522   -0.0427 C   0  0  0  0  0  0  0  0  0  0  0  0
    0.2868   -0.1516   -0.5496 C   0  0  0  0  0  0  0  0  0  0  0  0
    0.3670    0.1333   -1.9310 C   0  0  0  0  0  0  0  0  0  0  0  0
    1.5584    0.3892   -2.5435 C   0  0  0  0  0  0  0  0  0  0  0  0
    2.7275    0.3710   -1.8245 C   0  0  0  0  0  0  0  0  0  0  0  0
    2.6673    0.0944   -0.4828 C   0  0  0  0  0  0  0  0  0  0  0  0
    3.8203    0.0220    0.2725 C   0  0  0  0  0  0  0  0  0  0  0  0
    3.7936   -0.2789    1.6090 C   0  0  0  0  0  0  0  0  0  0  0  0
    2.5835   -0.5306    2.2233 C   0  0  0  0  0  0  0  0  0  0  0  0
    1.4367   -0.4682    1.4821 C   0  0  0  0  0  0  0  0  0  0  0  0
    1.4480   -0.1657    0.1564 C   0  0  0  0  0  0  0  0  0  0  0  0
  1  2  1  0
  2  3  1  0
  2  4  1  0
  4  5  1  0
  5  6  1  0
  6  7  1  0
  6  8  2  0
  8  9  1  0
  9 10  1  0
 10 11  2  0
 11 12  1  0
 12 13  2  0
 13 14  1  0
 14 15  2  0
 15 16  1  0
 16 17  2  0
 17 18  1  0
 18 19  2  0
  9  4  2  0
 19 10  1  0
 19 14  1  0
M  END
>  <zinc_id>  (1) 
ZINC000003817440

>  <smiles>  (1) 
CC(C)c1sc(N)nc1-c1cccc2ccccc12

$$$$
