
     RDKit          3D

 31 35  0  0  0  0  0  0  0  0999 V2000
    2.8158   -0.1109    0.5022 C   0  0  0  0  0  0  0  0  0  0  0  0
    4.0473    0.1085    0.7017 N   0  0  0  0  0  0  0  0  0  0  0  0
    4.7273   -0.0790    1.9360 C   0  0  0  0  0  0  0  0  0  0  0  0
    6.0733   -0.1880    2.0093 N   0  0  0  0  0  0  0  0  0  0  0  0
    6.4431   -0.3577    3.2934 C   0  0  0  0  0  0  0  0  0  0  0  0
    5.2942   -0.3493    3.9954 N   0  0  0  0  0  0  0  0  0  0  0  0
    4.2661   -0.1815    3.1748 N   0  0  0  0  0  0  0  0  0  0  0  0
    2.1361    0.0872   -0.7703 C   0  0  0  0  0  0  0  0  0  0  0  0
    0.8004   -0.1420   -1.0188 C   0  0  0  0  0  0  0  0  0  0  0  0
    0.5245    0.1517   -2.3122 N   0  0  0  0  0  0  0  0  0  0  0  0
   -0.7890    0.0245   -2.9140 C   0  0  0  0  0  0  0  0  0  0  0  0
   -1.5691    1.3085   -2.7702 C   0  0  0  0  0  0  0  0  0  0  0  0
   -1.7024    1.5812   -1.4028 O   0  0  0  0  0  0  0  0  0  0  0  0
   -2.3380    0.7181   -0.5140 C   0  0  0  0  0  0  0  0  0  0  0  0
   -2.8922   -0.4817   -0.9031 C   0  0  0  0  0  0  0  0  0  0  0  0
   -3.5248   -1.3419   -0.0215 C   0  0  0  0  0  0  0  0  0  0  0  0
   -3.6064   -0.9825    1.3166 C   0  0  0  0  0  0  0  0  0  0  0  0
   -4.2874   -1.9022    2.2824 C   0  0  0  0  0  0  0  0  0  0  0  0
   -4.4460   -1.1402    3.5878 C   0  0  0  0  0  0  0  0  0  0  0  0
   -5.0946    0.1904    3.2760 C   0  0  0  0  0  0  0  0  0  0  0  0
   -6.4845   -0.0980    2.7324 C   0  0  0  0  0  0  0  0  0  0  0  0
   -6.7166   -1.5985    2.5832 C   0  0  0  0  0  0  0  0  0  0  0  0
   -5.6488   -2.2277    1.7162 C   0  0  0  0  0  0  0  0  0  0  0  0
   -3.0510    0.2168    1.6985 C   0  0  0  0  0  0  0  0  0  0  0  0
   -2.4186    1.0756    0.8144 C   0  0  0  0  0  0  0  0  0  0  0  0
    1.6603    0.5769   -2.9394 C   0  0  0  0  0  0  0  0  0  0  0  0
    1.9025    0.9856   -4.2314 C   0  0  0  0  0  0  0  0  0  0  0  0
    3.1656    1.3699   -4.6065 C   0  0  0  0  0  0  0  0  0  0  0  0
    4.1677    1.3351   -3.6672 C   0  0  0  0  0  0  0  0  0  0  0  0
    3.9026    0.9213   -2.3752 C   0  0  0  0  0  0  0  0  0  0  0  0
    2.6426    0.5302   -1.9729 C   0  0  0  0  0  0  0  0  0  0  0  0
  1  2  2  0
  2  3  1  0
  3  4  1  0
  4  5  2  0
  5  6  1  0
  6  7  1  0
  1  8  1  0
  8  9  2  0
  9 10  1  0
 10 11  1  0
 11 12  1  0
 12 13  1  0
 13 14  1  0
 14 15  2  0
 15 16  1  0
 16 17  2  0
 17 18  1  0
 18 19  1  0
 19 20  1  0
 20 21  1  0
 21 22  1  0
 22 23  1  0
 17 24  1  0
 24 25  2  0
 10 26  1  0
 26 27  2  0
 27 28  1  0
 28 29  2  0
 29 30  1  0
 30 31  2  0
  7  3  2  0
 31  8  1  0
 25 14  1  0
 31 26  1  0
 23 18  1  0
M  END
>  <zinc_id>  (1) 
ZINC000004083381

>  <smiles>  (1) 
C(=N/c1nc[nH]n1)\c1cn(CCOc2ccc(C3CCCCC3)cc2)c2ccccc12

$$$$
