
     RDKit          3D

 22 24  0  0  0  0  0  0  0  0999 V2000
    4.9799   -0.7137    1.2235 C   0  0  0  0  0  0  0  0  0  0  0  0
    4.1425   -0.8629   -0.0284 C   0  0  0  0  0  0  0  0  0  0  0  0
    4.9300   -0.5684   -1.2866 C   0  0  0  0  0  0  0  0  0  0  0  0
    3.7192   -2.3221   -0.1228 C   0  0  0  0  0  0  0  0  0  0  0  0
    2.9255   -0.0101    0.0493 C   0  0  0  0  0  0  0  0  0  0  0  0
    1.6692   -0.5714   -0.0355 C   0  0  0  0  0  0  0  0  0  0  0  0
    0.5186    0.1862    0.0326 C   0  0  0  0  0  0  0  0  0  0  0  0
   -0.7678   -0.5022   -0.0682 C   0  0  0  0  0  0  0  0  0  0  0  0
   -0.8583   -1.8694   -0.2252 C   0  0  0  0  0  0  0  0  0  0  0  0
   -2.0990   -2.4953   -0.3193 C   0  0  0  0  0  0  0  0  0  0  0  0
   -3.2783   -1.7908   -0.2607 C   0  0  0  0  0  0  0  0  0  0  0  0
   -4.4926   -2.4062   -0.3531 F   0  0  0  0  0  0  0  0  0  0  0  0
   -3.1947   -0.4226   -0.1038 C   0  0  0  0  0  0  0  0  0  0  0  0
   -4.3892    0.2915   -0.0450 C   0  0  0  0  0  0  0  0  0  0  0  0
   -4.3154    1.6634    0.1120 C   0  0  0  0  0  0  0  0  0  0  0  0
   -3.0697    2.2625    0.2031 C   0  0  0  0  0  0  0  0  0  0  0  0
   -1.9002    1.5612    0.1451 C   0  0  0  0  0  0  0  0  0  0  0  0
   -1.9564    0.1933   -0.0109 C   0  0  0  0  0  0  0  0  0  0  0  0
    0.6030    1.5174    0.1868 N   0  0  0  0  0  0  0  0  0  0  0  0
    1.8433    2.0605    0.2693 C   0  0  0  0  0  0  0  0  0  0  0  0
    2.0255    3.4771    0.4348 N   0  0  0  0  0  0  0  0  0  0  0  0
    2.9648    1.3216    0.2028 N   0  0  0  0  0  0  0  0  0  0  0  0
  1  2  1  0
  2  3  1  0
  2  4  1  0
  2  5  1  0
  5  6  2  0
  6  7  1  0
  7  8  1  0
  8  9  2  0
  9 10  1  0
 10 11  2  0
 11 12  1  0
 11 13  1  0
 13 14  2  0
 14 15  1  0
 15 16  2  0
 16 17  1  0
 17 18  2  0
  7 19  2  0
 19 20  1  0
 20 21  1  0
 20 22  2  0
 22  5  1  0
 18  8  1  0
 18 13  1  0
M  END
>  <zinc_id>  (1) 
ZINC000000023047

>  <smiles>  (1) 
CC(C)(C)c1cc(-c2ccc(F)c3ccccc23)nc(N)n1

$$$$
