
     RDKit          3D

 21 23  0  0  0  0  0  0  0  0999 V2000
   -3.9433    2.1527   -1.0815 C   0  0  0  0  0  0  0  0  0  0  0  0
   -2.8492    1.4189   -0.5638 O   0  0  0  0  0  0  0  0  0  0  0  0
   -2.9700    0.6294    0.5770 C   0  0  0  0  0  0  0  0  0  0  0  0
   -4.1899    0.5711    1.2059 C   0  0  0  0  0  0  0  0  0  0  0  0
   -4.3309   -0.2156    2.3518 C   0  0  0  0  0  0  0  0  0  0  0  0
   -3.2274   -0.9071    2.8070 C   0  0  0  0  0  0  0  0  0  0  0  0
   -1.9939   -0.8436    2.1648 C   0  0  0  0  0  0  0  0  0  0  0  0
   -1.8705   -0.0630    1.0352 C   0  0  0  0  0  0  0  0  0  0  0  0
   -0.6224    0.0275    0.3492 N   0  0  0  0  0  0  0  0  0  0  0  0
    0.5302   -0.6543    0.7688 C   0  0  0  0  0  0  0  0  0  0  0  0
    0.4732   -1.3714    1.7813 O   0  0  0  0  0  0  0  0  0  0  0  0
    1.8274   -0.5518    0.0442 C   0  0  0  0  0  0  0  0  0  0  0  0
    2.9304   -1.2259    0.4755 C   0  0  0  0  0  0  0  0  0  0  0  0
    3.0884   -2.0914    1.5951 N   0  0  0  0  0  0  0  0  0  0  0  0
    4.1252   -0.7983   -0.6504 S   0  0  0  0  0  0  0  0  0  0  0  0
    3.2115    0.2309   -1.6553 C   0  0  0  0  0  0  0  0  0  0  0  0
    1.9771    0.2124   -1.0746 C   0  0  0  0  0  0  0  0  0  0  0  0
    0.9651    1.0811   -1.8145 C   0  0  0  0  0  0  0  0  0  0  0  0
    1.0274    0.5840   -3.2525 C   0  0  0  0  0  0  0  0  0  0  0  0
    2.3703    0.7634   -3.8725 C   0  0  0  0  0  0  0  0  0  0  0  0
    3.4710    1.0509   -2.9003 C   0  0  0  0  0  0  0  0  0  0  0  0
  1  2  1  0
  2  3  1  0
  3  4  2  0
  4  5  1  0
  5  6  2  0
  6  7  1  0
  7  8  2  0
  8  9  1  0
  9 10  1  0
 10 11  2  0
 10 12  1  0
 12 13  2  0
 13 14  1  0
 13 15  1  0
 15 16  1  0
 16 17  2  0
 17 18  1  0
 18 19  1  0
 19 20  1  0
 20 21  1  0
  8  3  1  0
 17 12  1  0
 21 16  1  0
M  END
>  <zinc_id>  (1) 
ZINC000002573410

>  <smiles>  (1) 
COc1ccccc1NC(=O)c1c(N)sc2c1CCCC2

$$$$
