
     RDKit          3D

 33 37  0  0  0  0  0  0  0  0999 V2000
    5.2153   -2.9767    2.4310 C   0  0  0  0  0  0  0  0  0  0  0  0
    4.8523   -1.7242    1.8726 O   0  0  0  0  0  0  0  0  0  0  0  0
    3.5432   -1.3936    1.5565 C   0  0  0  0  0  0  0  0  0  0  0  0
    2.4836   -2.2467    1.7550 C   0  0  0  0  0  0  0  0  0  0  0  0
    1.1946   -1.9021    1.4360 C   0  0  0  0  0  0  0  0  0  0  0  0
    0.9585   -0.6628    0.9006 C   0  0  0  0  0  0  0  0  0  0  0  0
   -0.3851   -0.1842    0.5188 C   0  0  0  0  0  0  0  0  0  0  0  0
   -0.6303    1.0123    0.0456 O   0  0  0  0  0  0  0  0  0  0  0  0
   -1.8765    1.1995   -0.2124 C   0  0  0  0  0  0  0  0  0  0  0  0
   -2.4322    2.4248   -0.7429 C   0  0  0  0  0  0  0  0  0  0  0  0
   -1.6451    3.5121   -1.0186 C   0  0  0  0  0  0  0  0  0  0  0  0
   -2.1370    4.6965   -1.5245 C   0  0  0  0  0  0  0  0  0  0  0  0
   -3.5029    4.7707   -1.7596 C   0  0  0  0  0  0  0  0  0  0  0  0
   -4.2791    3.6868   -1.4834 C   0  0  0  0  0  0  0  0  0  0  0  0
   -3.7419    2.5434   -0.9855 N   0  0  0  0  0  0  0  0  0  0  0  0
   -2.5221    0.0125    0.1213 C   0  0  0  0  0  0  0  0  0  0  0  0
   -1.5662   -0.8329    0.5739 C   0  0  0  0  0  0  0  0  0  0  0  0
   -1.7848   -2.3271    1.0546 C   0  0  2  0  0  0  0  0  0  0  0  0
   -0.7940   -2.9646    0.0120 O   0  0  0  0  0  0  0  0  0  0  0  0
   -3.0785   -2.6795    0.1534 C   0  0  0  0  0  0  0  0  0  0  0  0
   -3.1129   -2.4593   -1.1475 C   0  0  0  0  0  0  0  0  0  0  0  0
   -4.2279   -2.7687   -1.8793 C   0  0  0  0  0  0  0  0  0  0  0  0
   -5.3045   -3.3071   -1.2530 C   0  0  0  0  0  0  0  0  0  0  0  0
   -5.2964   -3.5457    0.0922 C   0  0  0  0  0  0  0  0  0  0  0  0
   -4.1425   -3.2215    0.8274 C   0  0  0  0  0  0  0  0  0  0  0  0
    2.0319    0.1802    0.7081 C   0  0  0  0  0  0  0  0  0  0  0  0
    3.3334   -0.1411    1.0194 C   0  0  0  0  0  0  0  0  0  0  0  0
    4.3934    0.7393    0.8098 O   0  0  0  0  0  0  0  0  0  0  0  0
    4.1677    2.0215    0.2585 C   0  0  0  0  0  0  0  0  0  0  0  0
    5.4999    2.7183    0.1611 C   0  0  0  0  0  0  0  0  0  0  0  0
    6.0825    2.2582   -1.1298 C   0  0  0  0  0  0  0  0  0  0  0  0
    4.9854    1.7460   -1.9989 C   0  0  0  0  0  0  0  0  0  0  0  0
    3.7182    1.8156   -1.1727 C   0  0  0  0  0  0  0  0  0  0  0  0
  1  2  1  0
  2  3  1  0
  3  4  2  0
  4  5  1  0
  5  6  2  0
  6  7  1  0
  7  8  1  0
  8  9  1  0
  9 10  1  0
 10 11  2  0
 11 12  1  0
 12 13  2  0
 13 14  1  0
 14 15  2  0
  9 16  2  0
 16 17  1  0
 17 18  1  0
 18 19  1  6
 18 20  1  0
 20 21  2  0
 21 22  1  0
 22 23  2  0
 23 24  1  0
 24 25  2  0
  6 26  1  0
 26 27  2  0
 27 28  1  0
 28 29  1  0
 29 30  1  0
 30 31  1  0
 31 32  1  0
 32 33  1  0
 27  3  1  0
 33 29  1  0
 17  7  2  0
 25 20  1  0
 15 10  1  0
M  END
>  <zinc_id>  (1) 
ZINC000000585670

>  <smiles>  (1) 
COc1ccc(-c2oc(-c3ccccn3)cc2[C@H](O)c2ccccc2)cc1OC1CCCC1

$$$$
