
     RDKit          3D

 20 21  0  0  0  0  0  0  0  0999 V2000
   -3.0871    3.3745   -1.4620 C   0  0  0  0  0  0  0  0  0  0  0  0
   -2.3248    2.2793   -0.9940 O   0  0  0  0  0  0  0  0  0  0  0  0
   -3.0387    1.1512   -0.5527 C   0  0  0  0  0  0  0  0  0  0  0  0
   -4.3936    1.1105   -0.5730 C   0  0  0  0  0  0  0  0  0  0  0  0
   -5.0483   -0.0149   -0.1313 C   0  0  0  0  0  0  0  0  0  0  0  0
   -4.3502   -1.1180    0.3382 C   0  0  0  0  0  0  0  0  0  0  0  0
   -5.1395   -2.2925    0.7963 C   0  0  0  0  0  0  0  0  0  0  0  0
   -2.9860   -1.0611    0.3521 C   0  0  0  0  0  0  0  0  0  0  0  0
   -2.3293    0.0495   -0.0835 C   0  0  0  0  0  0  0  0  0  0  0  0
   -0.9004    0.1093   -0.0691 N   0  0  0  0  0  0  0  0  0  0  0  0
   -0.1533   -1.0204    0.4127 C   0  0  0  0  0  0  0  0  0  0  0  0
    1.3124   -0.7687    0.3497 C   0  0  0  0  0  0  0  0  0  0  0  0
    1.7671    0.4386   -0.1313 C   0  0  0  0  0  0  0  0  0  0  0  0
    3.1410    0.6962   -0.1992 C   0  0  0  0  0  0  0  0  0  0  0  0
    4.0603   -0.2430    0.2097 C   0  0  0  0  0  0  0  0  0  0  0  0
    5.4686    0.0259    0.1381 N   0  0  0  0  0  4  0  0  0  0  0  0
    6.3125   -0.7937    0.4959 O   0  0  0  0  0  0  0  0  0  0  0  0
    5.8938    1.2392   -0.3462 O   0  0  0  0  0  1  0  0  0  0  0  0
    3.5762   -1.4418    0.6864 C   0  0  0  0  0  0  0  0  0  0  0  0
    2.2193   -1.7200    0.7631 C   0  0  0  0  0  0  0  0  0  0  0  0
  1  2  1  0
  2  3  1  0
  3  4  2  0
  4  5  1  0
  5  6  2  0
  6  7  1  0
  6  8  1  0
  8  9  2  0
  9 10  1  0
 10 11  1  0
 11 12  1  0
 12 13  2  0
 13 14  1  0
 14 15  2  0
 15 16  1  0
 16 17  2  0
 16 18  1  0
 15 19  1  0
 19 20  2  0
  9  3  1  0
 20 12  1  0
M  CHG  2  16   1  18  -1
M  END
>  <zinc_id>  (1) 
ZINC000000263250

>  <smiles>  (1) 
COc1ccc(C)cc1NCc1ccc([N+](=O)[O-])cc1

$$$$
