
     RDKit          3D

 20 22  0  0  0  0  0  0  0  0999 V2000
    0.6093    0.9639    1.3101 O   0  0  0  0  0  0  0  0  0  0  0  0
    1.0753    0.4864    0.2681 C   0  0  0  0  0  0  0  0  0  0  0  0
    0.3011   -0.2121   -0.5807 N   0  0  0  0  0  0  0  0  0  0  0  0
   -1.0777   -0.4431   -0.3407 C   0  0  0  0  0  0  0  0  0  0  0  0
   -1.6531    0.0582    0.7931 C   0  0  0  0  0  0  0  0  0  0  0  0
   -2.9869   -0.1126    1.1164 C   0  0  0  0  0  0  0  0  0  0  0  0
   -3.5650    0.4200    2.3057 N   0  0  0  0  0  4  0  0  0  0  0  0
   -2.9414    1.0689    3.1385 O   0  0  0  0  0  0  0  0  0  0  0  0
   -4.9012    0.1980    2.5418 O   0  0  0  0  0  1  0  0  0  0  0  0
   -3.7412   -0.8349    0.2171 C   0  0  0  0  0  0  0  0  0  0  0  0
   -3.2111   -1.3681   -0.9508 C   0  0  0  0  0  0  0  0  0  0  0  0
   -1.8594   -1.1611   -1.2198 C   0  0  0  0  0  0  0  0  0  0  0  0
   -1.1582   -1.8119   -2.6706 Cl  0  0  0  0  0  0  0  0  0  0  0  0
    2.5902    0.8201    0.1426 C   0  0  1  0  0  0  0  0  0  0  0  0
    3.1285   -0.6792    0.1064 C   0  0  0  0  0  0  0  0  0  0  0  0
    4.4434   -0.4324   -0.8081 C   0  0  2  0  0  0  0  0  0  0  0  0
    4.7995    1.1068   -0.4555 C   0  0  0  0  0  0  0  0  0  0  0  0
    4.0542    1.9336   -1.3855 C   0  0  0  0  0  0  0  0  0  0  0  0
    2.6614    1.1366   -1.5075 C   0  0  1  0  0  0  0  0  0  0  0  0
    3.4324   -0.1484   -2.0207 C   0  0  0  0  0  0  0  0  0  0  0  0
  1  2  2  0
  2  3  1  0
  3  4  1  0
  4  5  2  0
  5  6  1  0
  6  7  1  0
  7  8  2  0
  7  9  1  0
  6 10  2  0
 10 11  1  0
 11 12  2  0
 12 13  1  0
 14  2  1  6
 14 15  1  0
 16 15  1  1
 16 17  1  0
 17 18  1  0
 19 18  1  1
 19 20  1  0
 12  4  1  0
 19 14  1  0
 20 16  1  0
M  CHG  2   7   1   9  -1
M  END
>  <zinc_id>  (1) 
ZINC000000441501

>  <smiles>  (1) 
O=C(Nc1cc([N+](=O)[O-])ccc1Cl)[C@H]1C[C@@H]2CC[C@H]1C2

$$$$
