
     RDKit          3D

 21 23  0  0  0  0  0  0  0  0999 V2000
   -4.2423   -2.0845   -1.0212 C   0  0  0  0  0  0  0  0  0  0  0  0
   -4.1153   -0.7180   -0.4516 C   0  0  0  0  0  0  0  0  0  0  0  0
   -5.2432    0.0199   -0.1789 C   0  0  0  0  0  0  0  0  0  0  0  0
   -5.1398    1.2888    0.3497 C   0  0  0  0  0  0  0  0  0  0  0  0
   -3.8698    1.7731    0.5872 C   0  0  0  0  0  0  0  0  0  0  0  0
   -2.7427    1.0378    0.3154 C   0  0  0  0  0  0  0  0  0  0  0  0
   -1.4469    1.5288    0.5565 O   0  0  0  0  0  0  0  0  0  0  0  0
   -2.8359   -0.2341   -0.2140 C   0  0  0  0  0  0  0  0  0  0  0  0
   -1.6314   -1.0370   -0.5115 C   0  0  0  0  0  0  0  0  0  0  0  0
   -0.4641   -0.2511   -0.1521 N   0  0  0  0  0  0  0  0  0  0  0  0
    0.8649   -0.7768   -0.3311 C   0  0  0  0  0  0  0  0  0  0  0  0
    1.0052   -2.0289   -0.8456 C   0  0  0  0  0  0  0  0  0  0  0  0
    2.2800   -2.5275   -1.0150 C   0  0  0  0  0  0  0  0  0  0  0  0
    3.3293   -1.7261   -0.6526 C   0  0  0  0  0  0  0  0  0  0  0  0
    3.1681   -0.4846   -0.1431 N   0  0  0  0  0  0  0  0  0  0  0  0
    4.0873    0.4167    0.2570 C   0  0  0  0  0  0  0  0  0  0  0  0
    5.5552    0.2524    0.2316 C   0  0  0  0  0  0  0  0  0  0  0  0
    3.3959    1.5237    0.6953 C   0  0  0  0  0  0  0  0  0  0  0  0
    4.0374    2.7579    1.2251 C   0  0  0  0  0  0  0  0  0  0  0  0
    2.0772    1.2546    0.5455 N   0  0  0  0  0  0  0  0  0  0  0  0
    1.9310    0.0148    0.0278 C   0  0  0  0  0  0  0  0  0  0  0  0
  1  2  1  0
  2  3  2  0
  3  4  1  0
  4  5  2  0
  5  6  1  0
  6  7  1  0
  6  8  2  0
  8  9  1  0
  9 10  1  0
 10 11  1  0
 11 12  2  0
 12 13  1  0
 13 14  2  0
 14 15  1  0
 15 16  1  0
 16 17  1  0
 16 18  2  0
 18 19  1  0
 18 20  1  0
 20 21  2  0
  8  2  1  0
 21 11  1  0
 21 15  1  0
M  END
>  <zinc_id>  (1) 
ZINC000000025512

>  <smiles>  (1) 
Cc1cccc(O)c1CNc1cccn2c(C)c(C)nc12

$$$$
