
     RDKit          3D

 20 22  0  0  0  0  0  0  0  0999 V2000
   -4.2000    3.1740    0.5842 C   0  0  0  0  0  0  0  0  0  0  0  0
   -3.4136    1.9316    0.6755 C   0  0  0  0  0  0  0  0  0  0  0  0
   -2.8427    1.3514   -0.4339 C   0  0  0  0  0  0  0  0  0  0  0  0
   -2.1012    0.1735   -0.3241 C   0  0  0  0  0  0  0  0  0  0  0  0
   -1.9230   -0.4336    0.8858 C   0  0  0  0  0  0  0  0  0  0  0  0
   -1.0205   -1.8953    1.1221 S   0  0  0  0  0  0  0  0  0  0  0  0
   -1.1323   -2.7217   -0.1286 O   0  0  0  0  0  0  0  0  0  0  0  0
   -1.5443   -2.7050    2.2682 O   0  0  0  0  0  0  0  0  0  0  0  0
    0.6309   -1.4656    1.4382 N   0  0  0  0  0  0  0  0  0  0  0  0
    1.4167   -0.7681    0.4997 C   0  0  0  0  0  0  0  0  0  0  0  0
    2.1890    0.2952    0.9714 C   0  0  0  0  0  0  0  0  0  0  0  0
    2.9836    1.0250    0.1128 C   0  0  0  0  0  0  0  0  0  0  0  0
    3.0207    0.7060   -1.2304 C   0  0  0  0  0  0  0  0  0  0  0  0
    2.2669   -0.3382   -1.7146 C   0  0  0  0  0  0  0  0  0  0  0  0
    1.4831   -1.0488   -0.8334 C   0  0  0  0  0  0  0  0  0  0  0  0
    2.4746   -0.4862   -3.1892 C   0  0  0  0  0  0  0  0  0  0  0  0
    3.6465    0.4037   -3.5016 C   0  0  0  0  0  0  0  0  0  0  0  0
    3.7897    1.3425   -2.3186 C   0  0  0  0  0  0  0  0  0  0  0  0
   -2.4991    0.1523    2.0038 C   0  0  0  0  0  0  0  0  0  0  0  0
   -3.2251    1.3072    1.8905 C   0  0  0  0  0  0  0  0  0  0  0  0
  1  2  1  0
  2  3  2  0
  3  4  1  0
  4  5  2  0
  5  6  1  0
  6  7  2  0
  6  8  2  0
  6  9  1  0
  9 10  1  0
 10 11  2  0
 11 12  1  0
 12 13  2  0
 13 14  1  0
 14 15  2  0
 14 16  1  0
 16 17  1  0
 17 18  1  0
  5 19  1  0
 19 20  2  0
 20  2  1  0
 15 10  1  0
 18 13  1  0
M  END
>  <zinc_id>  (1) 
ZINC000001472305

>  <smiles>  (1) 
Cc1ccc(S(=O)(=O)Nc2ccc3c(c2)CCC3)cc1

$$$$
