
     RDKit          3D

 29 31  0  0  0  0  0  0  0  0999 V2000
   -6.2325   -0.0228    4.0771 C   0  0  0  0  0  0  0  0  0  0  0  0
   -5.3898   -0.0881    2.8502 C   0  0  0  0  0  0  0  0  0  0  0  0
   -4.3255    0.7717    2.6845 C   0  0  0  0  0  0  0  0  0  0  0  0
   -3.5116    0.7456    1.5534 C   0  0  0  0  0  0  0  0  0  0  0  0
   -3.7615   -0.1657    0.5499 C   0  0  0  0  0  0  0  0  0  0  0  0
   -2.9148   -0.2072   -0.6479 C   0  0  0  0  0  0  0  0  0  0  0  0
   -1.8502    0.6461   -0.8089 C   0  0  0  0  0  0  0  0  0  0  0  0
   -1.0604    0.6079   -1.9261 C   0  0  0  0  0  0  0  0  0  0  0  0
   -1.3356   -0.3078   -2.9180 C   0  0  0  0  0  0  0  0  0  0  0  0
   -0.3233   -0.3826   -4.3902 S   0  0  0  0  0  0  0  0  0  0  0  0
    1.0168    0.8443   -4.3099 C   0  0  0  0  0  0  0  0  0  0  0  0
    1.9840    0.5012   -3.2379 C   0  0  0  0  0  0  0  0  0  0  0  0
    3.0708   -0.2889   -3.5861 C   0  0  0  0  0  0  0  0  0  0  0  0
    3.9807   -0.6255   -2.6057 C   0  0  0  0  0  0  0  0  0  0  0  0
    3.7951   -0.1735   -1.3032 C   0  0  0  0  0  0  0  0  0  0  0  0
    2.7171    0.6108   -0.9554 C   0  0  0  0  0  0  0  0  0  0  0  0
    2.5488    1.0692    0.4214 C   0  0  0  0  0  0  0  0  0  0  0  0
    1.5104    1.7316    0.7231 O   0  0  0  0  0  0  0  0  0  0  0  0
    3.4784    0.8171    1.4421 N   0  0  0  0  0  0  0  0  0  0  0  0
    3.3088    1.2759    2.8237 C   0  0  0  0  0  0  0  0  0  0  0  0
    4.5331    0.7941    3.5793 C   0  0  0  0  0  0  0  0  0  0  0  0
    4.6108   -0.7153    3.5079 C   0  0  0  0  0  0  0  0  0  0  0  0
    3.4159   -1.4012    4.1029 C   0  0  0  0  0  0  0  0  0  0  0  0
    4.9286   -1.1962    2.1030 C   0  0  0  0  0  0  0  0  0  0  0  0
    1.8019    0.9531   -1.9286 C   0  0  0  0  0  0  0  0  0  0  0  0
   -2.3823   -1.1222   -2.7235 N   0  0  0  0  0  0  0  0  0  0  0  0
   -3.1485   -1.0840   -1.6378 N   0  0  0  0  0  0  0  0  0  0  0  0
   -4.8243   -1.0218    0.7194 C   0  0  0  0  0  0  0  0  0  0  0  0
   -5.6409   -1.0046    1.8412 C   0  0  0  0  0  0  0  0  0  0  0  0
  1  2  1  0
  2  3  2  0
  3  4  1  0
  4  5  2  0
  5  6  1  0
  6  7  2  0
  7  8  1  0
  8  9  2  0
  9 10  1  0
 10 11  1  0
 11 12  1  0
 12 13  2  0
 13 14  1  0
 14 15  2  0
 15 16  1  0
 16 17  1  0
 17 18  2  0
 17 19  1  0
 19 20  1  0
 20 21  1  0
 21 22  1  0
 22 23  1  0
 22 24  1  0
 16 25  2  0
  9 26  1  0
 26 27  2  0
  5 28  1  0
 28 29  2  0
 29  2  1  0
 27  6  1  0
 25 12  1  0
M  END
>  <zinc_id>  (1) 
ZINC000000737779

>  <smiles>  (1) 
Cc1ccc(-c2ccc(SCc3cccc(C(=O)NCCC(C)C)c3)nn2)cc1

$$$$
