
     RDKit          3D

 29 31  0  0  0  0  0  0  0  0999 V2000
   -1.2889    3.7199    1.2570 C   0  0  0  0  0  0  0  0  0  0  0  0
   -1.0423    4.9637    0.5722 N   0  0  0  0  0  0  0  0  0  0  0  0
   -2.1583    5.8795    0.6231 C   0  0  0  0  0  0  0  0  0  0  0  0
   -0.5883    4.7974   -0.7859 C   0  0  0  0  0  0  0  0  0  0  0  0
    0.7793    4.2075   -0.9069 C   0  0  0  0  0  0  0  0  0  0  0  0
    0.9133    2.8403   -0.2981 C   0  0  0  0  0  0  0  0  0  0  0  0
    0.0011    1.8862   -0.9322 N   0  0  0  0  0  0  0  0  0  0  0  0
   -0.0556    0.5382   -0.5439 C   0  0  0  0  0  0  0  0  0  0  0  0
    0.7644    0.0733    0.4587 C   0  0  0  0  0  0  0  0  0  0  0  0
    1.9082    1.1658    1.2769 S   0  0  0  0  0  0  0  0  0  0  0  0
    3.5030    1.1769    0.4327 C   0  0  0  0  0  0  0  0  0  0  0  0
    4.1982   -0.1334    0.5237 C   0  0  0  0  0  0  0  0  0  0  0  0
    3.9895   -1.1095   -0.4493 C   0  0  0  0  0  0  0  0  0  0  0  0
    4.6150   -2.3390   -0.4031 C   0  0  0  0  0  0  0  0  0  0  0  0
    5.4674   -2.5854    0.6473 C   0  0  0  0  0  0  0  0  0  0  0  0
    5.7044   -1.6654    1.6221 C   0  0  0  0  0  0  0  0  0  0  0  0
    5.0565   -0.4426    1.5390 C   0  0  0  0  0  0  0  0  0  0  0  0
    0.6673   -1.2578    0.8013 C   0  0  0  0  0  0  0  0  0  0  0  0
   -0.2101   -2.0791    0.1671 N   0  0  0  0  0  0  0  0  0  0  0  0
   -0.9850   -1.6067   -0.7915 N   0  0  0  0  0  0  0  0  0  0  0  0
   -1.9185   -2.5138   -1.4529 C   0  0  0  0  0  0  0  0  0  0  0  0
   -3.2241   -2.5189   -0.7366 C   0  0  0  0  0  0  0  0  0  0  0  0
   -4.2376   -1.6427   -1.0561 C   0  0  0  0  0  0  0  0  0  0  0  0
   -5.4530   -1.6646   -0.3724 C   0  0  0  0  0  0  0  0  0  0  0  0
   -5.6786   -2.5662    0.6472 C   0  0  0  0  0  0  0  0  0  0  0  0
   -4.6605   -3.4400    0.9620 C   0  0  0  0  0  0  0  0  0  0  0  0
   -3.4570   -3.4193    0.2859 C   0  0  0  0  0  0  0  0  0  0  0  0
   -0.9171   -0.3266   -1.1473 C   0  0  0  0  0  0  0  0  0  0  0  0
   -1.6926    0.0623   -2.0787 O   0  0  0  0  0  0  0  0  0  0  0  0
  1  2  1  0
  2  3  1  0
  2  4  1  0
  4  5  1  0
  5  6  1  0
  6  7  1  0
  7  8  1  0
  8  9  2  0
  9 10  1  0
 10 11  1  0
 11 12  1  0
 12 13  2  0
 13 14  1  0
 14 15  2  0
 15 16  1  0
 16 17  2  0
  9 18  1  0
 18 19  2  0
 19 20  1  0
 20 21  1  0
 21 22  1  0
 22 23  2  0
 23 24  1  0
 24 25  2  0
 25 26  1  0
 26 27  2  0
 20 28  1  0
 28 29  2  0
 28  8  1  0
 17 12  1  0
 27 22  1  0
M  END
>  <zinc_id>  (1) 
ZINC000002183688

>  <smiles>  (1) 
CN(C)CCCNc1c(SCc2ccccc2)cnn(Cc2ccccc2)c1=O

$$$$
