
     RDKit          3D

 31 34  0  0  0  0  0  0  0  0999 V2000
    7.2943    0.7696    0.3845 C   0  0  0  0  0  0  0  0  0  0  0  0
    7.1240    2.1378   -0.2299 C   0  0  0  0  0  0  0  0  0  0  0  0
    6.1059    2.0857   -1.2123 O   0  0  0  0  0  0  0  0  0  0  0  0
    4.8028    1.7062   -0.8460 C   0  0  0  0  0  0  0  0  0  0  0  0
    4.4838    1.3803    0.4526 C   0  0  0  0  0  0  0  0  0  0  0  0
    3.1788    1.0176    0.7286 C   0  0  0  0  0  0  0  0  0  0  0  0
    2.1907    0.9661   -0.2196 C   0  0  0  0  0  0  0  0  0  0  0  0
    0.8465    0.5972    0.0410 N   0  0  0  0  0  0  0  0  0  0  0  0
   -0.2194    1.4016    0.2010 C   0  0  0  0  0  0  0  0  0  0  0  0
   -0.1491    2.8237    0.1276 N   0  0  0  0  0  0  0  0  0  0  0  0
   -1.3757    0.6992    0.4417 C   0  0  0  0  0  0  0  0  0  0  0  0
   -2.7331    1.2315    0.6664 C   0  0  0  0  0  0  0  0  0  0  0  0
   -2.8662    2.4753    0.6377 O   0  0  0  0  0  0  0  0  0  0  0  0
   -3.8233    0.4540    0.8982 O   0  0  0  0  0  0  0  0  0  0  0  0
   -5.0890    0.6887    1.1056 C   0  0  0  0  0  0  0  0  0  0  0  0
   -6.0070    1.2897   -0.0540 C   0  0  2  0  0  0  0  0  0  0  0  0
   -5.7530    0.0034   -1.0864 C   0  0  0  0  0  0  0  0  0  0  0  0
   -4.9570    2.2308   -0.8595 C   0  0  0  0  0  0  0  0  0  0  0  0
   -5.7723    2.8368   -1.9838 C   0  0  0  0  0  0  0  0  0  0  0  0
   -0.9843   -0.6374    0.4273 C   0  0  0  0  0  0  0  0  0  0  0  0
   -1.6989   -1.7475    0.6048 N   0  0  0  0  0  0  0  0  0  0  0  0
   -1.0417   -2.9407    0.5358 C   0  0  0  0  0  0  0  0  0  0  0  0
   -1.7407   -4.1311    0.7139 C   0  0  0  0  0  0  0  0  0  0  0  0
   -1.0905   -5.3382    0.6468 C   0  0  0  0  0  0  0  0  0  0  0  0
    0.2506   -5.3606    0.4033 C   0  0  0  0  0  0  0  0  0  0  0  0
    0.9366   -4.1849    0.2282 C   0  0  0  0  0  0  0  0  0  0  0  0
    0.3113   -2.9568    0.2899 C   0  0  0  0  0  0  0  0  0  0  0  0
    1.0363   -1.8097    0.1089 N   0  0  0  0  0  0  0  0  0  0  0  0
    0.3723   -0.6490    0.1805 C   0  0  0  0  0  0  0  0  0  0  0  0
    2.5298    1.2950   -1.5090 C   0  0  0  0  0  0  0  0  0  0  0  0
    3.8375    1.6657   -1.8237 C   0  0  0  0  0  0  0  0  0  0  0  0
  1  2  1  0
  2  3  1  0
  3  4  1  0
  4  5  2  0
  5  6  1  0
  6  7  2  0
  7  8  1  0
  8  9  1  0
  9 10  1  0
  9 11  2  0
 11 12  1  0
 12 13  2  0
 12 14  1  0
 14 15  1  0
 15 16  1  0
 16 17  1  6
 16 18  1  0
 18 19  1  0
 11 20  1  0
 20 21  2  0
 21 22  1  0
 22 23  2  0
 23 24  1  0
 24 25  2  0
 25 26  1  0
 26 27  2  0
 27 28  1  0
 28 29  2  0
  7 30  1  0
 30 31  2  0
 31  4  1  0
 29  8  1  0
 29 20  1  0
 27 22  1  0
M  END
>  <zinc_id>  (1) 
ZINC000002367070

>  <smiles>  (1) 
CCOc1ccc(-n2c(N)c(C(=O)OC[C@H](C)CC)c3nc4ccccc4nc32)cc1

$$$$
