
     RDKit          3D

 20 21  0  0  0  0  0  0  0  0999 V2000
   -0.0266   -2.1260   -0.6929 C   0  0  0  0  0  0  0  0  0  0  0  0
   -0.3926   -0.7109   -0.4660 C   0  0  0  0  0  0  0  0  0  0  0  0
   -1.7050   -0.3176   -0.5529 C   0  0  0  0  0  0  0  0  0  0  0  0
   -2.7525   -1.3348   -0.8870 C   0  0  0  0  0  0  0  0  0  0  0  0
   -3.0235   -2.1769    0.3668 C   0  0  0  0  0  0  0  0  0  0  0  0
   -4.0912   -3.2292    0.0303 C   0  0  0  0  0  0  0  0  0  0  0  0
   -3.6203   -1.2492    1.4411 C   0  0  0  0  0  0  0  0  0  0  0  0
   -2.0230    0.9781   -0.3444 N   0  0  0  0  0  0  0  0  0  0  0  0
   -1.1005    1.9172   -0.0523 C   0  0  0  0  0  0  0  0  0  0  0  0
   -1.4910    3.3000    0.1779 C   0  0  0  0  0  0  0  0  0  0  0  0
   -1.8171    4.3899    0.3460 N   0  0  0  0  0  0  0  0  0  0  0  0
    0.2027    1.5049    0.0298 C   0  0  0  0  0  0  0  0  0  0  0  0
    1.2099    2.4794    0.3423 N   0  0  0  0  0  0  0  0  0  0  0  0
    0.6020    0.1958   -0.1703 C   0  0  0  0  0  0  0  0  0  0  0  0
    1.9944   -0.2201   -0.0595 C   0  0  0  0  0  0  0  0  0  0  0  0
    2.7402   -0.6472   -1.1641 C   0  0  0  0  0  0  0  0  0  0  0  0
    4.0578   -1.0206   -1.0207 C   0  0  0  0  0  0  0  0  0  0  0  0
    4.6478   -0.9775    0.1978 C   0  0  0  0  0  0  0  0  0  0  0  0
    3.9598   -0.5666    1.3081 C   0  0  0  0  0  0  0  0  0  0  0  0
    2.6287   -0.1886    1.1698 C   0  0  0  0  0  0  0  0  0  0  0  0
  1  2  1  0
  2  3  2  0
  3  4  1  0
  4  5  1  0
  5  6  1  0
  5  7  1  0
  3  8  1  0
  8  9  2  0
  9 10  1  0
 10 11  3  0
  9 12  1  0
 12 13  1  0
 12 14  2  0
 14 15  1  0
 15 16  2  0
 16 17  1  0
 17 18  2  0
 18 19  1  0
 19 20  2  0
 14  2  1  0
 20 15  1  0
M  END
>  <zinc_id>  (1) 
ZINC000000053801

>  <smiles>  (1) 
Cc1c(CC(C)C)nc(C#N)c(N)c1-c1ccccc1

$$$$
