
     RDKit          3D

 18 19  0  0  0  0  0  0  0  0999 V2000
    5.2983    1.3331    2.6880 C   0  0  0  0  0  0  0  0  0  0  0  0
    3.9107    1.0558    2.1574 C   0  0  0  0  0  0  0  0  0  0  0  0
    4.0795    0.4163    0.8675 N   0  0  0  0  0  0  0  0  0  0  0  0
    2.9098    0.0324    0.1071 C   0  0  0  0  0  0  0  0  0  0  0  0
    2.8607   -0.5574   -1.0789 N   0  0  0  0  0  0  0  0  0  0  0  0
    1.7181   -0.8280   -1.6148 C   0  0  0  0  0  0  0  0  0  0  0  0
    1.5915   -1.4734   -2.9111 N   0  0  0  0  0  0  0  0  0  0  0  0
    0.5896   -0.4856   -0.9179 C   0  0  0  0  0  0  0  0  0  0  0  0
   -0.8234   -0.6728   -1.2871 C   0  0  0  0  0  0  0  0  0  0  0  0
   -1.1240   -1.2156   -2.3776 O   0  0  0  0  0  0  0  0  0  0  0  0
   -1.8807   -0.2409   -0.4117 C   0  0  0  0  0  0  0  0  0  0  0  0
   -1.6126    0.6517    0.5935 C   0  0  0  0  0  0  0  0  0  0  0  0
   -2.6163    1.0688    1.4346 C   0  0  0  0  0  0  0  0  0  0  0  0
   -3.8869    0.5977    1.2753 C   0  0  0  0  0  0  0  0  0  0  0  0
   -4.9265    1.0997    2.2314 C   0  0  0  0  0  0  0  0  0  0  0  0
   -4.1772   -0.2932    0.2796 C   0  0  0  0  0  0  0  0  0  0  0  0
   -3.1645   -0.7044   -0.5573 C   0  0  0  0  0  0  0  0  0  0  0  0
    1.2539    0.2157    0.4881 S   0  0  0  0  0  0  0  0  0  0  0  0
  1  2  1  0
  2  3  1  0
  3  4  1  0
  4  5  2  0
  5  6  1  0
  6  7  1  0
  6  8  2  0
  8  9  1  0
  9 10  2  0
  9 11  1  0
 11 12  2  0
 12 13  1  0
 13 14  2  0
 14 15  1  0
 14 16  1  0
 16 17  2  0
  8 18  1  0
 18  4  1  0
 17 11  1  0
M  END
>  <zinc_id>  (1) 
ZINC000000809344

>  <smiles>  (1) 
CCNc1nc(N)c(C(=O)c2ccc(C)cc2)s1

$$$$
