
     RDKit          3D

 20 22  0  0  0  0  0  0  0  0999 V2000
    4.2486    0.1792    1.1929 O   0  0  0  0  0  0  0  0  0  0  0  0
    3.5647   -0.8173    0.9213 N   0  0  0  0  0  4  0  0  0  0  0  0
    4.0749   -2.0934    1.0508 O   0  0  0  0  0  1  0  0  0  0  0  0
    2.2253   -0.6605    0.4657 C   0  0  0  0  0  0  0  0  0  0  0  0
    1.2339   -1.5724    0.7296 C   0  0  0  0  0  0  0  0  0  0  0  0
   -0.0552   -1.3934    0.2734 C   0  0  0  0  0  0  0  0  0  0  0  0
   -0.3317   -0.2697   -0.4603 C   0  0  0  0  0  0  0  0  0  0  0  0
   -1.6663   -0.0361   -0.9611 N   0  0  0  0  0  0  0  0  0  0  0  0
   -2.6711   -1.0273   -0.6556 C   0  0  0  0  0  0  0  0  0  0  0  0
   -3.9662   -0.5539   -1.2839 C   0  0  0  0  0  0  0  0  0  0  0  0
   -5.1171   -0.6178   -0.3308 C   0  0  0  0  0  0  0  0  0  0  0  0
   -4.9066    0.2658    0.8793 C   0  0  0  0  0  0  0  0  0  0  0  0
   -3.4691    0.1982    1.3688 C   0  0  0  0  0  0  0  0  0  0  0  0
   -2.7913   -1.0660    0.8640 C   0  0  0  0  0  0  0  0  0  0  0  0
    0.6443    0.6591   -0.7383 C   0  0  0  0  0  0  0  0  0  0  0  0
    0.3183    1.7664   -1.4762 N   0  0  0  0  0  0  0  0  0  0  0  0
    1.2622    2.6612   -1.7435 C   0  0  0  0  0  0  0  0  0  0  0  0
    2.5488    2.4977   -1.2971 C   0  0  0  0  0  0  0  0  0  0  0  0
    2.9334    1.4074   -0.5531 C   0  0  0  0  0  0  0  0  0  0  0  0
    1.9202    0.4726   -0.2813 C   0  0  0  0  0  0  0  0  0  0  0  0
  1  2  2  0
  2  3  1  0
  2  4  1  0
  4  5  2  0
  5  6  1  0
  6  7  2  0
  7  8  1  0
  8  9  1  0
  9 10  1  0
 10 11  1  0
 11 12  1  0
 12 13  1  0
 13 14  1  0
  7 15  1  0
 15 16  2  0
 16 17  1  0
 17 18  2  0
 18 19  1  0
 19 20  2  0
 20  4  1  0
 14  9  1  0
 20 15  1  0
M  CHG  2   2   1   3  -1
M  END
>  <zinc_id>  (1) 
ZINC000003877847

>  <smiles>  (1) 
O=[N+]([O-])c1ccc(NC2CCCCC2)c2ncccc12

$$$$
