
     RDKit          3D

 24 26  0  0  0  0  0  0  0  0999 V2000
    1.3124   -1.0767   -2.9274 C   0  0  0  0  0  0  0  0  0  0  0  0
    1.2039    0.1600   -2.0978 C   0  0  0  0  0  0  0  0  0  0  0  0
    0.7847   -0.1171   -0.7002 C   0  0  0  0  0  0  0  0  0  0  0  0
   -0.5058   -0.4226   -0.3425 C   0  0  0  0  0  0  0  0  0  0  0  0
   -1.6618   -0.5316   -1.2188 C   0  0  0  0  0  0  0  0  0  0  0  0
   -1.4772   -0.3250   -2.4478 O   0  0  0  0  0  0  0  0  0  0  0  0
   -2.9580   -0.8554   -0.7446 N   0  0  0  0  0  0  0  0  0  0  0  0
   -4.0139   -0.9371   -1.6741 C   0  0  0  0  0  0  0  0  0  0  0  0
   -5.0488    0.3015   -1.3933 C   0  0  2  0  0  0  0  0  0  0  0  0
   -3.9080    1.4417   -1.1105 C   0  0  0  0  0  0  0  0  0  0  0  0
   -5.4015   -0.1611    0.1222 C   0  0  0  0  0  0  0  0  0  0  0  0
   -4.1168    0.2513    1.0273 C   0  0  1  0  0  0  0  0  0  0  0  0
   -4.7507   -0.4111    2.3845 C   0  0  0  0  0  0  0  0  0  0  0  0
   -3.2619   -1.1075    0.6493 C   0  0  0  0  0  0  0  0  0  0  0  0
   -0.4398   -0.5952    1.0013 N   0  0  0  0  0  0  0  0  0  0  0  0
    0.8123   -0.4017    1.3976 N   0  0  0  0  0  0  0  0  0  0  0  0
    1.6002   -0.1034    0.3703 N   0  0  0  0  0  0  0  0  0  0  0  0
    2.9931    0.1724    0.3704 C   0  0  0  0  0  0  0  0  0  0  0  0
    3.8298   -0.7631   -0.1973 C   0  0  0  0  0  0  0  0  0  0  0  0
    5.2020   -0.5547   -0.2300 C   0  0  0  0  0  0  0  0  0  0  0  0
    5.7623    0.5748    0.2952 C   0  0  0  0  0  0  0  0  0  0  0  0
    4.9445    1.5244    0.8683 C   0  0  0  0  0  0  0  0  0  0  0  0
    5.5281    2.6318    1.3802 F   0  0  0  0  0  0  0  0  0  0  0  0
    3.5709    1.3054    0.8957 C   0  0  0  0  0  0  0  0  0  0  0  0
  1  2  1  0
  2  3  1  0
  3  4  2  0
  4  5  1  0
  5  6  2  0
  5  7  1  0
  7  8  1  0
  8  9  1  0
  9 10  1  1
  9 11  1  0
 11 12  1  0
 12 13  1  1
 12 14  1  0
  4 15  1  0
 15 16  2  0
 16 17  1  0
 17 18  1  0
 18 19  2  0
 19 20  1  0
 20 21  2  0
 21 22  1  0
 22 23  1  0
 22 24  2  0
 17  3  1  0
 24 18  1  0
 14  7  1  0
M  END
>  <zinc_id>  (1) 
ZINC000000041044

>  <smiles>  (1) 
CCc1c(C(=O)N2C[C@H](C)C[C@@H](C)C2)nnn1-c1cccc(F)c1

$$$$
