
     RDKit          3D

 19 20  0  0  0  0  0  0  0  0999 V2000
   -5.7770   -0.4330    1.5264 C   0  0  0  0  0  0  0  0  0  0  0  0
   -4.5675   -0.3686    0.6663 C   0  0  0  0  0  0  0  0  0  0  0  0
   -4.6299   -0.3792   -0.7118 C   0  0  0  0  0  0  0  0  0  0  0  0
   -3.4691   -0.3171   -1.4799 C   0  0  0  0  0  0  0  0  0  0  0  0
   -2.2257   -0.2435   -0.8954 C   0  0  0  0  0  0  0  0  0  0  0  0
   -1.0204   -0.1789   -1.6648 N   0  0  0  0  0  0  0  0  0  0  0  0
    0.2120   -0.1052   -0.9720 C   0  0  0  0  0  0  0  0  0  0  0  0
    0.2155   -0.0986    0.2724 O   0  0  0  0  0  0  0  0  0  0  0  0
    1.7881   -0.0200   -1.8351 S   0  0  0  0  0  0  0  0  0  0  0  0
    3.1349    0.0626   -0.6801 C   0  0  0  0  0  0  0  0  0  0  0  0
    3.7097   -1.0989   -0.2392 C   0  0  0  0  0  0  0  0  0  0  0  0
    4.7624   -1.1054    0.6604 C   0  0  0  0  0  0  0  0  0  0  0  0
    5.2508    0.0929    1.1301 C   0  0  0  0  0  0  0  0  0  0  0  0
    4.6725    1.2608    0.6866 C   0  0  0  0  0  0  0  0  0  0  0  0
    3.6177    1.2656   -0.2150 C   0  0  0  0  0  0  0  0  0  0  0  0
    3.0681    2.4777   -0.6321 O   0  0  0  0  0  0  0  0  0  0  0  0
   -2.1979   -0.2348    0.4935 C   0  0  0  0  0  0  0  0  0  0  0  0
   -3.3338   -0.2955    1.2513 C   0  0  0  0  0  0  0  0  0  0  0  0
   -3.2102   -0.2809    2.7441 C   0  0  0  0  0  0  0  0  0  0  0  0
  1  2  1  0
  2  3  2  0
  3  4  1  0
  4  5  2  0
  5  6  1  0
  6  7  1  0
  7  8  2  0
  7  9  1  0
  9 10  1  0
 10 11  2  0
 11 12  1  0
 12 13  2  0
 13 14  1  0
 14 15  2  0
 15 16  1  0
  5 17  1  0
 17 18  2  0
 18 19  1  0
 18  2  1  0
 15 10  1  0
M  END
>  <zinc_id>  (1) 
ZINC000000400425

>  <smiles>  (1) 
Cc1ccc(NC(=O)Sc2ccccc2O)cc1C

$$$$
