
     RDKit          3D

 30 33  0  0  0  0  0  0  0  0999 V2000
    0.2006    0.8119    1.2845 C   0  0  0  0  0  0  0  0  0  0  0  0
   -0.8908   -0.0106    0.7150 C   0  0  0  0  0  0  0  0  0  0  0  0
   -0.6818   -1.0905   -0.1094 C   0  0  0  0  0  0  0  0  0  0  0  0
    0.5714   -1.6807   -0.5940 C   0  0  0  0  0  0  0  0  0  0  0  0
    0.5728   -2.6872   -1.3398 O   0  0  0  0  0  0  0  0  0  0  0  0
    1.7589   -1.0993   -0.2058 N   0  0  0  0  0  0  0  0  0  0  0  0
    3.1520   -1.5886   -0.6075 C   0  0  1  0  0  0  0  0  0  0  0  0
    2.6730   -2.7549   -1.6228 C   0  0  0  0  0  0  0  0  0  0  0  0
    3.3998   -0.4844   -1.7711 C   0  0  0  0  0  0  0  0  0  0  0  0
    3.3271    0.8778   -1.1270 C   0  0  0  0  0  0  0  0  0  0  0  0
    4.3610    0.9436   -0.0693 C   0  0  0  0  0  0  0  0  0  0  0  0
    5.6416    1.3487   -0.3512 C   0  0  0  0  0  0  0  0  0  0  0  0
    6.6478    1.4428    0.5834 C   0  0  0  0  0  0  0  0  0  0  0  0
    6.3663    1.1128    1.8863 C   0  0  0  0  0  0  0  0  0  0  0  0
    5.0928    0.7031    2.2016 C   0  0  0  0  0  0  0  0  0  0  0  0
    4.0884    0.6136    1.2461 C   0  0  0  0  0  0  0  0  0  0  0  0
   -1.9592   -1.5474   -0.3945 C   0  0  0  0  0  0  0  0  0  0  0  0
   -2.3376   -2.6018   -1.1756 C   0  0  0  0  0  0  0  0  0  0  0  0
   -3.6560   -2.8916   -1.3342 C   0  0  0  0  0  0  0  0  0  0  0  0
   -4.0369   -3.9769   -2.1381 O   0  0  0  0  0  0  0  0  0  0  0  0
   -4.6028   -2.1244   -0.7098 C   0  0  0  0  0  0  0  0  0  0  0  0
   -4.2017   -1.0451    0.0887 C   0  0  0  0  0  0  0  0  0  0  0  0
   -2.8697   -0.7340    0.2628 C   0  0  0  0  0  0  0  0  0  0  0  0
   -2.1849    0.2050    0.9399 N   0  0  0  0  0  0  0  0  0  0  0  0
   -2.7652    1.2300    1.7706 C   0  0  0  0  0  0  0  0  0  0  0  0
   -3.1223    2.4770    1.0732 C   0  0  0  0  0  0  0  0  0  0  0  0
   -4.4360    2.6851    0.6189 C   0  0  0  0  0  0  0  0  0  0  0  0
   -4.4516    3.9210    0.0184 C   0  0  0  0  0  0  0  0  0  0  0  0
   -3.1904    4.4192    0.1172 C   0  0  0  0  0  0  0  0  0  0  0  0
   -2.4667    3.5257    0.7434 O   0  0  0  0  0  0  0  0  0  0  0  0
  1  2  1  0
  2  3  2  0
  3  4  1  0
  4  5  2  0
  4  6  1  0
  6  7  1  0
  7  8  1  6
  7  9  1  0
  9 10  1  0
 10 11  1  0
 11 12  2  0
 12 13  1  0
 13 14  2  0
 14 15  1  0
 15 16  2  0
  3 17  1  0
 17 18  2  0
 18 19  1  0
 19 20  1  0
 19 21  2  0
 21 22  1  0
 22 23  2  0
 23 24  1  0
 24 25  1  0
 25 26  1  0
 26 27  2  0
 27 28  1  0
 28 29  2  0
 29 30  1  0
 24  2  1  0
 30 26  1  0
 16 11  1  0
 23 17  1  0
M  END
>  <zinc_id>  (1) 
ZINC000000762810

>  <smiles>  (1) 
Cc1c(C(=O)N[C@@H](C)CCc2ccccc2)c2cc(O)ccc2n1Cc1ccco1

$$$$
