
     RDKit          3D

 30 32  0  0  0  0  0  0  0  0999 V2000
    7.7106   -2.5596   -0.2375 C   0  0  0  0  0  0  0  0  0  0  0  0
    6.3580   -1.9851    0.0178 C   0  0  0  0  0  0  0  0  0  0  0  0
    5.9606   -0.7720   -0.5079 C   0  0  0  0  0  0  0  0  0  0  0  0
    4.6912   -0.2618   -0.2514 C   0  0  0  0  0  0  0  0  0  0  0  0
    3.7832   -0.9397    0.5318 C   0  0  0  0  0  0  0  0  0  0  0  0
    2.4497   -0.4082    0.8066 C   0  0  0  0  0  0  0  0  0  0  0  0
    1.6288   -0.9946    1.5450 O   0  0  0  0  0  0  0  0  0  0  0  0
    2.0178    0.8263    0.2342 N   0  0  0  0  0  0  0  0  0  0  0  0
    0.6847    1.3322    0.5286 C   0  0  0  0  0  0  0  0  0  0  0  0
    0.6556    2.4911    1.0994 C   0  0  0  0  0  0  0  0  0  0  0  0
   -0.4767    3.2696    1.5263 C   0  0  0  0  0  0  0  0  0  0  0  0
   -1.5944    2.9132    2.2538 C   0  0  0  0  0  0  0  0  0  0  0  0
   -2.3838    4.0088    2.4008 C   0  0  0  0  0  0  0  0  0  0  0  0
   -1.7296    5.0290    1.7539 C   0  0  0  0  0  0  0  0  0  0  0  0
   -0.6292    4.5726    1.2574 O   0  0  0  0  0  0  0  0  0  0  0  0
   -0.4860    0.5929    0.1808 C   0  0  0  0  0  0  0  0  0  0  0  0
   -0.4315   -0.5409   -0.3956 O   0  0  0  0  0  0  0  0  0  0  0  0
   -1.7842    1.0588    0.4445 N   0  0  0  0  0  0  0  0  0  0  0  0
   -3.0167    0.3722    0.1202 C   0  0  0  0  0  0  0  0  0  0  0  0
   -3.0481    0.1886   -1.3833 C   0  0  0  0  0  0  0  0  0  0  0  0
   -4.2647   -0.5009   -1.8301 C   0  0  0  0  0  0  0  0  0  0  0  0
   -5.2759    0.2103   -2.4089 C   0  0  0  0  0  0  0  0  0  0  0  0
   -6.4278   -0.4054   -2.8344 C   0  0  0  0  0  0  0  0  0  0  0  0
   -6.5615   -1.7477   -2.6754 C   0  0  0  0  0  0  0  0  0  0  0  0
   -5.5362   -2.4853   -2.0860 C   0  0  0  0  0  0  0  0  0  0  0  0
   -4.3898   -1.8531   -1.6656 C   0  0  0  0  0  0  0  0  0  0  0  0
   -3.4095   -2.6162   -1.0929 F   0  0  0  0  0  0  0  0  0  0  0  0
    4.1744   -2.1502    1.0584 C   0  0  0  0  0  0  0  0  0  0  0  0
    5.4492   -2.6686    0.8045 C   0  0  0  0  0  0  0  0  0  0  0  0
    5.8818   -3.9761    1.3673 C   0  0  0  0  0  0  0  0  0  0  0  0
  1  2  1  0
  2  3  2  0
  3  4  1  0
  4  5  2  0
  5  6  1  0
  6  7  2  0
  6  8  1  0
  8  9  1  0
  9 10  2  0
 10 11  1  0
 11 12  2  0
 12 13  1  0
 13 14  2  0
 14 15  1  0
  9 16  1  0
 16 17  2  0
 16 18  1  0
 18 19  1  0
 19 20  1  0
 20 21  1  0
 21 22  2  0
 22 23  1  0
 23 24  2  0
 24 25  1  0
 25 26  2  0
 26 27  1  0
  5 28  1  0
 28 29  2  0
 29 30  1  0
 29  2  1  0
 15 11  1  0
 26 21  1  0
M  END
>  <zinc_id>  (1) 
ZINC000002152521

>  <smiles>  (1) 
Cc1ccc(C(=O)N/C(=C/c2ccco2)C(=O)NCCc2ccccc2F)cc1C

$$$$
