
     RDKit          3D

 20 23  0  0  0  0  0  0  0  0999 V2000
    0.8505   -0.4032   -1.5424 O   0  0  0  0  0  0  0  0  0  0  0  0
    1.5308   -0.4978   -0.4946 C   0  0  0  0  0  0  0  0  0  0  0  0
    0.9033   -1.0486    0.6491 N   0  0  0  0  0  0  0  0  0  0  0  0
   -0.4064   -1.4907    0.6965 N   0  0  0  0  0  0  0  0  0  0  0  0
   -1.4419   -0.7823    0.5287 C   0  0  0  0  0  0  0  0  0  0  0  0
   -2.7749   -1.4358    0.6164 C   0  0  0  0  0  0  0  0  0  0  0  0
   -3.4817   -1.1233   -0.7065 C   0  0  0  0  0  0  0  0  0  0  0  0
   -3.4746    0.3599   -0.9874 C   0  0  0  0  0  0  0  0  0  0  0  0
   -4.2133    1.0799    0.1125 C   0  0  0  0  0  0  0  0  0  0  0  0
   -3.5212    0.7667    1.4338 C   0  0  0  0  0  0  0  0  0  0  0  0
   -3.5264   -0.7024    1.7331 C   0  0  0  0  0  0  0  0  0  0  0  0
   -2.1291    1.3589    1.3917 C   0  0  0  0  0  0  0  0  0  0  0  0
   -1.3946    0.6684    0.2486 C   0  0  0  0  0  0  0  0  0  0  0  0
   -2.0812    0.9314   -1.0747 C   0  0  0  0  0  0  0  0  0  0  0  0
    2.9057   -0.0408   -0.5206 C   0  0  0  0  0  0  0  0  0  0  0  0
    3.6910   -0.1238    0.6018 C   0  0  0  0  0  0  0  0  0  0  0  0
    4.9873    0.3090    0.5709 C   0  0  0  0  0  0  0  0  0  0  0  0
    5.5007    0.8248   -0.5798 C   0  0  0  0  0  0  0  0  0  0  0  0
    4.6724    0.8867   -1.6790 C   0  0  0  0  0  0  0  0  0  0  0  0
    3.4036    0.4631   -1.6489 N   0  0  0  0  0  0  0  0  0  0  0  0
  1  2  2  0
  2  3  1  0
  3  4  1  0
  4  5  2  3
  5  6  1  0
  6  7  1  0
  7  8  1  0
  8  9  1  0
  9 10  1  0
 10 11  1  0
 10 12  1  0
 12 13  1  0
 13 14  1  0
  2 15  1  0
 15 16  2  0
 16 17  1  0
 17 18  2  0
 18 19  1  0
 19 20  2  0
 13  5  1  0
 20 15  1  0
 11  6  1  0
 14  8  1  0
M  END
>  <zinc_id>  (1) 
ZINC000000300497

>  <smiles>  (1) 
O=C(NN=C1C2CC3CC(C2)CC1C3)c1ccccn1

$$$$
