
     RDKit          3D

 23 27  0  0  0  0  0  0  0  0999 V2000
    1.0181   -0.6645    0.9871 C   0  0  0  0  0  0  0  0  0  0  0  0
    0.9101   -0.5428   -0.4090 C   0  0  2  0  0  0  0  0  0  0  0  0
    1.5072   -1.5952   -1.2863 C   0  0  0  0  0  0  0  0  0  0  0  0
    2.8661   -1.9144   -0.6446 C   0  0  0  0  0  0  0  0  0  0  0  0
    3.5005   -0.5937   -0.3946 C   0  0  0  0  0  0  0  0  0  0  0  0
    4.7628   -0.4211    0.0054 O   0  0  0  0  0  0  0  0  0  0  0  0
    5.0705    0.8201    0.1502 C   0  0  0  0  0  0  0  0  0  0  0  0
    3.9054    1.5469   -0.1839 C   0  0  0  0  0  0  0  0  0  0  0  0
    2.9670    0.6228   -0.5129 C   0  0  0  0  0  0  0  0  0  0  0  0
    1.5022    0.8924   -0.9733 C   0  0  2  0  0  0  0  0  0  0  0  0
    1.0442    1.7415    0.3333 C   0  0  0  0  0  0  0  0  0  0  0  0
   -0.2168    1.4360    0.8150 C   0  0  0  0  0  0  0  0  0  0  0  0
   -1.1582    0.4533    0.3410 C   0  0  2  0  0  0  0  0  0  0  0  0
   -1.6847   -0.3799    1.3815 C   0  0  0  0  0  0  0  0  0  0  0  0
   -3.1036   -0.9450    0.8177 C   0  0  2  0  0  0  0  0  0  0  0  0
   -2.4951   -1.9062   -0.3484 C   0  0  0  0  0  0  0  0  0  0  0  0
   -1.0629   -1.8487   -0.4427 C   0  0  0  0  0  0  0  0  0  0  0  0
   -0.6107   -0.3631   -0.9411 C   0  0  2  0  0  0  0  0  0  0  0  0
   -3.4393    0.3087   -0.1554 C   0  0  1  0  0  0  0  0  0  0  0  0
   -3.9196   -0.1591   -1.3450 O   0  0  0  0  0  0  0  0  0  0  0  0
   -4.6656    0.8896    0.5740 C   0  0  0  0  0  0  0  0  0  0  0  0
   -4.3266    1.4038    1.8041 O   0  0  0  0  0  0  0  0  0  0  0  0
   -2.3708    1.2187   -0.1071 C   0  0  0  0  0  0  0  0  0  0  0  0
  2  1  1  1
  2  3  1  0
  3  4  1  0
  4  5  1  0
  5  6  1  0
  6  7  1  0
  7  8  2  0
  8  9  1  0
  9 10  1  0
 10 11  1  1
 11 12  1  0
 13 12  1  1
 13 14  1  0
 14 15  1  0
 15 16  1  6
 16 17  1  0
 18 17  1  1
 15 19  1  0
 19 20  1  6
 19 21  1  0
 21 22  1  0
 19 23  1  0
 10  2  1  0
 18 13  1  0
 18  2  1  0
  9  5  2  0
 23 13  1  0
M  END
>  <zinc_id>  (1) 
ZINC000000898027

>  <smiles>  (1) 
C[C@]12CCc3occc3[C@@H]1CC[C@]13C[C@H](CC[C@@H]12)[C@@](O)(CO)C3

$$$$
