
     RDKit          3D

 21 23  0  0  0  0  0  0  0  0999 V2000
   -1.8291    4.1628   -0.7942 C   0  0  0  0  0  0  0  0  0  0  0  0
   -2.6274    3.0318   -1.1326 N   0  0  0  0  0  0  0  0  0  0  0  0
   -2.2612    1.6872   -0.7375 C   0  0  0  0  0  0  0  0  0  0  0  0
   -1.2013    1.3032   -0.0452 N   0  0  0  0  0  0  0  0  0  0  0  0
   -1.0299    0.0360    0.2220 C   0  0  0  0  0  0  0  0  0  0  0  0
    0.0499   -0.5050    0.9467 C   0  0  0  0  0  0  0  0  0  0  0  0
    1.1482    0.3272    1.4929 C   0  0  0  0  0  0  0  0  0  0  0  0
    2.1049    0.7447    0.4403 C   0  0  0  0  0  0  0  0  0  0  0  0
    3.2325    0.0171    0.0937 C   0  0  0  0  0  0  0  0  0  0  0  0
    4.0913    0.4486   -0.9005 C   0  0  0  0  0  0  0  0  0  0  0  0
    3.8478    1.6219   -1.5783 C   0  0  0  0  0  0  0  0  0  0  0  0
    2.7517    2.3220   -1.2361 N   0  0  0  0  0  0  0  0  0  0  0  0
    1.8934    1.9128   -0.2587 C   0  0  0  0  0  0  0  0  0  0  0  0
    0.1062   -1.8570    1.1567 C   0  0  0  0  0  0  0  0  0  0  0  0
    1.2523   -2.4681    1.9300 C   0  0  0  0  0  0  0  0  0  0  0  0
   -0.8306   -2.7675    0.7074 C   0  0  0  0  0  0  0  0  0  0  0  0
   -0.7733   -4.1240    0.9189 O   0  0  0  0  0  0  0  0  0  0  0  0
   -1.8969   -2.2237   -0.0101 C   0  0  0  0  0  0  0  0  0  0  0  0
   -2.9906   -3.0414   -0.5682 C   0  0  0  0  0  0  0  0  0  0  0  0
   -1.9742   -0.8406   -0.2367 C   0  0  0  0  0  0  0  0  0  0  0  0
   -3.0638    0.2119   -1.0329 S   0  0  0  0  0  0  0  0  0  0  0  0
  1  2  1  0
  2  3  1  0
  3  4  2  0
  4  5  1  0
  5  6  2  0
  6  7  1  0
  7  8  1  0
  8  9  2  0
  9 10  1  0
 10 11  2  0
 11 12  1  0
 12 13  2  0
  6 14  1  0
 14 15  1  0
 14 16  2  0
 16 17  1  0
 16 18  1  0
 18 19  1  0
 18 20  2  0
 20 21  1  0
 21  3  1  0
 20  5  1  0
 13  8  1  0
M  END
>  <zinc_id>  (1) 
ZINC000000005569

>  <smiles>  (1) 
CNc1nc2c(Cc3cccnc3)c(C)c(O)c(C)c2s1

$$$$
