
     RDKit          3D

 33 36  0  0  0  0  0  0  0  0999 V2000
   -2.8909    4.4597    2.5063 C   0  0  0  0  0  0  0  0  0  0  0  0
   -3.4849    4.3361    1.1104 C   0  0  0  0  0  0  0  0  0  0  0  0
   -2.6963    5.0709    0.1024 C   0  0  0  0  0  0  0  0  0  0  0  0
   -1.3348    4.5695   -0.0622 C   0  0  0  0  0  0  0  0  0  0  0  0
   -1.1490    3.2917   -0.5574 N   0  0  0  0  0  0  0  0  0  0  0  0
   -1.5355    2.0127   -0.1442 C   0  0  0  0  0  0  0  0  0  0  0  0
   -2.2089    1.8983    0.9024 O   0  0  0  0  0  0  0  0  0  0  0  0
   -1.2000    0.7918   -0.8634 C   0  0  0  0  0  0  0  0  0  0  0  0
   -1.4424   -0.4453   -0.6675 C   0  0  0  0  0  0  0  0  0  0  0  0
   -2.1881   -1.0263    0.4306 C   0  0  0  0  0  0  0  0  0  0  0  0
   -1.9348   -0.5964    1.7055 C   0  0  0  0  0  0  0  0  0  0  0  0
   -2.6278   -1.1104    2.7990 C   0  0  0  0  0  0  0  0  0  0  0  0
   -3.5974   -2.0726    2.6425 C   0  0  0  0  0  0  0  0  0  0  0  0
   -3.8595   -2.5120    1.3614 C   0  0  0  0  0  0  0  0  0  0  0  0
   -3.1664   -1.9950    0.2895 C   0  0  0  0  0  0  0  0  0  0  0  0
   -3.4251   -2.4317   -1.0066 O   0  0  0  0  0  0  0  0  0  0  0  0
   -4.3902   -3.4103   -1.3226 C   0  0  0  0  0  0  0  0  0  0  0  0
   -4.0761   -4.7165   -0.6322 C   0  0  0  0  0  0  0  0  0  0  0  0
   -0.8498   -1.1945   -1.7176 N   0  0  0  0  0  0  0  0  0  0  0  0
   -0.8367   -0.4315   -2.7921 O   0  0  0  0  0  0  0  0  0  0  0  0
   -0.3267    0.8924   -2.2265 C   0  0  2  0  0  0  0  0  0  0  0  0
    1.0530    0.4133   -1.6507 C   0  0  0  0  0  0  0  0  0  0  0  0
    1.8892   -0.4105   -2.2960 C   0  0  0  0  0  0  0  0  0  0  0  0
    3.1124   -0.7651   -1.7150 C   0  0  0  0  0  0  0  0  0  0  0  0
    3.4659   -0.2788   -0.4897 C   0  0  0  0  0  0  0  0  0  0  0  0
    4.7479   -0.6358    0.1237 C   0  0  0  0  0  0  0  0  0  0  0  0
    5.8935   -0.8908   -0.5891 C   0  0  0  0  0  0  0  0  0  0  0  0
    7.0994   -1.2238    0.0185 C   0  0  0  0  0  0  0  0  0  0  0  0
    7.1425   -1.2994    1.3777 C   0  0  0  0  0  0  0  0  0  0  0  0
    6.0150   -1.0505    2.1181 C   0  0  0  0  0  0  0  0  0  0  0  0
    4.8077   -0.7162    1.4939 C   0  0  0  0  0  0  0  0  0  0  0  0
    2.6090    0.5740    0.1895 C   0  0  0  0  0  0  0  0  0  0  0  0
    1.3858    0.9032   -0.4389 C   0  0  0  0  0  0  0  0  0  0  0  0
  1  2  1  0
  2  3  1  0
  3  4  1  0
  4  5  1  0
  5  6  1  0
  6  7  2  0
  6  8  1  0
  8  9  2  0
  9 10  1  0
 10 11  2  0
 11 12  1  0
 12 13  2  0
 13 14  1  0
 14 15  2  0
 15 16  1  0
 16 17  1  0
 17 18  1  0
  9 19  1  0
 19 20  1  0
 20 21  1  0
 21 22  1  1
 22 23  2  0
 23 24  1  0
 24 25  2  0
 25 26  1  0
 26 27  2  0
 27 28  1  0
 28 29  2  0
 29 30  1  0
 30 31  2  0
 25 32  1  0
 32 33  2  0
 21  8  1  0
 33 22  1  0
 15 10  1  0
 31 26  1  0
M  END
>  <zinc_id>  (1) 
ZINC000002467965

>  <smiles>  (1) 
CCCCNC(=O)C1=C(c2ccccc2OCC)NO[C@@H]1c1ccc(-c2ccccc2)cc1

$$$$
