
     RDKit          3D

 18 20  0  0  0  0  0  0  0  0999 V2000
    5.6939    0.5207   -0.2962 C   0  0  0  0  0  0  0  0  0  0  0  0
    5.0181    1.6533    0.4429 C   0  0  0  0  0  0  0  0  0  0  0  0
    3.5869    1.7170    0.1128 N   0  0  0  0  0  0  0  0  0  0  0  0
    2.7953    0.5442    0.4247 C   0  0  0  0  0  0  0  0  0  0  0  0
    1.5018    0.3533    0.2281 N   0  0  0  0  0  0  0  0  0  0  0  0
    0.9638   -0.7737    0.5751 C   0  0  0  0  0  0  0  0  0  0  0  0
   -0.4807   -1.0706    0.3897 C   0  0  0  0  0  0  0  0  0  0  0  0
   -1.1573   -2.2203    0.7165 C   0  0  0  0  0  0  0  0  0  0  0  0
   -2.4530   -2.0916    0.3886 N   0  0  0  0  0  0  0  0  0  0  0  0
   -2.6621   -0.8786   -0.1523 C   0  0  0  0  0  0  0  0  0  0  0  0
   -3.8186   -0.2656   -0.6489 C   0  0  0  0  0  0  0  0  0  0  0  0
   -3.7488    1.0112   -1.1567 C   0  0  0  0  0  0  0  0  0  0  0  0
   -4.9762    1.6970   -1.6981 C   0  0  0  0  0  0  0  0  0  0  0  0
   -2.5246    1.6458   -1.1563 C   0  0  0  0  0  0  0  0  0  0  0  0
   -1.3865    1.0415   -0.6672 C   0  0  0  0  0  0  0  0  0  0  0  0
   -1.4397   -0.2430   -0.1527 C   0  0  0  0  0  0  0  0  0  0  0  0
    1.7893   -1.7184    1.1372 C   0  0  0  0  0  0  0  0  0  0  0  0
    3.2983   -0.9222    1.1318 S   0  0  0  0  0  0  0  0  0  0  0  0
  1  2  1  0
  2  3  1  0
  3  4  1  0
  4  5  2  0
  5  6  1  0
  6  7  1  0
  7  8  2  0
  8  9  1  0
  9 10  1  0
 10 11  2  0
 11 12  1  0
 12 13  1  0
 12 14  2  0
 14 15  1  0
 15 16  2  0
  6 17  2  0
 17 18  1  0
 18  4  1  0
 16  7  1  0
 16 10  1  0
M  END
>  <zinc_id>  (1) 
ZINC000002435371

>  <smiles>  (1) 
CCNc1nc(-c2c[nH]c3cc(C)ccc23)cs1

$$$$
