
     RDKit          3D

 18 18  0  0  0  0  0  0  0  0999 V2000
    1.7021    1.8937    0.3955 C   0  0  0  0  0  0  0  0  0  0  0  0
    2.8420    0.9619    0.4488 C   0  0  0  0  0  0  0  0  0  0  0  0
    4.1562    1.4874    0.9031 C   0  0  0  0  0  0  0  0  0  0  0  0
    2.6626   -0.3039    0.0876 C   0  0  0  0  0  0  0  0  0  0  0  0
    1.4051   -0.7313   -0.3350 N   0  0  0  0  0  0  0  0  0  0  0  0
    0.1771   -0.4510    0.2461 N   0  0  0  0  0  0  0  0  0  0  0  0
   -1.0127   -0.5229   -0.5443 C   0  0  0  0  0  0  0  0  0  0  0  0
   -0.8300   -0.8549   -1.7704 O   0  0  0  0  0  0  0  0  0  0  0  0
   -2.3535   -0.2611   -0.0963 C   0  0  0  0  0  0  0  0  0  0  0  0
   -3.2128   -1.2211    0.3910 C   0  0  0  0  0  0  0  0  0  0  0  0
   -4.5014   -0.9859    0.7910 C   0  0  0  0  0  0  0  0  0  0  0  0
   -5.0139    0.2982    0.7156 C   0  0  0  0  0  0  0  0  0  0  0  0
   -4.1800    1.2819    0.2336 C   0  0  0  0  0  0  0  0  0  0  0  0
   -2.8864    1.0204   -0.1633 C   0  0  0  0  0  0  0  0  0  0  0  0
   -1.8106    2.2904   -0.7725 Cl  0  0  0  0  0  0  0  0  0  0  0  0
    3.7870   -1.2555    0.1124 C   0  0  0  0  0  0  0  0  0  0  0  0
    3.9885   -2.0084   -1.1659 C   0  0  0  0  0  0  0  0  0  0  0  0
    5.0806   -0.6377    0.5515 C   0  0  0  0  0  0  0  0  0  0  0  0
  1  2  1  0
  2  3  1  0
  2  4  2  3
  4  5  1  0
  5  6  1  0
  6  7  1  0
  7  8  2  0
  7  9  1  0
  9 10  2  0
 10 11  1  0
 11 12  2  0
 12 13  1  0
 13 14  2  0
 14 15  1  0
  4 16  1  0
 16 17  1  0
 16 18  1  0
 14  9  1  0
M  END
>  <zinc_id>  (1) 
ZINC000002767146

>  <smiles>  (1) 
CC(C)=C(NNC(=O)c1ccccc1Cl)C(C)C

$$$$
