
     RDKit          3D

 31 34  0  0  0  0  0  0  0  0999 V2000
    5.7224    2.4888    0.5964 C   0  0  0  0  0  0  0  0  0  0  0  0
    5.2799    3.4474    1.6760 C   0  0  0  0  0  0  0  0  0  0  0  0
    4.1755    2.8606    2.5373 C   0  0  0  0  0  0  0  0  0  0  0  0
    4.6091    1.5952    3.2288 C   0  0  0  0  0  0  0  0  0  0  0  0
    4.9722    0.6305    2.2898 O   0  0  0  0  0  0  0  0  0  0  0  0
    4.0206    0.1914    1.3501 C   0  0  0  0  0  0  0  0  0  0  0  0
    4.3774   -0.7627    0.4204 C   0  0  0  0  0  0  0  0  0  0  0  0
    3.4533   -1.1900   -0.4932 C   0  0  0  0  0  0  0  0  0  0  0  0
    2.1734   -0.6663   -0.4800 C   0  0  0  0  0  0  0  0  0  0  0  0
    1.8489    0.2715    0.4459 C   0  0  0  0  0  0  0  0  0  0  0  0
    0.3761    0.8583    0.4429 C   0  0  2  0  0  0  0  0  0  0  0  0
    0.1261    0.8254    1.9913 N   0  0  0  0  0  0  0  0  0  0  0  0
    0.7455   -0.2587    2.5491 C   0  0  0  0  0  0  0  0  0  0  0  0
    0.7916   -1.5514    1.8756 C   0  0  0  0  0  0  0  0  0  0  0  0
   -0.2349   -1.5965    0.8256 C   0  0  0  0  0  0  0  0  0  0  0  0
   -0.9831   -2.7371    0.5200 C   0  0  0  0  0  0  0  0  0  0  0  0
   -1.9340   -2.7207   -0.4769 C   0  0  0  0  0  0  0  0  0  0  0  0
   -2.6971   -3.8408   -0.8066 O   0  0  0  0  0  0  0  0  0  0  0  0
   -2.6462   -5.0850   -0.2372 C   0  0  0  0  0  0  0  0  0  0  0  0
   -2.0980   -1.5273   -1.1430 C   0  0  0  0  0  0  0  0  0  0  0  0
   -3.0500   -1.4987   -2.1460 O   0  0  0  0  0  0  0  0  0  0  0  0
   -3.4096   -0.4520   -2.9533 C   0  0  0  0  0  0  0  0  0  0  0  0
   -3.9342    0.7435   -2.2778 C   0  0  0  0  0  0  0  0  0  0  0  0
   -4.3026    1.9038   -2.8806 C   0  0  0  0  0  0  0  0  0  0  0  0
   -4.7891    2.9681   -2.1222 C   0  0  0  0  0  0  0  0  0  0  0  0
   -4.9076    2.8694   -0.7481 C   0  0  0  0  0  0  0  0  0  0  0  0
   -4.5394    1.7069   -0.1361 C   0  0  0  0  0  0  0  0  0  0  0  0
   -4.0636    0.6730   -0.9004 C   0  0  0  0  0  0  0  0  0  0  0  0
   -1.3804   -0.3816   -0.8713 C   0  0  0  0  0  0  0  0  0  0  0  0
   -0.4449   -0.4762    0.1421 C   0  0  0  0  0  0  0  0  0  0  0  0
    2.7425    0.7112    1.3596 C   0  0  0  0  0  0  0  0  0  0  0  0
  1  2  1  0
  2  3  1  0
  3  4  1  0
  4  5  1  0
  5  6  1  0
  6  7  2  0
  7  8  1  0
  8  9  2  0
  9 10  1  0
 11 10  1  1
 11 12  1  0
 12 13  1  0
 13 14  1  0
 14 15  1  0
 15 16  2  0
 16 17  1  0
 17 18  1  0
 18 19  1  0
 17 20  2  0
 20 21  1  0
 21 22  1  0
 22 23  1  0
 23 24  2  0
 24 25  1  0
 25 26  2  0
 26 27  1  0
 27 28  2  0
 20 29  1  0
 29 30  2  0
 10 31  2  0
 31  6  1  0
 30 11  1  0
 30 15  1  0
 28 23  1  0
M  END
>  <zinc_id>  (1) 
ZINC000003702466

>  <smiles>  (1) 
CCCCOc1cccc([C@@H]2NCCc3cc(OC)c(OCc4ccccc4)cc32)c1

$$$$
