
     RDKit          3D

 23 26  0  0  0  0  0  0  0  0999 V2000
    2.1895    3.2919    2.1600 C   0  0  0  0  0  0  0  0  0  0  0  0
    1.2423    2.6982    1.2933 O   0  0  0  0  0  0  0  0  0  0  0  0
    1.5201    1.4816    0.6940 C   0  0  0  0  0  0  0  0  0  0  0  0
    2.7081    0.8327    0.9243 C   0  0  0  0  0  0  0  0  0  0  0  0
    2.9951   -0.3829    0.3311 C   0  0  0  0  0  0  0  0  0  0  0  0
    2.0790   -0.9941   -0.5286 C   0  0  0  0  0  0  0  0  0  0  0  0
    0.9053   -0.3485   -0.7537 C   0  0  0  0  0  0  0  0  0  0  0  0
    0.6036    0.8609   -0.1715 C   0  0  0  0  0  0  0  0  0  0  0  0
   -0.6120    1.6134   -0.3956 C   0  0  0  0  0  0  0  0  0  0  0  0
   -1.8166    1.0952   -0.3782 C   0  0  0  0  0  0  0  0  0  0  0  0
   -3.0727    1.8178   -0.6044 C   0  0  0  0  0  0  0  0  0  0  0  0
   -3.1652    3.0432   -0.8614 O   0  0  0  0  0  0  0  0  0  0  0  0
   -4.1296    0.9022   -0.4825 N   0  0  0  0  0  0  0  0  0  0  0  0
   -3.5610   -0.3578   -0.1890 C   0  0  0  0  0  0  0  0  0  0  0  0
   -4.1994   -1.5809    0.0253 C   0  0  0  0  0  0  0  0  0  0  0  0
   -3.4587   -2.6924    0.3026 C   0  0  0  0  0  0  0  0  0  0  0  0
   -2.0665   -2.6089    0.3728 C   0  0  0  0  0  0  0  0  0  0  0  0
   -1.4232   -1.4135    0.1640 C   0  0  0  0  0  0  0  0  0  0  0  0
   -2.1855   -0.2973   -0.1161 C   0  0  0  0  0  0  0  0  0  0  0  0
    2.4895   -2.2942   -1.1098 C   0  0  0  0  0  0  0  0  0  0  0  0
    3.8528   -2.0877   -1.7416 C   0  0  0  0  0  0  0  0  0  0  0  0
    4.8390   -1.4578   -0.8059 C   0  0  0  0  0  0  0  0  0  0  0  0
    4.2660   -1.1211    0.5538 C   0  0  0  0  0  0  0  0  0  0  0  0
  1  2  1  0
  2  3  1  0
  3  4  2  0
  4  5  1  0
  5  6  2  0
  6  7  1  0
  7  8  2  0
  8  9  1  0
  9 10  2  0
 10 11  1  0
 11 12  2  0
 11 13  1  0
 13 14  1  0
 14 15  2  0
 15 16  1  0
 16 17  2  0
 17 18  1  0
 18 19  2  0
  6 20  1  0
 20 21  1  0
 21 22  1  0
 22 23  1  0
  8  3  1  0
 19 10  1  0
 23  5  1  0
 19 14  1  0
M  END
>  <zinc_id>  (1) 
ZINC000000574856

>  <smiles>  (1) 
COc1cc2c(cc1/C=C1/C(=O)Nc3ccccc31)CCCC2

$$$$
