
     RDKit          3D

 21 22  0  0  0  0  0  0  0  0999 V2000
   -6.4890   -1.0069   -0.3771 C   0  0  0  0  0  0  0  0  0  0  0  0
   -5.0262   -0.7532   -0.4296 C   0  0  0  0  0  0  0  0  0  0  0  0
   -4.1864   -1.8128   -0.2262 C   0  0  0  0  0  0  0  0  0  0  0  0
   -2.8275   -1.5946   -0.2717 C   0  0  0  0  0  0  0  0  0  0  0  0
   -1.9077   -2.7378   -0.0523 C   0  0  0  0  0  0  0  0  0  0  0  0
   -2.2764   -0.3532   -0.5136 C   0  0  0  0  0  0  0  0  0  0  0  0
   -0.8626   -0.1893   -0.5487 N   0  0  0  0  0  0  0  0  0  0  0  0
   -0.0986    0.1261    0.6043 C   0  0  0  0  0  0  0  0  0  0  0  0
   -0.7141    0.2614    1.6872 O   0  0  0  0  0  0  0  0  0  0  0  0
    1.3468    0.2762    0.4788 C   0  0  0  0  0  0  0  0  0  0  0  0
    2.1485    0.5825    1.5597 C   0  0  0  0  0  0  0  0  0  0  0  0
    3.5164    0.7248    1.4414 C   0  0  0  0  0  0  0  0  0  0  0  0
    4.1565    0.5676    0.2318 C   0  0  0  0  0  0  0  0  0  0  0  0
    5.5703    0.7110    0.0910 N   0  0  0  0  0  4  0  0  0  0  0  0
    6.2799    0.9879    1.0773 O   0  0  0  0  0  0  0  0  0  0  0  0
    6.1605    0.5483   -1.1160 O   0  0  0  0  0  1  0  0  0  0  0  0
    3.3654    0.2616   -0.8541 C   0  0  0  0  0  0  0  0  0  0  0  0
    1.9987    0.1211   -0.7277 C   0  0  0  0  0  0  0  0  0  0  0  0
   -3.1138    0.7163   -0.7189 C   0  0  0  0  0  0  0  0  0  0  0  0
   -2.5456    2.0650   -0.9816 C   0  0  0  0  0  0  0  0  0  0  0  0
   -4.4951    0.4978   -0.6733 C   0  0  0  0  0  0  0  0  0  0  0  0
  1  2  1  0
  2  3  2  0
  3  4  1  0
  4  5  1  0
  4  6  2  0
  6  7  1  0
  7  8  1  0
  8  9  2  0
  8 10  1  0
 10 11  2  0
 11 12  1  0
 12 13  2  0
 13 14  1  0
 14 15  2  0
 14 16  1  0
 13 17  1  0
 17 18  2  0
  6 19  1  0
 19 20  1  0
 19 21  2  0
 21  2  1  0
 18 10  1  0
M  CHG  2  14   1  16  -1
M  END
>  <zinc_id>  (1) 
ZINC000000485402

>  <smiles>  (1) 
Cc1cc(C)c(NC(=O)c2ccc([N+](=O)[O-])cc2)c(C)c1

$$$$
