
     RDKit          3D

 19 21  0  0  0  0  0  0  0  0999 V2000
   -3.5309   -2.1776    1.4559 C   0  0  0  0  0  0  0  0  0  0  0  0
   -4.0177   -1.0287    0.4227 C   0  0  2  0  0  0  0  0  0  0  0  0
   -3.0660   -1.5081   -0.7574 C   0  0  0  0  0  0  0  0  0  0  0  0
   -2.3858   -0.4555   -1.4455 C   0  0  0  0  0  0  0  0  0  0  0  0
   -2.7038    0.9529   -1.1969 C   0  0  0  0  0  0  0  0  0  0  0  0
   -3.3453    1.2683    0.0578 C   0  0  0  0  0  0  0  0  0  0  0  0
   -3.0993    0.1552    1.1996 C   0  0  2  0  0  0  0  0  0  0  0  0
   -1.6778   -0.2618    0.7939 N   0  0  0  0  0  0  0  0  0  0  0  0
   -0.7582    0.7545    0.6490 C   0  0  0  0  0  0  0  0  0  0  0  0
   -1.1294    1.9376    0.8521 O   0  0  0  0  0  0  0  0  0  0  0  0
    0.6099    0.4627    0.2688 C   0  0  0  0  0  0  0  0  0  0  0  0
    1.5736    1.3649    0.0974 N   0  0  0  0  0  0  0  0  0  0  0  0
    2.7273    0.7791   -0.2527 C   0  0  0  0  0  0  0  0  0  0  0  0
    3.9932    1.2239   -0.5413 C   0  0  0  0  0  0  0  0  0  0  0  0
    4.9866    0.3225   -0.8762 C   0  0  0  0  0  0  0  0  0  0  0  0
    4.7409   -1.0273   -0.9297 C   0  0  0  0  0  0  0  0  0  0  0  0
    3.4570   -1.4565   -0.6355 C   0  0  0  0  0  0  0  0  0  0  0  0
    2.4649   -0.5677   -0.3021 C   0  0  0  0  0  0  0  0  0  0  0  0
    1.1608   -0.7385    0.0211 N   0  0  0  0  0  0  0  0  0  0  0  0
  2  1  1  1
  2  3  1  0
  3  4  1  0
  4  5  1  0
  5  6  1  0
  6  7  1  0
  7  8  1  6
  8  9  1  0
  9 10  2  0
  9 11  1  0
 11 12  2  0
 12 13  1  0
 13 14  2  0
 14 15  1  0
 15 16  2  0
 16 17  1  0
 17 18  2  0
 18 19  1  0
  7  2  1  0
 19 11  1  0
 18 13  1  0
M  END
>  <zinc_id>  (1) 
ZINC000001446487

>  <smiles>  (1) 
C[C@@H]1CCCC[C@@H]1NC(=O)c1nc2ccccc2[nH]1

$$$$
