
     RDKit          3D

 30 33  0  0  0  0  0  0  0  0999 V2000
    1.1470    0.8539    5.4129 C   0  0  0  0  0  0  0  0  0  0  0  0
    1.0059    0.6951    4.0159 O   0  0  0  0  0  0  0  0  0  0  0  0
    1.0824   -0.5585    3.4604 C   0  0  0  0  0  0  0  0  0  0  0  0
    1.2932   -1.6734    4.2230 C   0  0  0  0  0  0  0  0  0  0  0  0
    1.3718   -2.9468    3.6674 C   0  0  0  0  0  0  0  0  0  0  0  0
    1.2317   -3.0650    2.3188 C   0  0  0  0  0  0  0  0  0  0  0  0
    1.0203   -1.9669    1.5344 C   0  0  0  0  0  0  0  0  0  0  0  0
    0.8738   -2.0902    0.1239 N   0  0  0  0  0  0  0  0  0  0  0  0
    0.6508   -0.9701   -0.7176 C   0  0  0  0  0  0  0  0  0  0  0  0
    0.5904    0.1285   -0.1538 O   0  0  0  0  0  0  0  0  0  0  0  0
    0.4949   -1.1140   -2.2115 C   0  0  0  0  0  0  0  0  0  0  0  0
    0.1278   -0.0451   -2.9623 C   0  0  0  0  0  0  0  0  0  0  0  0
   -0.5305    1.1830   -2.7776 N   0  0  0  0  0  0  0  0  0  0  0  0
   -1.3990    1.6617   -1.8345 C   0  0  0  0  0  0  0  0  0  0  0  0
   -1.7886    0.9147   -0.9058 O   0  0  0  0  0  0  0  0  0  0  0  0
   -1.9118    3.0976   -1.8839 C   0  0  0  0  0  0  0  0  0  0  0  0
   -2.7848    3.4426   -0.7481 C   0  0  0  0  0  0  0  0  0  0  0  0
   -2.2091    3.3671    0.5955 C   0  0  0  0  0  0  0  0  0  0  0  0
   -1.5449    4.4515    1.1608 C   0  0  0  0  0  0  0  0  0  0  0  0
   -1.0085    4.4184    2.4166 C   0  0  0  0  0  0  0  0  0  0  0  0
   -1.1106    3.2742    3.1896 C   0  0  0  0  0  0  0  0  0  0  0  0
   -1.7641    2.1835    2.6542 C   0  0  0  0  0  0  0  0  0  0  0  0
   -2.2977    2.2473    1.3777 C   0  0  0  0  0  0  0  0  0  0  0  0
    0.4170   -0.6700   -4.5995 S   0  0  0  0  0  0  0  0  0  0  0  0
    0.9602   -2.2145   -4.2123 C   0  0  0  0  0  0  0  0  0  0  0  0
    0.9238   -2.2451   -2.8625 C   0  0  0  0  0  0  0  0  0  0  0  0
    1.3992   -3.6309   -2.4092 C   0  0  0  0  0  0  0  0  0  0  0  0
    1.3595   -4.4911   -3.6239 C   0  0  0  0  0  0  0  0  0  0  0  0
    1.4553   -3.5333   -4.7946 C   0  0  0  0  0  0  0  0  0  0  0  0
    0.9444   -0.7045    2.1036 C   0  0  0  0  0  0  0  0  0  0  0  0
  1  2  1  0
  2  3  1  0
  3  4  2  0
  4  5  1  0
  5  6  2  0
  6  7  1  0
  7  8  1  0
  8  9  1  0
  9 10  2  0
  9 11  1  0
 11 12  2  0
 12 13  1  0
 13 14  1  0
 14 15  2  0
 14 16  1  0
 16 17  1  0
 17 18  1  0
 18 19  2  0
 19 20  1  0
 20 21  2  0
 21 22  1  0
 22 23  2  0
 12 24  1  0
 24 25  1  0
 25 26  2  0
 26 27  1  0
 27 28  1  0
 28 29  1  0
  7 30  2  0
 30  3  1  0
 26 11  1  0
 23 18  1  0
 29 25  1  0
M  END
>  <zinc_id>  (1) 
ZINC000002826408

>  <smiles>  (1) 
COc1cccc(NC(=O)c2c(NC(=O)CCc3ccccc3)sc3c2CCC3)c1

$$$$
