
     RDKit          3D

 33 36  0  0  0  0  0  0  0  0999 V2000
   -3.6842    6.4274   -0.0636 C   0  0  0  0  0  0  0  0  0  0  0  0
   -2.5766    5.6766   -0.4887 O   0  0  0  0  0  0  0  0  0  0  0  0
   -2.6278    4.2705   -0.5744 C   0  0  0  0  0  0  0  0  0  0  0  0
   -1.5338    3.5506   -0.9976 C   0  0  0  0  0  0  0  0  0  0  0  0
   -1.5363    2.1842   -1.0982 C   0  0  0  0  0  0  0  0  0  0  0  0
   -2.6740    1.4952   -0.7636 C   0  0  0  0  0  0  0  0  0  0  0  0
   -2.7824    0.0325   -0.8290 C   0  0  0  0  0  0  0  0  0  0  0  0
   -3.7616   -0.6547   -1.4558 N   0  0  0  0  0  0  0  0  0  0  0  0
   -3.5629   -1.9089   -1.3326 O   0  0  0  0  0  0  0  0  0  0  0  0
   -2.4713   -2.1830   -0.6372 C   0  0  0  0  0  0  0  0  0  0  0  0
   -2.0135   -3.5321   -0.3537 C   0  0  0  0  0  0  0  0  0  0  0  0
   -0.8992   -3.8664    0.3341 C   0  0  0  0  0  0  0  0  0  0  0  0
   -0.5645   -5.1954    0.5265 C   0  0  0  0  0  0  0  0  0  0  0  0
   -1.3564   -6.2074    0.0226 C   0  0  0  0  0  0  0  0  0  0  0  0
   -2.5100   -5.8921   -0.6894 C   0  0  0  0  0  0  0  0  0  0  0  0
   -2.7980   -4.5691   -0.8518 C   0  0  0  0  0  0  0  0  0  0  0  0
   -1.9522   -0.9583   -0.2995 C   0  0  0  0  0  0  0  0  0  0  0  0
   -0.7845   -0.6612    0.5046 C   0  0  0  0  0  0  0  0  0  0  0  0
   -0.0888   -1.5708    0.9880 O   0  0  0  0  0  0  0  0  0  0  0  0
   -0.3819    0.6743    0.7867 N   0  0  0  0  0  0  0  0  0  0  0  0
    0.7321    0.9485    1.5950 C   0  0  0  0  0  0  0  0  0  0  0  0
    2.0725    0.7901    1.0836 C   0  0  0  0  0  0  0  0  0  0  0  0
    2.4839    0.1619   -0.0642 C   0  0  0  0  0  0  0  0  0  0  0  0
    3.8364    0.0723   -0.4188 C   0  0  0  0  0  0  0  0  0  0  0  0
    4.8060    0.6129    0.3790 C   0  0  0  0  0  0  0  0  0  0  0  0
    6.2650    0.5385    0.0620 C   0  0  0  0  0  0  0  0  0  0  0  0
    6.9492   -0.1612    1.2337 C   0  0  0  0  0  0  0  0  0  0  0  0
    6.5290   -0.3135   -1.1564 C   0  0  0  0  0  0  0  0  0  0  0  0
    6.9005    1.8837   -0.1283 C   0  0  0  0  0  0  0  0  0  0  0  0
    4.4166    1.2518    1.5403 C   0  0  0  0  0  0  0  0  0  0  0  0
    3.0989    1.3363    1.8774 C   0  0  0  0  0  0  0  0  0  0  0  0
   -3.7737    2.2066   -0.3397 C   0  0  0  0  0  0  0  0  0  0  0  0
   -3.7567    3.5602   -0.2462 C   0  0  0  0  0  0  0  0  0  0  0  0
  1  2  1  0
  2  3  1  0
  3  4  2  0
  4  5  1  0
  5  6  2  0
  6  7  1  0
  7  8  2  0
  8  9  1  0
  9 10  1  0
 10 11  1  0
 11 12  2  0
 12 13  1  0
 13 14  2  0
 14 15  1  0
 15 16  2  0
 10 17  2  0
 17 18  1  0
 18 19  2  0
 18 20  1  0
 20 21  1  0
 21 22  1  0
 22 23  2  0
 23 24  1  0
 24 25  2  0
 25 26  1  0
 26 27  1  0
 26 28  1  0
 26 29  1  0
 25 30  1  0
 30 31  2  0
  6 32  1  0
 32 33  2  0
 33  3  1  0
 17  7  1  0
 31 22  1  0
 16 11  1  0
M  END
>  <zinc_id>  (1) 
ZINC000002480526

>  <smiles>  (1) 
COc1ccc(-c2noc(-c3ccccc3)c2C(=O)NCc2ccc(C(C)(C)C)cc2)cc1

$$$$
