
     RDKit          3D

 32 36  0  0  0  0  0  0  0  0999 V2000
   -4.6781    3.8603   -1.6164 C   0  0  0  0  0  0  0  0  0  0  0  0
   -4.1328    2.7475   -0.9416 O   0  0  0  0  0  0  0  0  0  0  0  0
   -4.8229    1.5578   -0.9615 C   0  0  0  0  0  0  0  0  0  0  0  0
   -6.0428    1.4737   -1.6431 C   0  0  0  0  0  0  0  0  0  0  0  0
   -6.7478    0.2820   -1.6708 C   0  0  0  0  0  0  0  0  0  0  0  0
   -6.2498   -0.8182   -1.0294 C   0  0  0  0  0  0  0  0  0  0  0  0
   -5.0563   -0.7022   -0.3736 C   0  0  0  0  0  0  0  0  0  0  0  0
   -4.3086    0.4522   -0.3092 C   0  0  0  0  0  0  0  0  0  0  0  0
   -3.0691    0.5753    0.3736 N   0  0  0  0  0  0  0  0  0  0  0  0
   -2.9954    0.5754    1.7815 C   0  0  0  0  0  0  0  0  0  0  0  0
   -1.3996    0.3022    2.0676 C   0  0  1  0  0  0  0  0  0  0  0  0
   -1.2304   -1.0894    1.2841 C   0  0  0  0  0  0  0  0  0  0  0  0
   -2.1192   -1.5953    0.6503 O   0  0  0  0  0  0  0  0  0  0  0  0
    0.0172   -1.6862    1.3802 N   0  0  0  0  0  0  0  0  0  0  0  0
    0.4541   -2.8817    0.8063 C   0  0  0  0  0  0  0  0  0  0  0  0
    1.4117   -3.4518    1.8100 C   0  0  0  0  0  0  0  0  0  0  0  0
    1.4898   -2.5312    2.9843 C   0  0  0  0  0  0  0  0  0  0  0  0
    1.1861   -1.0634    2.2076 C   0  0  1  0  0  0  0  0  0  0  0  0
    2.3132   -1.1747    1.0974 C   0  0  0  0  0  0  0  0  0  0  0  0
    3.1172   -0.1156    0.9826 N   0  0  0  0  0  0  0  0  0  0  0  0
    4.0014   -0.4130   -0.0130 C   0  0  0  0  0  0  0  0  0  0  0  0
    5.0869    0.3964   -0.5268 C   0  0  0  0  0  0  0  0  0  0  0  0
    5.8556   -0.0721   -1.5397 C   0  0  0  0  0  0  0  0  0  0  0  0
    6.9053    0.6890   -2.0380 C   0  0  0  0  0  0  0  0  0  0  0  0
    7.1640    1.9205   -1.5007 C   0  0  0  0  0  0  0  0  0  0  0  0
    6.3981    2.3982   -0.4850 C   0  0  0  0  0  0  0  0  0  0  0  0
    5.3584    1.6375    0.0041 C   0  0  0  0  0  0  0  0  0  0  0  0
    3.6581   -1.6248   -0.4160 N   0  0  0  0  0  0  0  0  0  0  0  0
    2.6485   -2.0388    0.2728 O   0  0  0  0  0  0  0  0  0  0  0  0
   -0.9002    1.2236    0.7764 C   0  0  0  0  0  0  0  0  0  0  0  0
   -1.8128    0.7086   -0.2610 C   0  0  0  0  0  0  0  0  0  0  0  0
   -1.4997    0.4585   -1.4384 O   0  0  0  0  0  0  0  0  0  0  0  0
  1  2  1  0
  2  3  1  0
  3  4  2  0
  4  5  1  0
  5  6  2  0
  6  7  1  0
  7  8  2  0
  8  9  1  0
  9 10  1  0
 10 11  1  0
 11 12  1  6
 12 13  2  0
 12 14  1  0
 14 15  1  0
 15 16  1  0
 16 17  1  0
 17 18  1  0
 18 19  1  6
 19 20  2  0
 20 21  1  0
 21 22  1  0
 22 23  2  0
 23 24  1  0
 24 25  2  0
 25 26  1  0
 26 27  2  0
 21 28  2  0
 28 29  1  0
 11 30  1  0
 30 31  1  0
 31 32  2  0
  8  3  1  0
 31  9  1  0
 18 14  1  0
 29 19  1  0
 27 22  1  0
M  END
>  <zinc_id>  (1) 
ZINC000000023979

>  <smiles>  (1) 
COc1ccccc1N1C[C@@H](C(=O)N2CCC[C@H]2c2nc(-c3ccccc3)no2)CC1=O

$$$$
