
     RDKit          3D

 31 33  0  0  0  0  0  0  0  0999 V2000
    7.2895    0.5698   -2.0158 C   0  0  0  0  0  0  0  0  0  0  0  0
    5.9119    1.1591   -1.7330 C   0  0  0  0  0  0  0  0  0  0  0  0
    5.9090    1.8836   -0.3745 C   0  0  0  0  0  0  0  0  0  0  0  0
    4.4852    2.4657   -0.1525 C   0  0  0  0  0  0  0  0  0  0  0  0
    3.5607    1.2979   -0.1747 N   0  0  0  0  0  0  0  0  0  0  0  0
    4.0150    0.1842    0.5841 C   0  0  0  0  0  0  0  0  0  0  0  0
    5.1590    0.2302    1.3970 C   0  0  0  0  0  0  0  0  0  0  0  0
    5.6371   -0.8946    2.0394 C   0  0  0  0  0  0  0  0  0  0  0  0
    5.0077   -2.1034    1.9095 C   0  0  0  0  0  0  0  0  0  0  0  0
    3.8917   -2.1357    1.1196 C   0  0  0  0  0  0  0  0  0  0  0  0
    3.3849   -0.9961    0.4561 C   0  0  0  0  0  0  0  0  0  0  0  0
    2.0683   -1.1748   -0.1304 C   0  0  0  0  0  0  0  0  0  0  0  0
    1.6642   -2.3724   -0.2997 O   0  0  0  0  0  0  0  0  0  0  0  0
    1.2021   -0.1855   -0.5035 O   0  0  0  0  0  0  0  0  0  0  0  0
   -0.0996   -0.8407   -1.0617 C   0  0  1  0  0  0  0  0  0  0  0  0
   -0.6187   -1.2779    0.5421 C   0  0  0  0  0  0  0  0  0  0  0  0
   -1.0034    0.5391   -0.8850 C   0  0  0  0  0  0  0  0  0  0  0  0
   -0.3782    1.5853   -0.8978 O   0  0  0  0  0  0  0  0  0  0  0  0
   -2.3170    0.3975   -0.7160 N   0  0  0  0  0  0  0  0  0  0  0  0
   -3.2503    1.4084   -0.4912 C   0  0  0  0  0  0  0  0  0  0  0  0
   -3.1337    2.7495   -0.4796 C   0  0  0  0  0  0  0  0  0  0  0  0
   -4.2020    3.5836   -0.1392 C   0  0  0  0  0  0  0  0  0  0  0  0
   -5.4334    3.0875    0.2056 C   0  0  0  0  0  0  0  0  0  0  0  0
   -5.5533    1.6989    0.1927 C   0  0  0  0  0  0  0  0  0  0  0  0
   -4.5268    0.8610   -0.1370 C   0  0  0  0  0  0  0  0  0  0  0  0
   -4.6677   -0.5690   -0.1300 C   0  0  0  0  0  0  0  0  0  0  0  0
   -5.2369   -1.2579    0.8983 C   0  0  0  0  0  0  0  0  0  0  0  0
   -5.3708   -2.6181    0.9274 C   0  0  0  0  0  0  0  0  0  0  0  0
   -4.8925   -3.3296   -0.1669 C   0  0  0  0  0  0  0  0  0  0  0  0
   -4.3150   -2.6551   -1.2095 C   0  0  0  0  0  0  0  0  0  0  0  0
   -4.1868   -1.2904   -1.2294 C   0  0  0  0  0  0  0  0  0  0  0  0
  1  2  1  0
  2  3  1  0
  3  4  1  0
  4  5  1  0
  5  6  1  0
  6  7  2  0
  7  8  1  0
  8  9  2  0
  9 10  1  0
 10 11  2  0
 11 12  1  0
 12 13  2  0
 12 14  1  0
 14 15  1  0
 15 16  1  1
 15 17  1  0
 17 18  2  0
 17 19  1  0
 19 20  1  0
 20 21  2  0
 21 22  1  0
 22 23  2  0
 23 24  1  0
 24 25  2  0
 25 26  1  0
 26 27  2  0
 27 28  1  0
 28 29  2  0
 29 30  1  0
 30 31  2  0
 11  6  1  0
 25 20  1  0
 31 26  1  0
M  END
>  <zinc_id>  (1) 
ZINC000004400371

>  <smiles>  (1) 
CCCCNc1ccccc1C(=O)O[C@@H](C)C(=O)Nc1ccccc1-c1ccccc1

$$$$
