
     RDKit          3D

 19 21  0  0  0  0  0  0  0  0999 V2000
    5.7573   -1.2451   -1.6483 C   0  0  0  0  0  0  0  0  0  0  0  0
    6.0016   -0.5279   -0.3150 C   0  0  0  0  0  0  0  0  0  0  0  0
    4.8724   -0.8280    0.5434 N   0  0  0  0  0  0  0  0  0  0  0  0
    3.5532   -0.4244    0.0892 C   0  0  0  0  0  0  0  0  0  0  0  0
    2.4007   -0.5976    0.7082 N   0  0  0  0  0  0  0  0  0  0  0  0
    1.3053   -0.1737    0.1597 C   0  0  0  0  0  0  0  0  0  0  0  0
   -0.0358   -0.3330    0.7984 C   0  0  0  0  0  0  0  0  0  0  0  0
   -0.3292   -0.9226    2.0099 C   0  0  0  0  0  0  0  0  0  0  0  0
   -1.6363   -0.8587    2.2090 N   0  0  0  0  0  0  0  0  0  0  0  0
   -2.2636   -0.2409    1.1702 C   0  0  0  0  0  0  0  0  0  0  0  0
   -3.5863    0.0597    0.9160 C   0  0  0  0  0  0  0  0  0  0  0  0
   -3.9474    0.7078   -0.2470 C   0  0  0  0  0  0  0  0  0  0  0  0
   -5.2814    1.0249   -0.5303 O   0  0  0  0  0  0  0  0  0  0  0  0
   -5.5557    1.6909   -1.7493 C   0  0  0  0  0  0  0  0  0  0  0  0
   -2.9285    1.0295   -1.1199 C   0  0  0  0  0  0  0  0  0  0  0  0
   -1.6024    0.7357   -0.8796 C   0  0  0  0  0  0  0  0  0  0  0  0
   -1.2471    0.0814    0.2967 C   0  0  0  0  0  0  0  0  0  0  0  0
    1.4208    0.4454   -1.0646 C   0  0  0  0  0  0  0  0  0  0  0  0
    3.1024    0.3766   -1.3468 S   0  0  0  0  0  0  0  0  0  0  0  0
  1  2  1  0
  2  3  1  0
  3  4  1  0
  4  5  2  0
  5  6  1  0
  6  7  1  0
  7  8  2  0
  8  9  1  0
  9 10  1  0
 10 11  2  0
 11 12  1  0
 12 13  1  0
 13 14  1  0
 12 15  2  0
 15 16  1  0
 16 17  2  0
  6 18  2  0
 18 19  1  0
 19  4  1  0
 17  7  1  0
 17 10  1  0
M  END
>  <zinc_id>  (1) 
ZINC000002347439

>  <smiles>  (1) 
CCNc1nc(-c2c[nH]c3cc(OC)ccc23)cs1

$$$$
