
     RDKit          3D

 23 26  0  0  0  0  0  0  0  0999 V2000
   -4.4728    2.1220    0.7841 O   0  0  0  0  0  0  0  0  0  0  0  0
   -3.2540    1.9245    0.8064 N   0  0  0  0  0  4  0  0  0  0  0  0
   -2.4284    2.8522    1.3720 O   0  0  0  0  0  1  0  0  0  0  0  0
   -2.7008    0.7343    0.2458 C   0  0  0  0  0  0  0  0  0  0  0  0
   -3.3093    0.0517   -0.7688 C   0  0  0  0  0  0  0  0  0  0  0  0
   -2.7719   -1.1026   -1.3115 C   0  0  0  0  0  0  0  0  0  0  0  0
   -1.5829   -1.5624   -0.7978 C   0  0  0  0  0  0  0  0  0  0  0  0
   -0.9628   -0.8868    0.2196 C   0  0  0  0  0  0  0  0  0  0  0  0
   -1.4948    0.2490    0.7513 C   0  0  0  0  0  0  0  0  0  0  0  0
   -0.8653    1.0133    1.8580 C   0  0  0  0  0  0  0  0  0  0  0  0
    0.3645    0.3523    2.2253 N   0  0  0  0  0  0  0  0  0  0  0  0
    1.4066    0.2703    1.2608 C   0  0  0  0  0  0  0  0  0  0  0  0
    1.3242    0.8241    0.0019 C   0  0  0  0  0  0  0  0  0  0  0  0
    2.3594    0.7196   -0.8974 C   0  0  0  0  0  0  0  0  0  0  0  0
    3.5508    0.0497   -0.5916 C   0  0  0  0  0  0  0  0  0  0  0  0
    3.6365   -0.5027    0.6597 C   0  0  0  0  0  0  0  0  0  0  0  0
    2.5835   -0.3965    1.5746 C   0  0  0  0  0  0  0  0  0  0  0  0
    4.9721   -1.1717    0.8029 C   0  0  0  0  0  0  0  0  0  0  0  0
    5.4821   -1.2649   -0.6172 C   0  0  0  0  0  0  0  0  0  0  0  0
    4.7855   -0.1898   -1.3823 C   0  0  0  0  0  0  0  0  0  0  0  0
   -1.2170   -2.7145   -1.4672 O   0  0  0  0  0  0  0  0  0  0  0  0
   -2.2418   -3.0756   -2.3975 C   0  0  0  0  0  0  0  0  0  0  0  0
   -3.1634   -1.9900   -2.3313 O   0  0  0  0  0  0  0  0  0  0  0  0
  1  2  2  0
  2  3  1  0
  2  4  1  0
  4  5  2  0
  5  6  1  0
  6  7  2  0
  7  8  1  0
  8  9  2  0
  9 10  1  0
 10 11  1  0
 11 12  1  0
 12 13  2  0
 13 14  1  0
 14 15  2  0
 15 16  1  0
 16 17  2  0
 16 18  1  0
 18 19  1  0
 19 20  1  0
  7 21  1  0
 21 22  1  0
 22 23  1  0
  9  4  1  0
 17 12  1  0
 23  6  1  0
 20 15  1  0
M  CHG  2   2   1   3  -1
M  END
>  <zinc_id>  (1) 
ZINC000000280320

>  <smiles>  (1) 
O=[N+]([O-])c1cc2c(cc1CNc1ccc3c(c1)CCC3)OCO2

$$$$
