
     RDKit          3D

 32 35  0  0  0  0  0  0  0  0999 V2000
   -4.3339   -5.7965   -0.4254 C   0  0  0  0  0  0  0  0  0  0  0  0
   -3.9631   -4.3761   -0.1367 C   0  0  0  0  0  0  0  0  0  0  0  0
   -3.7681   -3.4680   -1.1571 C   0  0  0  0  0  0  0  0  0  0  0  0
   -3.4258   -2.1505   -0.9351 C   0  0  0  0  0  0  0  0  0  0  0  0
   -3.2670   -1.7032    0.3585 C   0  0  0  0  0  0  0  0  0  0  0  0
   -2.8257   -0.0159    0.7242 S   0  0  0  0  0  0  0  0  0  0  0  0
   -1.0479    0.0989    0.7820 C   0  0  0  0  0  0  0  0  0  0  0  0
   -0.3449    1.2171    1.0321 C   0  0  0  0  0  0  0  0  0  0  0  0
   -0.9609    2.4615    1.2840 N   0  0  0  0  0  0  0  0  0  0  0  0
   -0.9484    3.5496    0.4016 C   0  0  0  0  0  0  0  0  0  0  0  0
   -0.3039    3.4448   -0.8053 C   0  0  0  0  0  0  0  0  0  0  0  0
   -0.2755    4.5131   -1.7038 C   0  0  0  0  0  0  0  0  0  0  0  0
   -0.9020    5.6842   -1.3733 C   0  0  0  0  0  0  0  0  0  0  0  0
   -1.5578    5.8222   -0.1698 C   0  0  0  0  0  0  0  0  0  0  0  0
   -2.2199    7.0932    0.1533 C   0  0  0  0  0  0  0  0  0  0  0  0
   -1.5699    4.7405    0.7066 C   0  0  0  0  0  0  0  0  0  0  0  0
   -2.2847    4.9177    1.9972 C   0  0  0  0  0  0  0  0  0  0  0  0
    1.0797    0.9113    0.9941 C   0  0  0  0  0  0  0  0  0  0  0  0
    1.9867    1.7674    1.1925 O   0  0  0  0  0  0  0  0  0  0  0  0
    1.1883   -0.4653    0.7046 N   0  0  0  0  0  0  0  0  0  0  0  0
    2.4007   -1.2122    0.5693 C   0  0  0  0  0  0  0  0  0  0  0  0
    2.9160   -1.2218   -0.8637 C   0  0  0  0  0  0  0  0  0  0  0  0
    4.1646   -2.0111   -0.9135 C   0  0  0  0  0  0  0  0  0  0  0  0
    4.1974   -3.3615   -1.1507 C   0  0  0  0  0  0  0  0  0  0  0  0
    5.4008   -4.0443   -1.1849 C   0  0  0  0  0  0  0  0  0  0  0  0
    6.5746   -3.3548   -0.9777 C   0  0  0  0  0  0  0  0  0  0  0  0
    6.5618   -2.0025   -0.7386 C   0  0  0  0  0  0  0  0  0  0  0  0
    5.3543   -1.3541   -0.7109 C   0  0  0  0  0  0  0  0  0  0  0  0
   -0.1264   -0.9837    0.5701 C   0  0  0  0  0  0  0  0  0  0  0  0
   -0.4427   -2.1954    0.3075 O   0  0  0  0  0  0  0  0  0  0  0  0
   -3.4572   -2.5948    1.3939 C   0  0  0  0  0  0  0  0  0  0  0  0
   -3.7994   -3.9098    1.1584 C   0  0  0  0  0  0  0  0  0  0  0  0
  1  2  1  0
  2  3  2  0
  3  4  1  0
  4  5  2  0
  5  6  1  0
  6  7  1  0
  7  8  2  0
  8  9  1  0
  9 10  1  0
 10 11  2  0
 11 12  1  0
 12 13  2  0
 13 14  1  0
 14 15  1  0
 14 16  2  0
 16 17  1  0
  8 18  1  0
 18 19  2  0
 18 20  1  0
 20 21  1  0
 21 22  1  0
 22 23  1  0
 23 24  2  0
 24 25  1  0
 25 26  2  0
 26 27  1  0
 27 28  2  0
 20 29  1  0
 29 30  2  0
  5 31  1  0
 31 32  2  0
 32  2  1  0
 29  7  1  0
 16 10  1  0
 28 23  1  0
M  END
>  <zinc_id>  (1) 
ZINC000001932063

>  <smiles>  (1) 
Cc1ccc(SC2=C(Nc3cccc(C)c3C)C(=O)N(CCc3ccccc3)C2=O)cc1

$$$$
