
     RDKit          3D

 19 20  0  0  0  0  0  0  0  0999 V2000
    4.4566    0.2796    0.9482 C   0  0  0  0  0  0  0  0  0  0  0  0
    4.1578    0.1591   -0.5247 C   0  0  0  0  0  0  0  0  0  0  0  0
    4.2493   -1.2884   -0.9887 C   0  0  0  0  0  0  0  0  0  0  0  0
    5.0338    1.0661   -1.3617 C   0  0  0  0  0  0  0  0  0  0  0  0
    2.8070    0.5571   -0.7100 O   0  0  0  0  0  0  0  0  0  0  0  0
    1.7680   -0.1238   -0.0702 C   0  0  0  0  0  0  0  0  0  0  0  0
    2.0250   -1.1016    0.6798 O   0  0  0  0  0  0  0  0  0  0  0  0
    0.4098    0.2284   -0.2185 N   0  0  0  0  0  0  0  0  0  0  0  0
   -0.6559   -0.4591    0.4291 C   0  0  0  0  0  0  0  0  0  0  0  0
   -0.4717   -1.5382    1.2664 C   0  0  0  0  0  0  0  0  0  0  0  0
   -1.5797   -2.1462    1.8550 C   0  0  0  0  0  0  0  0  0  0  0  0
   -2.8711   -1.7175    1.6398 C   0  0  0  0  0  0  0  0  0  0  0  0
   -3.0407   -0.6382    0.8009 C   0  0  0  0  0  0  0  0  0  0  0  0
   -4.1768   -0.0126    0.4146 N   0  0  0  0  0  0  0  0  0  0  0  0
   -3.8129    0.9831   -0.4095 C   0  0  0  0  0  0  0  0  0  0  0  0
   -2.4488    1.0045   -0.5580 C   0  0  0  0  0  0  0  0  0  0  0  0
   -1.6679    1.9304   -1.3669 C   0  0  0  0  0  0  0  0  0  0  0  0
   -2.2389    2.8374   -2.0307 O   0  0  0  0  0  0  0  0  0  0  0  0
   -1.9431   -0.0199    0.2051 C   0  0  0  0  0  0  0  0  0  0  0  0
  1  2  1  0
  2  3  1  0
  2  4  1  0
  2  5  1  0
  5  6  1  0
  6  7  2  0
  6  8  1  0
  8  9  1  0
  9 10  2  0
 10 11  1  0
 11 12  2  0
 12 13  1  0
 13 14  1  0
 14 15  1  0
 15 16  2  0
 16 17  1  0
 17 18  2  0
 16 19  1  0
 19  9  1  0
 19 13  2  0
M  END
>  <zinc_id>  (1) 
ZINC000002541465

>  <smiles>  (1) 
CC(C)(C)OC(=O)Nc1cccc2[nH]cc(C=O)c12

$$$$
