
     RDKit          3D

 21 23  0  0  0  0  0  0  0  0999 V2000
    5.0462   -0.0241    0.9276 C   0  0  0  0  0  0  0  0  0  0  0  0
    3.6576   -0.3666    0.5057 C   0  0  0  0  0  0  0  0  0  0  0  0
    3.3732   -1.5645   -0.1186 C   0  0  0  0  0  0  0  0  0  0  0  0
    2.0863   -1.8755   -0.5065 C   0  0  0  0  0  0  0  0  0  0  0  0
    1.0237   -1.0000   -0.2869 C   0  0  0  0  0  0  0  0  0  0  0  0
    1.3076    0.1797    0.3286 C   0  0  0  0  0  0  0  0  0  0  0  0
    2.5974    0.4894    0.7165 C   0  0  0  0  0  0  0  0  0  0  0  0
    2.8701    1.7022    1.3456 O   0  0  0  0  0  0  0  0  0  0  0  0
    0.2165    1.1139    0.5709 C   0  0  0  0  0  0  0  0  0  0  0  0
    0.4628    2.2118    1.1404 O   0  0  0  0  0  0  0  0  0  0  0  0
   -1.1230    0.7324    0.1396 C   0  0  0  0  0  0  0  0  0  0  0  0
   -2.1790    1.5954    0.3545 C   0  0  0  0  0  0  0  0  0  0  0  0
   -1.8780    2.8855    1.0258 C   0  0  0  0  0  0  0  0  0  0  0  0
   -3.4715    1.2666   -0.0430 C   0  0  0  0  0  0  0  0  0  0  0  0
   -3.7407    0.0654   -0.6660 C   0  0  0  0  0  0  0  0  0  0  0  0
   -5.0384   -0.2727   -1.0689 O   0  0  0  0  0  0  0  0  0  0  0  0
   -2.6736   -0.7832   -0.8720 C   0  0  0  0  0  0  0  0  0  0  0  0
   -1.3733   -0.4722   -0.4816 C   0  0  0  0  0  0  0  0  0  0  0  0
   -0.2942   -1.4358   -0.7402 C   0  0  1  0  0  0  0  0  0  0  0  0
   -0.2470   -1.8273   -2.2188 C   0  0  0  0  0  0  0  0  0  0  0  0
   -0.6227   -2.6203   -0.0528 O   0  0  0  0  0  0  0  0  0  0  0  0
  1  2  1  0
  2  3  2  0
  3  4  1  0
  4  5  2  0
  5  6  1  0
  6  7  2  0
  7  8  1  0
  6  9  1  0
  9 10  2  0
  9 11  1  0
 11 12  2  0
 12 13  1  0
 12 14  1  0
 14 15  2  0
 15 16  1  0
 15 17  1  0
 17 18  2  0
 18 19  1  0
 19 20  1  6
 19 21  1  0
  7  2  1  0
 18 11  1  0
 19  5  1  0
M  END
>  <zinc_id>  (1) 
ZINC000000005909

>  <smiles>  (1) 
Cc1ccc2c(c1O)C(=O)c1c(C)cc(O)cc1[C@]2(C)O

$$$$
