
     RDKit          3D

 21 23  0  0  0  0  0  0  0  0999 V2000
    3.3900    2.0426    1.1519 C   0  0  0  0  0  0  0  0  0  0  0  0
    3.2892    0.7093    0.4796 C   0  0  2  0  0  0  0  0  0  0  0  0
    4.5211   -0.0986    0.7737 C   0  0  0  0  0  0  0  0  0  0  0  0
    5.8685    0.4214    0.3551 C   0  0  0  0  0  0  0  0  0  0  0  0
    5.2562   -0.6992   -0.4636 C   0  0  0  0  0  0  0  0  0  0  0  0
    2.9735    0.7860   -0.9210 N   0  0  0  0  0  0  0  0  0  0  0  0
    1.5579    0.6020   -1.1178 C   0  0  0  0  0  0  0  0  0  0  0  0
    0.9557    0.8633   -2.1961 O   0  0  0  0  0  0  0  0  0  0  0  0
    1.0553    0.0953    0.1045 N   0  0  0  0  0  0  0  0  0  0  0  0
   -0.3307   -0.2398    0.3657 C   0  0  0  0  0  0  0  0  0  0  0  0
   -1.0865    0.9336    0.9088 C   0  0  0  0  0  0  0  0  0  0  0  0
   -2.4214    0.5698    1.1482 O   0  0  0  0  0  0  0  0  0  0  0  0
   -3.1896    0.1236    0.0813 C   0  0  0  0  0  0  0  0  0  0  0  0
   -2.7288    0.0131   -1.2026 C   0  0  0  0  0  0  0  0  0  0  0  0
   -3.5760   -0.4415   -2.1889 C   0  0  0  0  0  0  0  0  0  0  0  0
   -4.8812   -0.7889   -1.9127 C   0  0  0  0  0  0  0  0  0  0  0  0
   -5.3369   -0.6730   -0.6092 C   0  0  0  0  0  0  0  0  0  0  0  0
   -4.5078   -0.2216    0.3889 C   0  0  0  0  0  0  0  0  0  0  0  0
   -4.9754   -0.1130    1.6731 F   0  0  0  0  0  0  0  0  0  0  0  0
    2.1177   -0.0400    1.0530 C   0  0  0  0  0  0  0  0  0  0  0  0
    2.0491   -0.6618    2.1281 O   0  0  0  0  0  0  0  0  0  0  0  0
  2  1  1  1
  2  3  1  0
  3  4  1  0
  4  5  1  0
  2  6  1  0
  6  7  1  0
  7  8  2  0
  7  9  1  0
  9 10  1  0
 10 11  1  0
 11 12  1  0
 12 13  1  0
 13 14  2  0
 14 15  1  0
 15 16  2  0
 16 17  1  0
 17 18  2  0
 18 19  1  0
  9 20  1  0
 20 21  2  0
 20  2  1  0
  5  3  1  0
 18 13  1  0
M  END
>  <zinc_id>  (1) 
ZINC000003440753

>  <smiles>  (1) 
C[C@]1(C2CC2)NC(=O)N(CCOc2ccccc2F)C1=O

$$$$
