
     RDKit          3D

 19 20  0  0  0  0  0  0  0  0999 V2000
    4.5273    2.8966    0.6512 C   0  0  0  0  0  0  0  0  0  0  0  0
    3.6137    1.7525    0.4032 C   0  0  0  0  0  0  0  0  0  0  0  0
    2.2544    1.8281    0.3556 C   0  0  0  0  0  0  0  0  0  0  0  0
    1.4407    0.7423    0.1227 C   0  0  0  0  0  0  0  0  0  0  0  0
    2.0013   -0.4965   -0.0760 C   0  0  0  0  0  0  0  0  0  0  0  0
    1.2000   -1.6334   -0.3176 N   0  0  0  0  0  0  0  0  0  0  0  0
   -0.2293   -1.5680   -0.3703 C   0  0  0  0  0  0  0  0  0  0  0  0
   -0.9804   -2.6615   -0.6018 N   0  0  0  0  0  0  0  0  0  0  0  0
   -2.3190   -2.6256   -0.6558 C   0  0  0  0  0  0  0  0  0  0  0  0
   -3.2786   -4.0493   -0.9564 Cl  0  0  0  0  0  0  0  0  0  0  0  0
   -2.9509   -1.4580   -0.4733 N   0  0  0  0  0  0  0  0  0  0  0  0
   -2.2262   -0.3385   -0.2383 C   0  0  0  0  0  0  0  0  0  0  0  0
   -2.9286    0.8724   -0.0512 N   0  0  0  0  0  0  0  0  0  0  0  0
   -2.1751    2.0916    0.2032 C   0  0  0  0  0  0  0  0  0  0  0  0
   -3.1413    3.2593    0.3706 C   0  0  0  0  0  0  0  0  0  0  0  0
   -1.4627    1.8994    1.5299 C   0  0  0  0  0  0  0  0  0  0  0  0
   -0.8800   -0.4054   -0.1896 N   0  0  0  0  0  0  0  0  0  0  0  0
    3.3713   -0.6041   -0.0336 C   0  0  0  0  0  0  0  0  0  0  0  0
    4.1633    0.4983    0.2013 C   0  0  0  0  0  0  0  0  0  0  0  0
  1  2  1  0
  2  3  2  0
  3  4  1  0
  4  5  2  0
  5  6  1  0
  6  7  1  0
  7  8  2  0
  8  9  1  0
  9 10  1  0
  9 11  2  0
 11 12  1  0
 12 13  1  0
 13 14  1  0
 14 15  1  0
 14 16  1  0
 12 17  2  0
  5 18  1  0
 18 19  2  0
 19  2  1  0
 17  7  1  0
M  END
>  <zinc_id>  (1) 
ZINC000000291349

>  <smiles>  (1) 
Cc1ccc(Nc2nc(Cl)nc(NC(C)C)n2)cc1

$$$$
