
     RDKit          3D

 31 34  0  0  0  0  0  0  0  0999 V2000
    5.0541   -0.7806    2.3763 C   0  0  0  0  0  0  0  0  0  0  0  0
    5.8398    0.3552    1.7585 C   0  0  0  0  0  0  0  0  0  0  0  0
    5.8606    0.1387    0.3634 O   0  0  0  0  0  0  0  0  0  0  0  0
    4.6739    0.0834   -0.3509 C   0  0  0  0  0  0  0  0  0  0  0  0
    3.4664    0.2394    0.2956 C   0  0  0  0  0  0  0  0  0  0  0  0
    2.3048    0.1793   -0.4418 C   0  0  0  0  0  0  0  0  0  0  0  0
    2.3542   -0.0327   -1.7987 C   0  0  0  0  0  0  0  0  0  0  0  0
    1.1634   -0.1017   -2.6032 N   0  0  0  0  0  0  0  0  0  0  0  0
   -0.0720    0.0615   -1.9191 C   0  0  0  0  0  0  0  0  0  0  0  0
   -0.6502   -0.7945   -1.0902 C   0  0  0  0  0  0  0  0  0  0  0  0
    0.0804   -2.3723   -0.6867 S   0  0  0  0  0  0  0  0  0  0  0  0
   -0.9393   -3.2942    0.4544 C   0  0  0  0  0  0  0  0  0  0  0  0
   -1.9157   -4.1585    0.0016 C   0  0  0  0  0  0  0  0  0  0  0  0
   -2.6983   -4.8664    0.9118 C   0  0  0  0  0  0  0  0  0  0  0  0
   -2.5185   -4.7222    2.2591 C   0  0  0  0  0  0  0  0  0  0  0  0
   -1.5537   -3.8686    2.7364 C   0  0  0  0  0  0  0  0  0  0  0  0
   -0.7885   -3.1761    1.8212 C   0  0  0  0  0  0  0  0  0  0  0  0
   -1.8967   -0.2449   -0.6101 C   0  0  0  0  0  0  0  0  0  0  0  0
   -2.7016   -0.8018    0.1975 O   0  0  0  0  0  0  0  0  0  0  0  0
   -2.0552    1.0230   -1.2025 N   0  0  0  0  0  0  0  0  0  0  0  0
   -3.1725    1.9214   -0.9934 C   0  0  0  0  0  0  0  0  0  0  0  0
   -2.9402    2.8469    0.1481 C   0  0  0  0  0  0  0  0  0  0  0  0
   -3.3436    2.4459    1.3942 C   0  0  0  0  0  0  0  0  0  0  0  0
   -3.1543    3.2584    2.4811 C   0  0  0  0  0  0  0  0  0  0  0  0
   -2.5577    4.4823    2.3266 C   0  0  0  0  0  0  0  0  0  0  0  0
   -2.1440    4.9094    1.0914 C   0  0  0  0  0  0  0  0  0  0  0  0
   -2.3459    4.0720    0.0106 C   0  0  0  0  0  0  0  0  0  0  0  0
   -0.9256    1.2399   -2.0277 C   0  0  0  0  0  0  0  0  0  0  0  0
   -0.6988    2.2769   -2.7353 O   0  0  0  0  0  0  0  0  0  0  0  0
    3.5630   -0.1891   -2.4479 C   0  0  0  0  0  0  0  0  0  0  0  0
    4.7118   -0.1300   -1.7201 C   0  0  0  0  0  0  0  0  0  0  0  0
  1  2  1  0
  2  3  1  0
  3  4  1  0
  4  5  2  0
  5  6  1  0
  6  7  2  0
  7  8  1  0
  8  9  1  0
  9 10  2  0
 10 11  1  0
 11 12  1  0
 12 13  2  0
 13 14  1  0
 14 15  2  0
 15 16  1  0
 16 17  2  0
 10 18  1  0
 18 19  2  0
 18 20  1  0
 20 21  1  0
 21 22  1  0
 22 23  2  0
 23 24  1  0
 24 25  2  0
 25 26  1  0
 26 27  2  0
 20 28  1  0
 28 29  2  0
  7 30  1  0
 30 31  2  0
 31  4  1  0
 28  9  1  0
 17 12  1  0
 27 22  1  0
M  END
>  <zinc_id>  (1) 
ZINC000001932212

>  <smiles>  (1) 
CCOc1ccc(NC2=C(Sc3ccccc3)C(=O)N(Cc3ccccc3)C2=O)cc1

$$$$
