
     RDKit          3D

 18 19  0  0  0  0  0  0  0  0999 V2000
    6.1270    0.3540   -0.1826 C   0  0  0  0  0  0  0  0  0  0  0  0
    4.6644    0.1336    0.0019 C   0  0  0  0  0  0  0  0  0  0  0  0
    3.7409    0.7441   -0.8354 C   0  0  0  0  0  0  0  0  0  0  0  0
    2.3810    0.5625   -0.6935 C   0  0  0  0  0  0  0  0  0  0  0  0
    1.8907   -0.2497    0.3077 C   0  0  0  0  0  0  0  0  0  0  0  0
    0.4815   -0.4509    0.4714 N   0  0  0  0  0  0  0  0  0  0  0  0
   -0.4098    0.2048   -0.4213 C   0  0  0  0  0  0  0  0  0  0  0  0
    0.0956    0.9439   -1.3286 O   0  0  0  0  0  0  0  0  0  0  0  0
   -1.8487    0.0655   -0.3384 C   0  0  0  0  0  0  0  0  0  0  0  0
   -2.4139   -0.7236    0.6285 C   0  0  0  0  0  0  0  0  0  0  0  0
   -3.7779   -0.8979    0.7610 C   0  0  0  0  0  0  0  0  0  0  0  0
   -4.4018   -1.7488    1.8027 C   0  0  0  0  0  0  0  0  0  0  0  0
   -4.5871   -0.2397   -0.1295 C   0  0  0  0  0  0  0  0  0  0  0  0
   -4.0484    0.5580   -1.1091 C   0  0  0  0  0  0  0  0  0  0  0  0
   -2.6737    0.7174   -1.2219 C   0  0  0  0  0  0  0  0  0  0  0  0
   -2.1699    1.5597   -2.2606 N   0  0  0  0  0  0  0  0  0  0  0  0
    2.7950   -0.8580    1.1410 C   0  0  0  0  0  0  0  0  0  0  0  0
    4.1550   -0.6747    0.9970 C   0  0  0  0  0  0  0  0  0  0  0  0
  1  2  1  0
  2  3  2  0
  3  4  1  0
  4  5  2  0
  5  6  1  0
  6  7  1  0
  7  8  2  0
  7  9  1  0
  9 10  2  0
 10 11  1  0
 11 12  1  0
 11 13  2  0
 13 14  1  0
 14 15  2  0
 15 16  1  0
  5 17  1  0
 17 18  2  0
 18  2  1  0
 15  9  1  0
M  END
>  <zinc_id>  (1) 
ZINC000000100029

>  <smiles>  (1) 
Cc1ccc(NC(=O)c2cc(C)ccc2N)cc1

$$$$
