
     RDKit          3D

 20 22  0  0  0  0  0  0  0  0999 V2000
    5.3908   -0.5825   -1.3200 C   0  0  0  0  0  0  0  0  0  0  0  0
    4.7096    0.4702   -0.5019 C   0  0  0  0  0  0  0  0  0  0  0  0
    4.7083    1.7613   -1.3002 C   0  0  0  0  0  0  0  0  0  0  0  0
    3.3186    0.1119   -0.1736 C   0  0  0  0  0  0  0  0  0  0  0  0
    2.4458    1.0293    0.3501 C   0  0  0  0  0  0  0  0  0  0  0  0
    1.1417    0.6668    0.6505 C   0  0  0  0  0  0  0  0  0  0  0  0
    0.6904   -0.6077    0.4349 C   0  0  0  0  0  0  0  0  0  0  0  0
   -0.7110   -1.0273    0.7495 C   0  0  0  0  0  0  0  0  0  0  0  0
   -0.8859   -2.1640    1.4925 C   0  0  0  0  0  0  0  0  0  0  0  0
   -2.5715   -2.2865    1.6482 S   0  0  0  0  0  0  0  0  0  0  0  0
   -3.0272   -0.9007    0.7722 C   0  0  0  0  0  0  0  0  0  0  0  0
   -4.2352   -0.3399    0.4600 N   0  0  0  0  0  0  0  0  0  0  0  0
   -4.3019    0.7916   -0.2741 C   0  0  0  0  0  0  0  0  0  0  0  0
   -3.1533    1.3507   -0.6888 N   0  0  0  0  0  0  0  0  0  0  0  0
   -3.2187    2.5414   -1.4619 N   0  0  0  0  0  0  0  0  0  0  0  0
   -1.9661    0.8134   -0.3909 C   0  0  0  0  0  0  0  0  0  0  0  0
   -0.9601    1.4300   -0.8382 O   0  0  0  0  0  0  0  0  0  0  0  0
   -1.8418   -0.3665    0.3728 C   0  0  0  0  0  0  0  0  0  0  0  0
    1.5757   -1.5191   -0.0910 C   0  0  0  0  0  0  0  0  0  0  0  0
    2.8918   -1.1724   -0.3995 C   0  0  0  0  0  0  0  0  0  0  0  0
  1  2  1  0
  2  3  1  0
  2  4  1  0
  4  5  2  0
  5  6  1  0
  6  7  2  0
  7  8  1  0
  8  9  2  0
  9 10  1  0
 10 11  1  0
 11 12  1  0
 12 13  2  0
 13 14  1  0
 14 15  1  0
 14 16  1  0
 16 17  2  0
 16 18  1  0
  7 19  1  0
 19 20  2  0
 20  4  1  0
 18  8  1  0
 18 11  2  0
M  END
>  <zinc_id>  (1) 
ZINC000000038124

>  <smiles>  (1) 
CC(C)c1ccc(-c2csc3ncn(N)c(=O)c23)cc1

$$$$
