
     RDKit          3D

 32 35  0  0  0  0  0  0  0  0999 V2000
    7.3167   -2.4679    0.9919 C   0  0  0  0  0  0  0  0  0  0  0  0
    7.8723   -1.0668    1.2789 C   0  0  0  0  0  0  0  0  0  0  0  0
    7.2495   -0.1952    0.3737 O   0  0  0  0  0  0  0  0  0  0  0  0
    5.8660   -0.0010    0.3112 C   0  0  0  0  0  0  0  0  0  0  0  0
    5.4054    0.8764   -0.6185 C   0  0  0  0  0  0  0  0  0  0  0  0
    4.0358    1.0767   -0.6897 C   0  0  0  0  0  0  0  0  0  0  0  0
    3.1629    0.4176    0.1449 C   0  0  0  0  0  0  0  0  0  0  0  0
    1.7717    0.6643    0.0231 N   0  0  0  0  0  0  0  0  0  0  0  0
    0.7924   -0.2275   -0.5243 C   0  0  0  0  0  0  0  0  0  0  0  0
    1.0625   -1.3755   -0.9746 O   0  0  0  0  0  0  0  0  0  0  0  0
   -0.5187    0.4404   -0.4541 C   0  0  0  0  0  0  0  0  0  0  0  0
   -1.6699   -0.2000   -0.9169 N   0  0  0  0  0  0  0  0  0  0  0  0
   -2.1553   -1.4353   -0.4087 C   0  0  0  0  0  0  0  0  0  0  0  0
   -1.4565   -1.9698    0.6795 C   0  0  0  0  0  0  0  0  0  0  0  0
   -1.8416   -3.1447    1.2581 C   0  0  0  0  0  0  0  0  0  0  0  0
   -2.9318   -3.8280    0.7775 C   0  0  0  0  0  0  0  0  0  0  0  0
   -3.6220   -3.2974   -0.2995 C   0  0  0  0  0  0  0  0  0  0  0  0
   -4.8121   -3.9740   -0.8775 C   0  0  0  0  0  0  0  0  0  0  0  0
   -3.2314   -2.0968   -0.8941 C   0  0  0  0  0  0  0  0  0  0  0  0
   -3.9647   -1.5455   -2.0484 C   0  0  0  0  0  0  0  0  0  0  0  0
   -0.4058    1.6231    0.0740 C   0  0  0  0  0  0  0  0  0  0  0  0
   -1.5759    2.9042    0.4319 S   0  0  0  0  0  0  0  0  0  0  0  0
   -3.2190    2.5994   -0.0448 C   0  0  0  0  0  0  0  0  0  0  0  0
   -4.1222    3.6411    0.2681 C   0  0  0  0  0  0  0  0  0  0  0  0
   -5.4352    3.5926   -0.0242 C   0  0  0  0  0  0  0  0  0  0  0  0
   -5.9687    2.4951   -0.6578 C   0  0  0  0  0  0  0  0  0  0  0  0
   -5.0981    1.4585   -0.9746 C   0  0  0  0  0  0  0  0  0  0  0  0
   -3.7574    1.5256   -0.6681 C   0  0  0  0  0  0  0  0  0  0  0  0
    1.0341    1.8115    0.3951 C   0  0  0  0  0  0  0  0  0  0  0  0
    1.5550    2.8250    0.9191 O   0  0  0  0  0  0  0  0  0  0  0  0
    3.6511   -0.4543    1.0655 C   0  0  0  0  0  0  0  0  0  0  0  0
    5.0111   -0.6720    1.1573 C   0  0  0  0  0  0  0  0  0  0  0  0
  1  2  1  0
  2  3  1  0
  3  4  1  0
  4  5  2  0
  5  6  1  0
  6  7  2  0
  7  8  1  0
  8  9  1  0
  9 10  2  0
  9 11  1  0
 11 12  1  0
 12 13  1  0
 13 14  2  0
 14 15  1  0
 15 16  2  0
 16 17  1  0
 17 18  1  0
 17 19  2  0
 19 20  1  0
 11 21  2  0
 21 22  1  0
 22 23  1  0
 23 24  2  0
 24 25  1  0
 25 26  2  0
 26 27  1  0
 27 28  2  0
 21 29  1  0
 29 30  2  0
  7 31  1  0
 31 32  2  0
 32  4  1  0
 29  8  1  0
 19 13  1  0
 28 23  1  0
M  END
>  <zinc_id>  (1) 
ZINC000001928663

>  <smiles>  (1) 
CCOc1ccc(N2C(=O)C(Nc3cccc(C)c3C)=C(Sc3ccccc3)C2=O)cc1

$$$$
