
     RDKit          3D

 22 25  0  0  0  0  0  0  0  0999 V2000
   -0.4716   -0.2165    1.4785 O   0  0  0  0  0  0  0  0  0  0  0  0
    0.1469   -0.0889    0.3923 C   0  0  0  0  0  0  0  0  0  0  0  0
   -0.6285    0.0343   -0.7792 N   0  0  0  0  0  0  0  0  0  0  0  0
   -2.0751    0.0148   -0.7325 C   0  0  0  0  0  0  0  0  0  0  0  0
   -2.5869   -1.2967   -0.1447 C   0  0  0  0  0  0  0  0  0  0  0  0
   -4.1033   -1.2313   -0.1971 C   0  0  0  0  0  0  0  0  0  0  0  0
   -4.5772   -0.0130    0.5851 C   0  0  0  0  0  0  0  0  0  0  0  0
   -4.0650    1.2622   -0.0315 C   0  0  0  0  0  0  0  0  0  0  0  0
   -4.4936    1.3631   -1.4872 C   0  0  0  0  0  0  0  0  0  0  0  0
   -4.0601    0.1277   -2.2668 C   0  0  0  0  0  0  0  0  0  0  0  0
   -4.5946   -1.1353   -1.6281 C   0  0  0  0  0  0  0  0  0  0  0  0
   -2.5530    0.0713   -2.1835 C   0  0  0  0  0  0  0  0  0  0  0  0
   -2.5408    1.2073    0.0542 C   0  0  0  0  0  0  0  0  0  0  0  0
    1.5960   -0.0646    0.3028 C   0  0  0  0  0  0  0  0  0  0  0  0
    2.4139   -0.1801    1.4067 C   0  0  0  0  0  0  0  0  0  0  0  0
    3.8071   -0.1507    1.2674 C   0  0  0  0  0  0  0  0  0  0  0  0
    4.3691   -0.0056    0.0209 C   0  0  0  0  0  0  0  0  0  0  0  0
    5.7705    0.0231   -0.1113 N   0  0  0  0  0  4  0  0  0  0  0  0
    6.5151   -0.0796    0.8716 O   0  0  0  0  0  0  0  0  0  0  0  0
    6.3564    0.1688   -1.3619 O   0  0  0  0  0  1  0  0  0  0  0  0
    3.5713    0.1110   -1.0906 C   0  0  0  0  0  0  0  0  0  0  0  0
    2.2035    0.0786   -0.9225 C   0  0  0  0  0  0  0  0  0  0  0  0
  1  2  2  0
  2  3  1  0
  3  4  1  0
  4  5  1  0
  5  6  1  0
  6  7  1  0
  7  8  1  0
  8  9  1  0
  9 10  1  0
 10 11  1  0
 10 12  1  0
  8 13  1  0
  2 14  1  0
 14 15  2  0
 15 16  1  0
 16 17  2  0
 17 18  1  0
 18 19  2  0
 18 20  1  0
 17 21  1  0
 21 22  2  0
 12  4  1  0
 22 14  1  0
 13  4  1  0
 11  6  1  0
M  CHG  2  18   1  20  -1
M  END
>  <zinc_id>  (1) 
ZINC000003895516

>  <smiles>  (1) 
O=C(NC12CC3CC(CC(C3)C1)C2)c1ccc([N+](=O)[O-])cc1

$$$$
