
     RDKit          3D

 33 37  0  0  0  0  0  0  0  0999 V2000
   -1.4987   -5.3409    1.7176 C   0  0  0  0  0  0  0  0  0  0  0  0
   -0.9803   -4.0740    1.1423 C   0  0  0  0  0  0  0  0  0  0  0  0
    0.3499   -3.9968    0.7853 C   0  0  0  0  0  0  0  0  0  0  0  0
    0.8139   -2.8076    0.2509 C   0  0  0  0  0  0  0  0  0  0  0  0
    2.2365   -2.6321   -0.1637 C   0  0  0  0  0  0  0  0  0  0  0  0
   -0.0189   -1.7226    0.0746 C   0  0  0  0  0  0  0  0  0  0  0  0
   -1.3548   -1.8501    0.4507 C   0  0  0  0  0  0  0  0  0  0  0  0
   -1.8632   -3.0275    0.9920 C   0  0  0  0  0  0  0  0  0  0  0  0
   -1.9542   -0.6372    0.1712 C   0  0  0  0  0  0  0  0  0  0  0  0
   -3.3628   -0.3692    0.4256 C   0  0  0  0  0  0  0  0  0  0  0  0
   -3.7961    0.5989    1.3079 C   0  0  0  0  0  0  0  0  0  0  0  0
   -5.1677    0.8003    1.5023 C   0  0  0  0  0  0  0  0  0  0  0  0
   -6.1187    0.0653    0.8430 C   0  0  0  0  0  0  0  0  0  0  0  0
   -5.6791   -0.8897   -0.0275 C   0  0  0  0  0  0  0  0  0  0  0  0
   -4.3379   -1.0895   -0.2202 C   0  0  0  0  0  0  0  0  0  0  0  0
   -0.9891    0.1872   -0.3590 C   0  0  0  0  0  0  0  0  0  0  0  0
   -1.2320    1.5512   -0.8024 C   0  0  0  0  0  0  0  0  0  0  0  0
   -1.7520    2.5048    0.0392 C   0  0  0  0  0  0  0  0  0  0  0  0
   -1.9916    3.7810   -0.3340 C   0  0  0  0  0  0  0  0  0  0  0  0
   -1.7170    4.1839   -1.6027 C   0  0  0  0  0  0  0  0  0  0  0  0
   -1.1966    3.2755   -2.4868 C   0  0  0  0  0  0  0  0  0  0  0  0
   -0.9511    1.9640   -2.1007 C   0  0  0  0  0  0  0  0  0  0  0  0
    0.1768   -0.4618   -0.4188 N   0  0  0  0  0  0  0  0  0  0  0  0
    1.4487   -0.0028   -0.8917 C   0  0  0  0  0  0  0  0  0  0  0  0
    2.2837    0.6094    0.3653 C   0  0  2  0  0  0  0  0  0  0  0  0
    1.2639    1.6655    0.6759 O   0  0  0  0  0  0  0  0  0  0  0  0
    3.1756    1.6064   -0.5790 C   0  0  0  0  0  0  0  0  0  0  0  0
    4.2904    0.7830   -1.0338 N   0  0  0  0  0  0  0  0  0  0  0  0
    5.1496    1.5653   -1.8846 C   0  0  0  0  0  0  0  0  0  0  0  0
    6.5773    1.0077   -1.8615 C   0  0  0  0  0  0  0  0  0  0  0  0
    7.1672    1.2250   -0.4552 C   0  0  0  0  0  0  0  0  0  0  0  0
    6.0274    1.2783    0.5608 C   0  0  0  0  0  0  0  0  0  0  0  0
    5.0009    0.2489    0.1094 C   0  0  0  0  0  0  0  0  0  0  0  0
  1  2  1  0
  2  3  2  0
  3  4  1  0
  4  5  1  0
  4  6  2  0
  6  7  1  0
  7  8  2  0
  7  9  1  0
  9 10  1  0
 10 11  2  0
 11 12  1  0
 12 13  2  0
 13 14  1  0
 14 15  2  0
  9 16  2  0
 16 17  1  0
 17 18  2  0
 18 19  1  0
 19 20  2  0
 20 21  1  0
 21 22  2  0
 16 23  1  0
 23 24  1  0
 24 25  1  0
 25 26  1  1
 25 27  1  0
 27 28  1  0
 28 29  1  0
 29 30  1  0
 30 31  1  0
 31 32  1  0
 32 33  1  0
  8  2  1  0
 15 10  1  0
 22 17  1  0
 33 28  1  0
 23  6  1  0
M  END
>  <zinc_id>  (1) 
ZINC000002083383

>  <smiles>  (1) 
Cc1cc(C)c2c(c1)c(-c1ccccc1)c(-c1ccccc1)n2C[C@H](O)CN1CCCCC1

$$$$
