
     RDKit          3D

 30 33  0  0  0  0  0  0  0  0999 V2000
    9.1466   -1.1971   -0.8109 C   0  0  0  0  0  0  0  0  0  0  0  0
    8.7663   -1.8134    0.5013 C   0  0  0  0  0  0  0  0  0  0  0  0
    7.2945   -1.5539    0.7411 C   0  0  0  0  0  0  0  0  0  0  0  0
    6.5250   -2.1869   -0.3930 C   0  0  0  0  0  0  0  0  0  0  0  0
    5.1420   -2.0192   -0.2925 O   0  0  0  0  0  0  0  0  0  0  0  0
    4.5835   -0.7422   -0.2710 C   0  0  0  0  0  0  0  0  0  0  0  0
    5.3895    0.3702   -0.3487 C   0  0  0  0  0  0  0  0  0  0  0  0
    4.8621    1.6313   -0.3293 C   0  0  0  0  0  0  0  0  0  0  0  0
    3.4924    1.7808   -0.2295 C   0  0  0  0  0  0  0  0  0  0  0  0
    2.6450    0.6962   -0.1491 C   0  0  0  0  0  0  0  0  0  0  0  0
    1.2055    0.8850   -0.0447 C   0  0  0  0  0  0  0  0  0  0  0  0
    0.4681   -0.1454    0.0268 O   0  0  0  0  0  0  0  0  0  0  0  0
    0.5739    2.1361   -0.0175 N   0  0  0  0  0  0  0  0  0  0  0  0
   -0.8455    2.2922    0.0860 C   0  0  0  0  0  0  0  0  0  0  0  0
   -1.6615    1.1562    0.1651 C   0  0  0  0  0  0  0  0  0  0  0  0
   -3.0260    1.3160    0.2645 C   0  0  0  0  0  0  0  0  0  0  0  0
   -3.8654    0.1112    0.3465 C   0  0  0  0  0  0  0  0  0  0  0  0
   -5.1594   -0.0228    0.4454 N   0  0  0  0  0  0  0  0  0  0  0  0
   -5.7111   -1.1973    0.5054 C   0  0  0  0  0  0  0  0  0  0  0  0
   -7.0811   -1.4959    0.6126 C   0  0  0  0  0  0  0  0  0  0  0  0
   -7.5568   -2.7589    0.6684 C   0  0  0  0  0  0  0  0  0  0  0  0
   -6.7311   -3.8463    0.6240 C   0  0  0  0  0  0  0  0  0  0  0  0
   -5.3775   -3.5986    0.5188 C   0  0  0  0  0  0  0  0  0  0  0  0
   -4.8822   -2.2877    0.4608 C   0  0  0  0  0  0  0  0  0  0  0  0
   -3.3473   -1.5396    0.3341 S   0  0  0  0  0  0  0  0  0  0  0  0
   -3.5367    2.5765    0.2825 C   0  0  0  0  0  0  0  0  0  0  0  0
   -2.7320    3.7135    0.2043 C   0  0  0  0  0  0  0  0  0  0  0  0
   -1.3713    3.5671    0.1049 C   0  0  0  0  0  0  0  0  0  0  0  0
   -0.4340    4.7253    0.0164 C   0  0  0  0  0  0  0  0  0  0  0  0
    3.2240   -0.5523   -0.1726 C   0  0  0  0  0  0  0  0  0  0  0  0
  1  2  1  0
  2  3  1  0
  3  4  1  0
  4  5  1  0
  5  6  1  0
  6  7  2  0
  7  8  1  0
  8  9  2  0
  9 10  1  0
 10 11  1  0
 11 12  2  0
 11 13  1  0
 13 14  1  0
 14 15  2  0
 15 16  1  0
 16 17  1  0
 17 18  2  0
 18 19  1  0
 19 20  2  0
 20 21  1  0
 21 22  2  0
 22 23  1  0
 23 24  2  0
 24 25  1  0
 16 26  2  0
 26 27  1  0
 27 28  2  0
 28 29  1  0
 10 30  2  0
 30  6  1  0
 28 14  1  0
 25 17  1  0
 24 19  1  0
M  END
>  <zinc_id>  (1) 
ZINC000002059415

>  <smiles>  (1) 
CCCCOc1cccc(C(=O)Nc2cc(-c3nc4ccccc4s3)ccc2C)c1

$$$$
