
     RDKit          3D

 19 20  0  0  0  0  0  0  0  0999 V2000
   -4.7715   -1.8668   -0.3352 C   0  0  0  0  0  0  0  0  0  0  0  0
   -3.8177   -0.7755   -0.1211 C   0  0  0  0  0  0  0  0  0  0  0  0
   -4.2822    0.4828    0.1725 C   0  0  0  0  0  0  0  0  0  0  0  0
   -5.6529    0.6781    0.2569 O   0  0  0  0  0  0  0  0  0  0  0  0
   -3.3593    1.4838    0.3674 C   0  0  0  0  0  0  0  0  0  0  0  0
   -2.0027    1.2283    0.2701 C   0  0  0  0  0  0  0  0  0  0  0  0
   -1.5438   -0.0387   -0.0253 C   0  0  0  0  0  0  0  0  0  0  0  0
   -0.1303   -0.3165   -0.1293 N   0  0  0  0  0  0  0  0  0  0  0  0
    0.8368    0.6992    0.0676 C   0  0  0  0  0  0  0  0  0  0  0  0
    0.4305    1.8533    0.3364 O   0  0  0  0  0  0  0  0  0  0  0  0
    2.2597    0.3994   -0.0416 C   0  0  0  0  0  0  0  0  0  0  0  0
    3.2361    1.3574    0.1424 C   0  0  0  0  0  0  0  0  0  0  0  0
    4.5841    1.0812    0.0407 C   0  0  0  0  0  0  0  0  0  0  0  0
    5.0192   -0.1942   -0.2560 C   0  0  0  0  0  0  0  0  0  0  0  0
    6.8858   -0.5912   -0.4000 Br  0  0  0  0  0  0  0  0  0  0  0  0
    4.0553   -1.1632   -0.4427 C   0  0  0  0  0  0  0  0  0  0  0  0
    2.7108   -0.8713   -0.3377 C   0  0  0  0  0  0  0  0  0  0  0  0
   -2.4661   -1.0311   -0.2184 C   0  0  0  0  0  0  0  0  0  0  0  0
   -1.9917   -2.4151   -0.5402 C   0  0  0  0  0  0  0  0  0  0  0  0
  1  2  1  0
  2  3  2  0
  3  4  1  0
  3  5  1  0
  5  6  2  0
  6  7  1  0
  7  8  1  0
  8  9  1  0
  9 10  2  0
  9 11  1  0
 11 12  2  0
 12 13  1  0
 13 14  2  0
 14 15  1  0
 14 16  1  0
 16 17  2  0
  7 18  2  0
 18 19  1  0
 18  2  1  0
 17 11  1  0
M  END
>  <zinc_id>  (1) 
ZINC000000052758

>  <smiles>  (1) 
Cc1c(O)ccc(NC(=O)c2ccc(Br)cc2)c1C

$$$$
