
     RDKit          3D

 31 34  0  0  0  0  0  0  0  0999 V2000
    4.3885   -2.7606   -2.0220 C   0  0  0  0  0  0  0  0  0  0  0  0
    4.4490   -2.7335   -0.5091 C   0  0  0  0  0  0  0  0  0  0  0  0
    4.9529   -1.4867    0.0010 N   0  0  0  0  0  0  0  0  0  0  0  0
    6.3606   -1.2810    0.2303 C   0  0  0  0  0  0  0  0  0  0  0  0
    6.7172   -1.6929    1.6418 C   0  0  0  0  0  0  0  0  0  0  0  0
    4.0460   -0.4332    0.2861 C   0  0  0  0  0  0  0  0  0  0  0  0
    4.4775    0.6584    0.7317 O   0  0  0  0  0  0  0  0  0  0  0  0
    2.6047   -0.6071    0.0646 C   0  0  0  0  0  0  0  0  0  0  0  0
    1.8575   -2.0056   -0.5275 S   0  0  0  0  0  0  0  0  0  0  0  0
    0.2245   -1.4668   -0.5099 C   0  0  0  0  0  0  0  0  0  0  0  0
   -0.9552   -2.0680   -0.8668 N   0  0  0  0  0  0  0  0  0  0  0  0
   -2.1349   -1.4390   -0.7748 C   0  0  0  0  0  0  0  0  0  0  0  0
   -3.3921   -2.0767   -1.1548 C   0  0  0  0  0  0  0  0  0  0  0  0
   -3.4436   -3.3682   -1.6329 C   0  0  0  0  0  0  0  0  0  0  0  0
   -4.6356   -3.9669   -1.9911 C   0  0  0  0  0  0  0  0  0  0  0  0
   -5.8292   -3.2835   -1.8808 C   0  0  0  0  0  0  0  0  0  0  0  0
   -5.7775   -1.9924   -1.4028 C   0  0  0  0  0  0  0  0  0  0  0  0
   -4.5849   -1.3949   -1.0450 C   0  0  0  0  0  0  0  0  0  0  0  0
   -2.0575   -0.1599   -0.2982 C   0  0  0  0  0  0  0  0  0  0  0  0
   -0.8982    0.4944    0.0764 C   0  0  0  0  0  0  0  0  0  0  0  0
   -0.9612    1.8554    0.6039 C   0  0  0  0  0  0  0  0  0  0  0  0
   -1.6138    2.7706   -0.2330 C   0  0  0  0  0  0  0  0  0  0  0  0
   -1.7390    4.0510    0.2113 C   0  0  0  0  0  0  0  0  0  0  0  0
   -1.2635    4.4746    1.4182 C   0  0  0  0  0  0  0  0  0  0  0  0
   -1.4177    5.7898    1.8221 O   0  0  0  0  0  0  0  0  0  0  0  0
   -2.0795    6.6812    0.9531 C   0  0  0  0  0  0  0  0  0  0  0  0
   -0.6184    3.5459    2.2323 C   0  0  0  0  0  0  0  0  0  0  0  0
   -0.4694    2.2415    1.8236 C   0  0  0  0  0  0  0  0  0  0  0  0
    0.3252   -0.1927   -0.0333 C   0  0  0  0  0  0  0  0  0  0  0  0
    1.5695    0.2573    0.2666 C   0  0  0  0  0  0  0  0  0  0  0  0
    1.8982    1.5893    0.7701 N   0  0  0  0  0  0  0  0  0  0  0  0
  1  2  1  0
  2  3  1  0
  3  4  1  0
  4  5  1  0
  3  6  1  0
  6  7  2  0
  6  8  1  0
  8  9  1  0
  9 10  1  0
 10 11  2  0
 11 12  1  0
 12 13  1  0
 13 14  2  0
 14 15  1  0
 15 16  2  0
 16 17  1  0
 17 18  2  0
 12 19  2  0
 19 20  1  0
 20 21  1  0
 21 22  2  0
 22 23  1  0
 23 24  2  0
 24 25  1  0
 25 26  1  0
 24 27  1  0
 27 28  2  0
 20 29  2  0
 29 30  1  0
 30 31  1  0
 30  8  2  0
 29 10  1  0
 18 13  1  0
 28 21  1  0
M  END
>  <zinc_id>  (1) 
ZINC000000989095

>  <smiles>  (1) 
CCN(CC)C(=O)c1sc2nc(-c3ccccc3)cc(-c3ccc(OC)cc3)c2c1N

$$$$
