
     RDKit          3D

 32 36  0  0  0  0  0  0  0  0999 V2000
    8.0899    2.3815   -1.1846 C   0  0  0  0  0  0  0  0  0  0  0  0
    7.5177    2.8901    0.0980 C   0  0  0  0  0  0  0  0  0  0  0  0
    6.4550    2.0290    0.5236 O   0  0  0  0  0  0  0  0  0  0  0  0
    5.4112    1.8579   -0.3466 C   0  0  0  0  0  0  0  0  0  0  0  0
    5.4351    2.4415   -1.4851 O   0  0  0  0  0  0  0  0  0  0  0  0
    4.2733    1.0328    0.0070 C   0  0  0  0  0  0  0  0  0  0  0  0
    4.1170    0.2913    1.1314 C   0  0  0  0  0  0  0  0  0  0  0  0
    2.9824   -0.4038    1.4833 C   0  0  0  0  0  0  0  0  0  0  0  0
    1.9654   -0.3251    0.6231 C   0  0  0  0  0  0  0  0  0  0  0  0
    2.0828    0.4392   -0.5772 C   0  0  0  0  0  0  0  0  0  0  0  0
    3.1615    1.0748   -0.8683 C   0  0  0  0  0  0  0  0  0  0  0  0
    0.8216    0.6092   -1.6449 C   0  0  2  0  0  0  0  0  0  0  0  0
    0.0348    1.0474   -0.4205 C   0  0  0  0  0  0  0  0  0  0  0  0
    0.4063    0.0024   -0.1343 C   0  0  0  0  0  0  0  0  0  0  0  0
    1.2842   -1.2532   -0.7460 C   0  0  0  0  0  0  0  0  0  0  0  0
    0.1029   -0.9782   -1.5369 C   0  0  1  0  0  0  0  0  0  0  0  0
   -0.6828   -0.7981    0.0482 C   0  0  1  0  0  0  0  0  0  0  0  0
   -1.2864   -2.1490    0.0660 C   0  0  0  0  0  0  0  0  0  0  0  0
   -0.6469   -3.3297    0.0542 C   0  0  0  0  0  0  0  0  0  0  0  0
   -1.3025   -4.5355    0.2930 C   0  0  0  0  0  0  0  0  0  0  0  0
   -2.6510   -4.5594    0.5511 C   0  0  0  0  0  0  0  0  0  0  0  0
   -3.3347   -3.3310    0.5649 C   0  0  0  0  0  0  0  0  0  0  0  0
   -2.6886   -2.1374    0.3254 C   0  0  0  0  0  0  0  0  0  0  0  0
   -3.3809   -0.9569    0.3024 O   0  0  0  0  0  0  0  0  0  0  0  0
   -4.7325   -0.8241    0.5136 C   0  0  0  0  0  0  0  0  0  0  0  0
   -5.2659    0.5109    0.2198 C   0  0  0  0  0  0  0  0  0  0  0  0
   -4.4692    1.6036    0.3834 C   0  0  0  0  0  0  0  0  0  0  0  0
   -4.8180    2.8689    0.0475 C   0  0  0  0  0  0  0  0  0  0  0  0
   -6.0884    3.0170   -0.4984 C   0  0  0  0  0  0  0  0  0  0  0  0
   -6.9338    1.9207   -0.6807 C   0  0  0  0  0  0  0  0  0  0  0  0
   -6.5311    0.6376   -0.3179 C   0  0  0  0  0  0  0  0  0  0  0  0
    0.6717   -1.0744    1.0105 N   0  0  0  0  0  0  0  0  0  0  0  0
  1  2  1  0
  2  3  1  0
  3  4  1  0
  4  5  2  0
  4  6  1  0
  6  7  2  0
  7  8  1  0
  8  9  2  0
  9 10  1  0
 10 11  2  0
 10 12  1  0
 12 13  1  1
 13 14  2  0
 14 15  1  0
 16 15  1  1
 16 17  1  0
 17 18  1  1
 18 19  2  0
 19 20  1  0
 20 21  2  0
 21 22  1  0
 22 23  2  0
 23 24  1  0
 24 25  1  0
 25 26  1  0
 26 27  2  0
 27 28  1  0
 28 29  2  0
 29 30  1  0
 30 31  2  0
 17 32  1  0
 11  6  1  0
 16 12  1  0
 23 18  1  0
 31 26  1  0
 32  9  1  0
M  END
>  <zinc_id>  (1) 
ZINC000002075832

>  <smiles>  (1) 
CCOC(=O)c1ccc2c(c1)[C@@H]1C=CC[C@H]1[C@@H](c1ccccc1OCc1ccccc1)N2

$$$$
