
     RDKit          3D

 31 35  0  0  0  0  0  0  0  0999 V2000
    7.8894   -2.3352    1.0885 C   0  0  0  0  0  0  0  0  0  0  0  0
    6.6585   -1.7247    0.7608 O   0  0  0  0  0  0  0  0  0  0  0  0
    6.4799   -0.3364    0.8387 C   0  0  0  0  0  0  0  0  0  0  0  0
    7.5083    0.4364    1.2363 C   0  0  0  0  0  0  0  0  0  0  0  0
    7.4447    1.7952    1.3480 C   0  0  0  0  0  0  0  0  0  0  0  0
    6.2239    2.3753    1.0203 C   0  0  0  0  0  0  0  0  0  0  0  0
    5.1509    1.5769    0.6062 C   0  0  0  0  0  0  0  0  0  0  0  0
    3.5198    1.8638    0.1190 S   0  0  0  0  0  0  0  0  0  0  0  0
    3.0256    0.2648   -0.1923 C   0  0  0  0  0  0  0  0  0  0  0  0
    1.7639   -0.3563   -0.6604 C   0  0  0  0  0  0  0  0  0  0  0  0
    1.7029   -0.3356   -2.1369 C   0  0  0  0  0  0  0  0  0  0  0  0
    0.5746    0.5331   -2.6153 C   0  0  0  0  0  0  0  0  0  0  0  0
   -0.6408    0.0097   -1.9558 N   0  0  0  0  0  0  0  0  0  0  0  0
   -0.4521   -1.3813   -1.8024 C   0  0  0  0  0  0  0  0  0  0  0  0
   -1.8600   -2.0692   -1.2884 C   0  0  2  0  0  0  0  0  0  0  0  0
   -2.6589   -1.6148   -2.5548 O   0  0  0  0  0  0  0  0  0  0  0  0
   -2.3780   -0.7569   -0.4163 C   0  0  0  0  0  0  0  0  0  0  0  0
   -3.7763   -0.9878   -0.4686 O   0  0  0  0  0  0  0  0  0  0  0  0
   -4.6136   -0.0928    0.1442 C   0  0  0  0  0  0  0  0  0  0  0  0
   -4.0710    0.9905    0.7817 C   0  0  0  0  0  0  0  0  0  0  0  0
   -4.9054    1.9096    1.4083 C   0  0  0  0  0  0  0  0  0  0  0  0
   -6.2720    1.6955    1.3654 C   0  0  0  0  0  0  0  0  0  0  0  0
   -6.8295    0.6101    0.7272 C   0  0  0  0  0  0  0  0  0  0  0  0
   -8.0810    0.1378    0.5159 N   0  0  0  0  0  0  0  0  0  0  0  0
   -8.0652   -0.9940   -0.1888 C   0  0  0  0  0  0  0  0  0  0  0  0
   -6.7434   -1.2956   -0.4628 C   0  0  0  0  0  0  0  0  0  0  0  0
   -5.9663   -0.2862    0.1131 C   0  0  0  0  0  0  0  0  0  0  0  0
   -0.5675    0.6405   -0.6214 C   0  0  0  0  0  0  0  0  0  0  0  0
    0.5515   -0.0488    0.1062 C   0  0  0  0  0  0  0  0  0  0  0  0
    4.1471   -0.4423    0.0937 C   0  0  0  0  0  0  0  0  0  0  0  0
    5.2397    0.2186    0.5028 C   0  0  0  0  0  0  0  0  0  0  0  0
  1  2  1  0
  2  3  1  0
  3  4  2  0
  4  5  1  0
  5  6  2  0
  6  7  1  0
  7  8  1  0
  8  9  1  0
  9 10  1  0
 10 11  1  0
 11 12  1  0
 12 13  1  0
 13 14  1  0
 14 15  1  0
 15 16  1  6
 15 17  1  0
 17 18  1  0
 18 19  1  0
 19 20  2  0
 20 21  1  0
 21 22  2  0
 22 23  1  0
 23 24  1  0
 24 25  1  0
 25 26  2  0
 26 27  1  0
 13 28  1  0
 28 29  1  0
  9 30  2  0
 30 31  1  0
 31  3  1  0
 31  7  2  0
 29 10  1  0
 27 19  1  0
 27 23  2  0
M  END
>  <zinc_id>  (1) 
ZINC000003991708

>  <smiles>  (1) 
COc1cccc2sc(C3CCN(C[C@H](O)COc4cccc5[nH]ccc45)CC3)cc12

$$$$
