
     RDKit          3D

 20 21  0  0  0  0  0  0  0  0999 V2000
   -4.2084   -1.5713   -0.6761 C   0  0  0  0  0  0  0  0  0  0  0  0
   -3.0118   -1.0514   -1.4531 C   0  0  0  0  0  0  0  0  0  0  0  0
   -1.8268   -1.3245   -0.6884 O   0  0  0  0  0  0  0  0  0  0  0  0
   -1.7730   -0.7510    0.5600 C   0  0  0  0  0  0  0  0  0  0  0  0
   -2.3969   -1.2691    1.6854 O   0  0  0  0  0  0  0  0  0  0  0  0
   -1.0817    0.3796    0.7291 C   0  0  0  0  0  0  0  0  0  0  0  0
   -0.9635    1.0471    1.9594 C   0  0  0  0  0  0  0  0  0  0  0  0
   -1.6573    0.3691    3.1309 C   0  0  0  0  0  0  0  0  0  0  0  0
   -0.3286    2.1368    2.1038 N   0  0  0  0  0  0  0  0  0  0  0  0
    0.2792    2.6657    0.9328 C   0  0  0  0  0  0  0  0  0  0  0  0
    1.0053    3.8896    1.0109 O   0  0  0  0  0  0  0  0  0  0  0  0
    0.2503    2.1708   -0.1838 N   0  0  0  0  0  0  0  0  0  0  0  0
   -0.4303    0.8656   -0.6332 C   0  0  1  0  0  0  0  0  0  0  0  0
    0.8824   -0.0764   -0.6188 C   0  0  0  0  0  0  0  0  0  0  0  0
    2.0149    0.4029   -1.1830 C   0  0  0  0  0  0  0  0  0  0  0  0
    3.1358   -0.3954   -1.1704 C   0  0  0  0  0  0  0  0  0  0  0  0
    3.1201   -1.6462   -0.6042 C   0  0  0  0  0  0  0  0  0  0  0  0
    4.2297   -2.4698   -0.5767 O   0  0  0  0  0  0  0  0  0  0  0  0
    1.9380   -2.0896   -0.0408 C   0  0  0  0  0  0  0  0  0  0  0  0
    0.8227   -1.2827   -0.0591 C   0  0  0  0  0  0  0  0  0  0  0  0
  1  2  1  0
  2  3  1  0
  3  4  1  0
  4  5  1  0
  4  6  2  0
  6  7  1  0
  7  8  1  0
  7  9  2  0
  9 10  1  0
 10 11  1  0
 10 12  2  0
 12 13  1  0
 13 14  1  1
 14 15  2  0
 15 16  1  0
 16 17  2  0
 17 18  1  0
 17 19  1  0
 19 20  2  0
 13  6  1  0
 20 14  1  0
M  END
>  <zinc_id>  (1) 
ZINC000003194246

>  <smiles>  (1) 
CCO/C(O)=C1/C(C)=NC(O)=N[C@H]1c1ccc(O)cc1

$$$$
