
     RDKit          3D

 19 20  0  0  0  0  0  0  0  0999 V2000
   -4.3798    1.8076    0.0864 C   0  0  0  0  0  0  0  0  0  0  0  0
   -2.8711    1.6785    0.1193 C   0  0  0  0  0  0  0  0  0  0  0  0
   -2.2687    2.9503   -0.4885 C   0  0  0  0  0  0  0  0  0  0  0  0
   -2.5352    0.5396   -1.0215 C   0  0  2  0  0  0  0  0  0  0  0  0
   -3.4014   -0.6417   -0.3141 C   0  0  0  0  0  0  0  0  0  0  0  0
   -3.0216   -0.7313    1.1175 C   0  0  0  0  0  0  0  0  0  0  0  0
   -1.8447   -1.9156    1.0030 C   0  0  2  0  0  0  0  0  0  0  0  0
   -1.3251   -1.6343    2.5379 C   0  0  0  0  0  0  0  0  0  0  0  0
   -0.7826   -0.9126    0.3337 C   0  0  0  0  0  0  0  0  0  0  0  0
    0.4344   -1.3072    0.6261 C   0  0  0  0  0  0  0  0  0  0  0  0
    1.7016   -0.7667    0.2818 C   0  0  0  0  0  0  0  0  0  0  0  0
    2.0431    0.5762    0.4093 C   0  0  0  0  0  0  0  0  0  0  0  0
    3.2756    1.0524    0.0410 C   0  0  0  0  0  0  0  0  0  0  0  0
    4.2421    0.2010   -0.4790 C   0  0  0  0  0  0  0  0  0  0  0  0
    5.5273    0.6374   -0.8778 N   0  0  0  0  0  0  0  0  0  0  0  0
    3.9415   -1.1480   -0.6227 C   0  0  0  0  0  0  0  0  0  0  0  0
    2.6760   -1.5918   -0.2362 C   0  0  0  0  0  0  0  0  0  0  0  0
   -1.1228    0.1686   -0.4399 C   0  0  0  0  0  0  0  0  0  0  0  0
   -0.2886    1.0378   -0.7981 O   0  0  0  0  0  0  0  0  0  0  0  0
  1  2  1  0
  2  3  1  0
  4  2  1  1
  4  5  1  0
  5  6  1  0
  6  7  1  0
  7  8  1  1
  7  9  1  0
  9 10  2  3
 10 11  1  0
 11 12  2  0
 12 13  1  0
 13 14  2  0
 14 15  1  0
 14 16  1  0
 16 17  2  0
  9 18  1  0
 18 19  2  0
 18  4  1  0
 17 11  1  0
M  END
>  <zinc_id>  (1) 
ZINC000000227773

>  <smiles>  (1) 
CC(C)[C@@H]1CC[C@H](C)C(=Cc2ccc(N)cc2)C1=O

$$$$
