
     RDKit          3D

 20 22  0  0  0  0  0  0  0  0999 V2000
    6.8402    0.1653   -0.0053 C   0  0  0  0  0  0  0  0  0  0  0  0
    5.6371    0.7218    0.0396 C   0  0  0  0  0  0  0  0  0  0  0  0
    4.3775   -0.0873    0.0856 C   0  0  0  0  0  0  0  0  0  0  0  0
    3.5262    0.2129   -1.0755 N   0  0  0  0  0  4  0  0  0  0  0  0
    4.4459    0.6280   -2.1338 C   0  0  0  0  0  0  0  0  0  0  0  0
    2.7229    1.3425   -0.7319 C   0  0  0  0  0  0  0  0  0  0  0  0
    1.5790    0.9364    0.1495 C   0  0  0  0  0  0  0  0  0  0  0  0
    0.7351    0.0056   -0.5701 N   0  0  0  0  0  0  0  0  0  0  0  0
   -0.6413   -0.1809   -0.2378 C   0  0  0  0  0  0  0  0  0  0  0  0
   -1.2934    0.4401    0.7217 N   0  0  0  0  0  0  0  0  0  0  0  0
   -2.5600    0.1754    0.9222 C   0  0  0  0  0  0  0  0  0  0  0  0
   -3.3861    0.7519    1.9001 C   0  0  0  0  0  0  0  0  0  0  0  0
   -4.6826    0.3988    2.0123 C   0  0  0  0  0  0  0  0  0  0  0  0
   -5.3000   -0.5236    1.2128 C   0  0  0  0  0  0  0  0  0  0  0  0
   -6.6313   -0.8800    1.3352 O   0  0  0  0  0  0  0  0  0  0  0  0
   -4.4990   -1.1133    0.2300 C   0  0  0  0  0  0  0  0  0  0  0  0
   -3.1539   -0.7470    0.1135 C   0  0  0  0  0  0  0  0  0  0  0  0
   -1.8385   -1.1900   -0.9065 S   0  0  0  0  0  0  0  0  0  0  0  0
    1.3334   -0.7425   -1.6520 C   0  0  0  0  0  0  0  0  0  0  0  0
    2.7888   -0.9650   -1.4095 C   0  0  0  0  0  0  0  0  0  0  0  0
  1  2  2  0
  2  3  1  0
  3  4  1  0
  4  5  1  0
  4  6  1  0
  6  7  1  0
  7  8  1  0
  8  9  1  0
  9 10  2  0
 10 11  1  0
 11 12  2  0
 12 13  1  0
 13 14  2  0
 14 15  1  0
 14 16  1  0
 16 17  2  0
 17 18  1  0
  8 19  1  0
 19 20  1  0
 20  4  1  0
 18  9  1  0
 17 11  1  0
M  CHG  1   4   1
M  END
>  <zinc_id>  (1) 
ZINC000000005681

>  <smiles>  (1) 
C=CC[N+]1(C)CCN(c2nc3ccc(O)cc3s2)CC1

$$$$
