
     RDKit          3D

 22 24  0  0  0  0  0  0  0  0999 V2000
   -3.8678    2.5917   -0.5717 C   0  0  0  0  0  0  0  0  0  0  0  0
   -3.2109    2.1972    0.7326 C   0  0  0  0  0  0  0  0  0  0  0  0
   -4.2155    1.9107    1.8288 C   0  0  0  0  0  0  0  0  0  0  0  0
   -2.2936    1.0788    0.5830 N   0  0  0  0  0  0  0  0  0  0  0  0
   -0.9762    1.0748    0.8426 C   0  0  0  0  0  0  0  0  0  0  0  0
   -0.4484   -0.1723    0.5899 C   0  0  0  0  0  0  0  0  0  0  0  0
    0.8726   -0.7066    0.6731 C   0  0  0  0  0  0  0  0  0  0  0  0
    2.0088   -0.2692    0.2405 C   0  0  0  0  0  0  0  0  0  0  0  0
    3.1750   -1.1477    0.5377 C   0  0  0  0  0  0  0  0  0  0  0  0
    3.0541   -2.2220    1.1816 O   0  0  0  0  0  0  0  0  0  0  0  0
    4.4503   -0.7480    0.0721 N   0  0  0  0  0  0  0  0  0  0  0  0
    4.6721    0.4413   -0.6601 C   0  0  0  0  0  0  0  0  0  0  0  0
    6.2213    0.7547   -1.1267 S   0  0  0  0  0  0  0  0  0  0  0  0
    3.5885    1.3193   -0.9726 N   0  0  0  0  0  0  0  0  0  0  0  0
    2.2646    0.9443   -0.5122 C   0  0  0  0  0  0  0  0  0  0  0  0
    1.2766    1.6839   -0.7593 O   0  0  0  0  0  0  0  0  0  0  0  0
   -1.5466   -0.9253    0.1547 C   0  0  0  0  0  0  0  0  0  0  0  0
   -1.6381   -2.2421   -0.2546 C   0  0  0  0  0  0  0  0  0  0  0  0
   -2.8398   -2.7658   -0.6540 C   0  0  0  0  0  0  0  0  0  0  0  0
   -3.9534   -1.9778   -0.6475 C   0  0  0  0  0  0  0  0  0  0  0  0
   -3.9050   -0.6687   -0.2500 C   0  0  0  0  0  0  0  0  0  0  0  0
   -2.6885   -0.1513    0.1506 C   0  0  0  0  0  0  0  0  0  0  0  0
  1  2  1  0
  2  3  1  0
  2  4  1  0
  4  5  1  0
  5  6  2  0
  6  7  1  0
  7  8  2  3
  8  9  1  0
  9 10  2  0
  9 11  1  0
 11 12  1  0
 12 13  2  0
 12 14  1  0
 14 15  1  0
 15 16  2  0
  6 17  1  0
 17 18  2  0
 18 19  1  0
 19 20  2  0
 20 21  1  0
 21 22  2  0
 22  4  1  0
 15  8  1  0
 22 17  1  0
M  END
>  <zinc_id>  (1) 
ZINC000000566642

>  <smiles>  (1) 
CC(C)n1cc(C=C2C(=O)NC(=S)NC2=O)c2ccccc21

$$$$
