
     RDKit          3D

 20 21  0  0  0  0  0  0  0  0999 V2000
    6.5807    0.5682    0.3735 C   0  0  0  0  0  0  0  0  0  0  0  0
    5.1183    0.3175    0.4518 C   0  0  0  0  0  0  0  0  0  0  0  0
    4.2360    1.2530   -0.0161 C   0  0  0  0  0  0  0  0  0  0  0  0
    2.8727    0.9810    0.0746 C   0  0  0  0  0  0  0  0  0  0  0  0
    2.3926   -0.1728    0.6108 C   0  0  0  0  0  0  0  0  0  0  0  0
    0.9005   -0.3824    0.6604 C   0  0  0  0  0  0  0  0  0  0  0  0
    0.5358   -1.2238    1.4488 O   0  0  0  0  0  0  0  0  0  0  0  0
    0.1054    0.4442   -0.2404 C   0  0  0  0  0  0  0  0  0  0  0  0
   -1.7138   -0.3709    0.2513 S   0  0  0  0  0  0  0  0  0  0  0  0
   -2.6408    0.5490   -0.7604 C   0  0  0  0  0  0  0  0  0  0  0  0
   -4.0857    0.5605   -1.0005 N   0  0  0  0  0  0  0  0  0  0  0  0
   -4.8534   -0.3664   -0.1825 C   0  0  0  0  0  0  0  0  0  0  0  0
   -4.9402    0.1944    1.2313 C   0  0  0  0  0  0  0  0  0  0  0  0
   -6.2259   -0.5218   -0.7554 C   0  0  0  0  0  0  0  0  0  0  0  0
   -4.1604   -1.7091   -0.0735 C   0  0  0  0  0  0  0  0  0  0  0  0
   -1.7901    1.3032   -1.3404 N   0  0  0  0  0  0  0  0  0  0  0  0
   -0.5773    1.1536   -1.0136 C   0  0  0  0  0  0  0  0  0  0  0  0
    0.3493    2.1518   -1.8097 N   0  0  0  0  0  0  0  0  0  0  0  0
    3.2594   -1.1157    1.0837 C   0  0  0  0  0  0  0  0  0  0  0  0
    4.6368   -0.8757    1.0063 C   0  0  0  0  0  0  0  0  0  0  0  0
  1  2  1  0
  2  3  2  0
  3  4  1  0
  4  5  2  0
  5  6  1  0
  6  7  2  0
  6  8  1  0
  8  9  1  0
  9 10  1  0
 10 11  1  0
 11 12  1  0
 12 13  1  0
 12 14  1  0
 12 15  1  0
 10 16  2  0
 16 17  1  0
 17 18  1  0
  5 19  1  0
 19 20  2  0
 20  2  1  0
 17  8  2  0
M  END
>  <zinc_id>  (1) 
ZINC000001398627

>  <smiles>  (1) 
Cc1ccc(C(=O)c2sc(NC(C)(C)C)nc2N)cc1

$$$$
