
     RDKit          3D

 23 25  0  0  0  0  0  0  0  0999 V2000
    3.7087   -2.6465    1.1070 C   0  0  0  0  0  0  0  0  0  0  0  0
    2.6840   -1.7004    0.9442 O   0  0  0  0  0  0  0  0  0  0  0  0
    2.5865   -0.8043   -0.0890 C   0  0  0  0  0  0  0  0  0  0  0  0
    3.4643   -0.8267   -0.9444 O   0  0  0  0  0  0  0  0  0  0  0  0
    1.5119    0.1782   -0.2432 C   0  0  0  0  0  0  0  0  0  0  0  0
    1.5234    0.9957   -1.2724 C   0  0  0  0  0  0  0  0  0  0  0  0
    2.6311    0.8195   -2.2067 N   0  0  0  0  0  0  0  0  0  0  0  0
    0.6002    1.9802   -1.4881 O   0  0  0  0  0  0  0  0  0  0  0  0
   -0.4098    2.1321   -0.5444 C   0  0  0  0  0  0  0  0  0  0  0  0
   -0.5361    1.4103    0.5025 C   0  0  0  0  0  0  0  0  0  0  0  0
   -1.6067    1.6084    1.5027 C   0  0  0  0  0  0  0  0  0  0  0  0
   -1.3359    1.0746    2.5726 O   0  0  0  0  0  0  0  0  0  0  0  0
   -2.7795    2.3812    1.0888 C   0  0  0  0  0  0  0  0  0  0  0  0
   -2.1709    3.6190    0.4035 C   0  0  0  0  0  0  0  0  0  0  0  0
   -1.4133    3.2393   -0.8134 C   0  0  0  0  0  0  0  0  0  0  0  0
    0.3333    0.1556    0.7228 C   0  0  1  0  0  0  0  0  0  0  0  0
   -0.6324   -0.9918    0.2580 C   0  0  0  0  0  0  0  0  0  0  0  0
   -1.8376   -0.9139    0.8708 C   0  0  0  0  0  0  0  0  0  0  0  0
   -2.8440   -1.8301    0.6458 C   0  0  0  0  0  0  0  0  0  0  0  0
   -2.5734   -2.8492   -0.2437 C   0  0  0  0  0  0  0  0  0  0  0  0
   -1.3444   -2.9273   -0.8683 C   0  0  0  0  0  0  0  0  0  0  0  0
   -0.3462   -1.9536   -0.5971 C   0  0  0  0  0  0  0  0  0  0  0  0
    0.7869   -2.1505   -1.3080 F   0  0  0  0  0  0  0  0  0  0  0  0
  1  2  1  0
  2  3  1  0
  3  4  2  0
  3  5  1  0
  5  6  2  0
  6  7  1  0
  6  8  1  0
  8  9  1  0
  9 10  2  0
 10 11  1  0
 11 12  2  0
 11 13  1  0
 13 14  1  0
 14 15  1  0
 10 16  1  0
 16 17  1  1
 17 18  2  0
 18 19  1  0
 19 20  2  0
 20 21  1  0
 21 22  2  0
 22 23  1  0
 16  5  1  0
 22 17  1  0
 15  9  1  0
M  END
>  <zinc_id>  (1) 
ZINC000000062229

>  <smiles>  (1) 
COC(=O)C1=C(N)OC2=C(C(=O)CCC2)[C@@H]1c1ccccc1F

$$$$
