
     RDKit          3D

 20 21  0  0  0  0  0  0  0  0999 V2000
    6.0096   -0.4899    0.2370 C   0  0  0  0  0  0  0  0  0  0  0  0
    5.2869    0.7833    0.5450 C   0  0  0  0  0  0  0  0  0  0  0  0
    5.5753    1.8811   -0.4664 C   0  0  0  0  0  0  0  0  0  0  0  0
    3.8240    0.5484    0.6555 C   0  0  0  0  0  0  0  0  0  0  0  0
    3.0945    0.9385    1.7617 C   0  0  0  0  0  0  0  0  0  0  0  0
    1.7359    0.7087    1.8400 C   0  0  0  0  0  0  0  0  0  0  0  0
    1.0491    0.0900    0.8383 C   0  0  0  0  0  0  0  0  0  0  0  0
   -0.3900   -0.1699    0.8872 C   0  0  0  0  0  0  0  0  0  0  0  0
   -0.9753   -0.7520   -0.0801 N   0  0  0  0  0  0  0  0  0  0  0  0
   -2.3646   -1.0445   -0.1191 C   0  0  0  0  0  0  0  0  0  0  0  0
   -2.9201   -2.2016    0.3730 C   0  0  0  0  0  0  0  0  0  0  0  0
   -4.2698   -2.4834    0.3339 C   0  0  0  0  0  0  0  0  0  0  0  0
   -5.0907   -1.5331   -0.2373 C   0  0  0  0  0  0  0  0  0  0  0  0
   -4.5765   -0.3630   -0.7411 C   0  0  0  0  0  0  0  0  0  0  0  0
   -3.2106   -0.1104   -0.6857 C   0  0  0  0  0  0  0  0  0  0  0  0
   -2.6855    1.1431   -1.2288 C   0  0  0  0  0  0  0  0  0  0  0  0
   -3.5564    2.0836   -1.8016 N   0  0  0  0  0  0  0  0  0  0  0  0
   -1.4427    1.3545   -1.1696 O   0  0  0  0  0  0  0  0  0  0  0  0
    1.7742   -0.3056   -0.2775 C   0  0  0  0  0  0  0  0  0  0  0  0
    3.1324   -0.0778   -0.3599 C   0  0  0  0  0  0  0  0  0  0  0  0
  1  2  1  0
  2  3  1  0
  2  4  1  0
  4  5  2  0
  5  6  1  0
  6  7  2  0
  7  8  1  0
  8  9  2  0
  9 10  1  0
 10 11  2  0
 11 12  1  0
 12 13  2  0
 13 14  1  0
 14 15  2  0
 15 16  1  0
 16 17  1  0
 16 18  2  0
  7 19  1  0
 19 20  2  0
 20  4  1  0
 15 10  1  0
M  END
>  <zinc_id>  (1) 
ZINC000000297326

>  <smiles>  (1) 
CC(C)c1ccc(/C=N/c2ccccc2C(N)=O)cc1

$$$$
