
     RDKit          3D

 19 20  0  0  0  0  0  0  0  0999 V2000
   -3.1831   -0.5770    3.2084 C   0  0  0  0  0  0  0  0  0  0  0  0
   -3.5789   -1.5741    2.1293 C   0  0  0  0  0  0  0  0  0  0  0  0
   -3.1139   -1.0330    0.9091 O   0  0  0  0  0  0  0  0  0  0  0  0
   -1.7758   -0.7676    0.6754 C   0  0  0  0  0  0  0  0  0  0  0  0
   -0.8388   -1.0261    1.6372 C   0  0  0  0  0  0  0  0  0  0  0  0
    0.4845   -0.7523    1.3744 C   0  0  0  0  0  0  0  0  0  0  0  0
    0.8761   -0.2224    0.1565 C   0  0  0  0  0  0  0  0  0  0  0  0
    2.2742    0.0673   -0.1381 C   0  0  0  0  0  0  0  0  0  0  0  0
    2.8710    0.5932   -1.2485 C   0  0  0  0  0  0  0  0  0  0  0  0
    4.2363    0.6661   -1.0211 C   0  0  0  0  0  0  0  0  0  0  0  0
    5.2691    1.1382   -1.8739 N   0  0  0  0  0  0  0  0  0  0  0  0
    4.4245    0.2051    0.1650 O   0  0  0  0  0  0  0  0  0  0  0  0
    3.2928   -0.1668    0.7405 N   0  0  0  0  0  0  0  0  0  0  0  0
   -0.0817    0.0363   -0.8128 C   0  0  0  0  0  0  0  0  0  0  0  0
   -1.3580   -0.2373   -0.5345 C   0  0  0  0  0  0  0  0  0  0  0  0
   -2.5397    0.0365   -1.5735 C   0  0  2  0  0  0  0  0  0  0  0  0
   -1.5826    0.3384   -2.8659 C   0  0  0  0  0  0  0  0  0  0  0  0
   -2.6697    1.6547   -1.1918 C   0  0  0  0  0  0  0  0  0  0  0  0
   -3.0064    1.6207    0.2642 C   0  0  0  0  0  0  0  0  0  0  0  0
  1  2  1  0
  2  3  1  0
  3  4  1  0
  4  5  2  0
  5  6  1  0
  6  7  2  0
  7  8  1  0
  8  9  1  0
  9 10  2  0
 10 11  1  0
 10 12  1  0
 12 13  1  0
  7 14  1  0
 14 15  2  0
 15 16  1  0
 16 17  1  6
 16 18  1  0
 18 19  1  0
 15  4  1  0
 13  8  2  0
M  END
>  <zinc_id>  (1) 
ZINC000003704574

>  <smiles>  (1) 
CCOc1ccc(-c2cc(N)on2)cc1[C@H](C)CC

$$$$
