
     RDKit          3D

 18 19  0  0  0  0  0  0  0  0999 V2000
    4.7045    2.0539    0.2405 O   0  0  0  0  0  0  0  0  0  0  0  0
    3.8477    0.9765   -0.4952 C   0  0  1  0  0  0  0  0  0  0  0  0
    4.1074   -0.1323    0.7380 C   0  0  0  0  0  0  0  0  0  0  0  0
    3.1156   -1.2166    0.4816 C   0  0  0  0  0  0  0  0  0  0  0  0
    1.6865   -0.7530    0.5160 C   0  0  0  0  0  0  0  0  0  0  0  0
    1.5724    0.4782   -0.1711 N   0  0  0  0  0  0  0  0  0  0  0  0
    0.6497    0.6693   -1.2019 C   0  0  0  0  0  0  0  0  0  0  0  0
    0.5660    2.1357   -1.9935 S   0  0  0  0  0  0  0  0  0  0  0  0
   -0.2276   -0.3422   -1.6063 N   0  0  0  0  0  0  0  0  0  0  0  0
   -0.2987   -1.6258   -1.0128 C   0  0  0  0  0  0  0  0  0  0  0  0
   -0.9353   -1.4663    0.3765 C   0  0  0  0  0  0  0  0  0  0  0  0
   -2.2911   -0.8895    0.2260 C   0  0  0  0  0  0  0  0  0  0  0  0
   -3.3492   -1.7567    0.1012 C   0  0  0  0  0  0  0  0  0  0  0  0
   -4.6078   -1.2433   -0.0393 C   0  0  0  0  0  0  0  0  0  0  0  0
   -4.7901    0.1150   -0.0531 C   0  0  0  0  0  0  0  0  0  0  0  0
   -3.7272    0.9710    0.0729 C   0  0  0  0  0  0  0  0  0  0  0  0
   -2.4633    0.4648    0.2141 C   0  0  0  0  0  0  0  0  0  0  0  0
    2.4406    1.5614    0.2187 C   0  0  0  0  0  0  0  0  0  0  0  0
  2  1  1  1
  2  3  1  0
  3  4  1  0
  4  5  1  0
  5  6  1  0
  6  7  1  0
  7  8  2  0
  7  9  1  0
  9 10  1  0
 10 11  1  0
 11 12  1  0
 12 13  2  0
 13 14  1  0
 14 15  2  0
 15 16  1  0
 16 17  2  0
  6 18  1  0
 18  2  1  0
 17 12  1  0
M  END
>  <zinc_id>  (1) 
ZINC000001459882

>  <smiles>  (1) 
O[C@H]1CCCN(C(=S)NCCc2ccccc2)C1

$$$$
