
     RDKit          3D

 31 34  0  0  0  0  0  0  0  0999 V2000
   -3.9641   -4.4278   -0.1809 C   0  0  0  0  0  0  0  0  0  0  0  0
   -4.2271   -3.5606    1.0570 C   0  0  0  0  0  0  0  0  0  0  0  0
   -3.0728   -2.4206    0.8603 C   0  0  2  0  0  0  0  0  0  0  0  0
   -3.5004   -1.5991    2.2503 C   0  0  0  0  0  0  0  0  0  0  0  0
   -3.8781   -1.4515   -0.1200 C   0  0  0  0  0  0  0  0  0  0  0  0
   -5.1432   -1.7930   -0.5024 C   0  0  0  0  0  0  0  0  0  0  0  0
   -5.8295   -0.9337   -1.3599 C   0  0  0  0  0  0  0  0  0  0  0  0
   -5.2327    0.2269   -1.8014 C   0  0  0  0  0  0  0  0  0  0  0  0
   -3.9474    0.5126   -1.3749 C   0  0  0  0  0  0  0  0  0  0  0  0
   -3.2472   -0.3104   -0.5335 C   0  0  0  0  0  0  0  0  0  0  0  0
   -1.9465   -0.0814   -0.0641 N   0  0  0  0  0  0  0  0  0  0  0  0
   -1.1346    1.0340   -0.3759 C   0  0  0  0  0  0  0  0  0  0  0  0
   -1.6265    1.8940   -1.1422 O   0  0  0  0  0  0  0  0  0  0  0  0
    0.2077    1.2307    0.1332 C   0  0  0  0  0  0  0  0  0  0  0  0
    0.8348    0.3894    0.9510 N   0  0  0  0  0  0  0  0  0  0  0  0
    2.0738    0.6273    1.3862 N   0  0  0  0  0  0  0  0  0  0  0  0
    2.7426   -0.3068    2.2810 C   0  0  0  0  0  0  0  0  0  0  0  0
    3.5029   -1.3287    1.4777 C   0  0  0  0  0  0  0  0  0  0  0  0
    2.8395   -2.4640    1.1314 C   0  0  0  0  0  0  0  0  0  0  0  0
    3.4260   -3.4630    0.4029 C   0  0  0  0  0  0  0  0  0  0  0  0
    4.7503   -3.3139    0.0003 C   0  0  0  0  0  0  0  0  0  0  0  0
    5.4047   -2.1554    0.3619 C   0  0  0  0  0  0  0  0  0  0  0  0
    4.8031   -1.1537    1.0973 C   0  0  0  0  0  0  0  0  0  0  0  0
    2.7494    1.7287    1.0197 C   0  0  0  0  0  0  0  0  0  0  0  0
    3.9333    1.9446    1.4426 O   0  0  0  0  0  0  0  0  0  0  0  0
    2.1666    2.6452    0.1761 C   0  0  0  0  0  0  0  0  0  0  0  0
    2.8576    3.7514   -0.1861 C   0  0  0  0  0  0  0  0  0  0  0  0
    2.2720    4.6661   -1.0300 C   0  0  0  0  0  0  0  0  0  0  0  0
    0.9922    4.4343   -1.4882 C   0  0  0  0  0  0  0  0  0  0  0  0
    0.3102    3.3017   -1.1053 C   0  0  0  0  0  0  0  0  0  0  0  0
    0.8830    2.3768   -0.2612 C   0  0  0  0  0  0  0  0  0  0  0  0
  1  2  1  0
  2  3  1  0
  3  4  1  1
  3  5  1  0
  5  6  2  0
  6  7  1  0
  7  8  2  0
  8  9  1  0
  9 10  2  0
 10 11  1  0
 11 12  1  0
 12 13  2  0
 12 14  1  0
 14 15  2  0
 15 16  1  0
 16 17  1  0
 17 18  1  0
 18 19  2  0
 19 20  1  0
 20 21  2  0
 21 22  1  0
 22 23  2  0
 16 24  1  0
 24 25  2  0
 24 26  1  0
 26 27  2  0
 27 28  1  0
 28 29  2  0
 29 30  1  0
 30 31  2  0
 10  5  1  0
 31 14  1  0
 23 18  1  0
 31 26  1  0
M  END
>  <zinc_id>  (1) 
ZINC000003328866

>  <smiles>  (1) 
CC[C@H](C)c1ccccc1NC(=O)c1nn(Cc2ccccc2)c(=O)c2ccccc12

$$$$
