
     RDKit          3D

 32 35  0  0  0  0  0  0  0  0999 V2000
   -6.4549    3.0286    2.0379 C   0  0  0  0  0  0  0  0  0  0  0  0
   -6.4286    2.3294    0.8120 O   0  0  0  0  0  0  0  0  0  0  0  0
   -5.4752    1.3640    0.4850 C   0  0  0  0  0  0  0  0  0  0  0  0
   -4.4524    0.9677    1.2884 C   0  0  0  0  0  0  0  0  0  0  0  0
   -3.5237   -0.0024    0.9168 C   0  0  0  0  0  0  0  0  0  0  0  0
   -3.6665   -0.5827   -0.3391 C   0  0  0  0  0  0  0  0  0  0  0  0
   -2.8208   -1.5796   -0.8470 N   0  0  0  0  0  0  0  0  0  0  0  0
   -1.7257   -2.0802   -0.1040 C   0  0  0  0  0  0  0  0  0  0  0  0
   -1.5079   -1.6158    1.0262 O   0  0  0  0  0  0  0  0  0  0  0  0
   -0.8560   -3.1635   -0.7053 C   0  0  0  0  0  0  0  0  0  0  0  0
    0.4206   -2.5206   -1.7764 S   0  0  0  0  0  0  0  0  0  0  0  0
    1.7693   -1.7726   -0.9021 C   0  0  0  0  0  0  0  0  0  0  0  0
    2.7645   -0.9792   -1.4160 C   0  0  0  0  0  0  0  0  0  0  0  0
    3.6740   -0.6440   -0.4523 N   0  0  0  0  0  0  0  0  0  0  0  0
    4.8363    0.2192   -0.7275 C   0  0  0  0  0  0  0  0  0  0  0  0
    4.4314    1.6302   -0.5702 C   0  0  0  0  0  0  0  0  0  0  0  0
    3.9319    2.2803   -1.7169 C   0  0  0  0  0  0  0  0  0  0  0  0
    3.4766    3.5603   -1.6361 C   0  0  0  0  0  0  0  0  0  0  0  0
    3.4909    4.2433   -0.4521 C   0  0  0  0  0  0  0  0  0  0  0  0
    3.9757    3.6234    0.6781 C   0  0  0  0  0  0  0  0  0  0  0  0
    4.4369    2.3273    0.5878 C   0  0  0  0  0  0  0  0  0  0  0  0
    5.0017    1.7200    1.8431 C   0  0  0  0  0  0  0  0  0  0  0  0
    3.2511   -1.2278    0.6610 C   0  0  0  0  0  0  0  0  0  0  0  0
    3.7586   -1.2726    1.9426 C   0  0  0  0  0  0  0  0  0  0  0  0
    3.1633   -1.9667    2.9638 C   0  0  0  0  0  0  0  0  0  0  0  0
    1.9782   -2.6690    2.7026 C   0  0  0  0  0  0  0  0  0  0  0  0
    1.4578   -2.6415    1.4459 C   0  0  0  0  0  0  0  0  0  0  0  0
    2.0764   -1.9392    0.4430 C   0  0  0  0  0  0  0  0  0  0  0  0
   -4.7151   -0.1897   -1.1880 C   0  0  0  0  0  0  0  0  0  0  0  0
   -4.8045   -0.8058   -2.4316 O   0  0  0  0  0  0  0  0  0  0  0  0
   -5.8673   -0.4057   -3.2931 C   0  0  0  0  0  0  0  0  0  0  0  0
   -5.5968    0.7649   -0.7761 C   0  0  0  0  0  0  0  0  0  0  0  0
  1  2  1  0
  2  3  1  0
  3  4  2  0
  4  5  1  0
  5  6  2  0
  6  7  1  0
  7  8  1  0
  8  9  2  0
  8 10  1  0
 10 11  1  0
 11 12  1  0
 12 13  2  0
 13 14  1  0
 14 15  1  0
 15 16  1  0
 16 17  2  0
 17 18  1  0
 18 19  2  0
 19 20  1  0
 20 21  2  0
 21 22  1  0
 14 23  1  0
 23 24  2  0
 24 25  1  0
 25 26  2  0
 26 27  1  0
 27 28  2  0
  6 29  1  0
 29 30  1  0
 30 31  1  0
 29 32  2  0
 32  3  1  0
 28 12  1  0
 21 16  1  0
 28 23  1  0
M  END
>  <zinc_id>  (1) 
ZINC000003581695

>  <smiles>  (1) 
COc1ccc(NC(=O)CSc2cn(Cc3ccccc3C)c3ccccc23)c(OC)c1

$$$$
