
     RDKit          3D

 31 34  0  0  0  0  0  0  0  0999 V2000
    4.4567    1.6553    0.8824 C   0  0  0  0  0  0  0  0  0  0  0  0
    4.8523    0.3375    0.3304 C   0  0  0  0  0  0  0  0  0  0  0  0
    3.9332   -0.4056   -0.1556 N   0  0  0  0  0  0  0  0  0  0  0  0
    2.5725    0.0056   -0.1727 N   0  0  0  0  0  0  0  0  0  0  0  0
    2.0365    0.7200   -1.2614 C   0  0  0  0  0  0  0  0  0  0  0  0
    2.8019    0.9849   -2.2236 O   0  0  0  0  0  0  0  0  0  0  0  0
    0.6382    1.1850   -1.3617 C   0  0  0  0  0  0  0  0  0  0  0  0
   -0.3461    0.7428    0.0761 S   0  0  0  0  0  0  0  0  0  0  0  0
   -2.0077    1.3716   -0.1905 C   0  0  0  0  0  0  0  0  0  0  0  0
   -2.4730    2.5870    0.1596 N   0  0  0  0  0  0  0  0  0  0  0  0
   -3.7473    2.6288   -0.2251 C   0  0  0  0  0  0  0  0  0  0  0  0
   -4.7101    3.5921   -0.1349 C   0  0  0  0  0  0  0  0  0  0  0  0
   -5.9916    3.3658   -0.6315 C   0  0  0  0  0  0  0  0  0  0  0  0
   -6.2646    2.1419   -1.2178 C   0  0  0  0  0  0  0  0  0  0  0  0
   -5.3010    1.1596   -1.3155 C   0  0  0  0  0  0  0  0  0  0  0  0
   -4.0480    1.4254   -0.8118 C   0  0  0  0  0  0  0  0  0  0  0  0
   -2.9637    0.6423   -0.7901 N   0  0  0  0  0  0  0  0  0  0  0  0
   -2.8526   -0.7056   -1.3062 C   0  0  0  0  0  0  0  0  0  0  0  0
   -3.2166   -1.6309   -0.2026 C   0  0  0  0  0  0  0  0  0  0  0  0
   -4.5416   -1.9947   -0.0749 C   0  0  0  0  0  0  0  0  0  0  0  0
   -4.9434   -2.8599    0.9407 C   0  0  0  0  0  0  0  0  0  0  0  0
   -4.0361   -3.3767    1.8445 C   0  0  0  0  0  0  0  0  0  0  0  0
   -4.4924   -4.3072    2.9301 C   0  0  0  0  0  0  0  0  0  0  0  0
   -2.7109   -3.0113    1.7147 C   0  0  0  0  0  0  0  0  0  0  0  0
   -2.3195   -2.1424    0.6916 C   0  0  0  0  0  0  0  0  0  0  0  0
    6.2640   -0.0425    0.3697 C   0  0  0  0  0  0  0  0  0  0  0  0
    7.2022    0.8109    0.9100 C   0  0  0  0  0  0  0  0  0  0  0  0
    8.5376    0.4802    0.9606 C   0  0  0  0  0  0  0  0  0  0  0  0
    8.9368   -0.7383    0.4552 C   0  0  0  0  0  0  0  0  0  0  0  0
    8.0180   -1.5636   -0.0691 N   0  0  0  0  0  0  0  0  0  0  0  0
    6.7161   -1.2458   -0.1206 C   0  0  0  0  0  0  0  0  0  0  0  0
  1  2  1  0
  2  3  2  0
  3  4  1  0
  4  5  1  0
  5  6  2  0
  5  7  1  0
  7  8  1  0
  8  9  1  0
  9 10  2  0
 10 11  1  0
 11 12  2  0
 12 13  1  0
 13 14  2  0
 14 15  1  0
 15 16  2  0
 16 17  1  0
 17 18  1  0
 18 19  1  0
 19 20  2  0
 20 21  1  0
 21 22  2  0
 22 23  1  0
 22 24  1  0
 24 25  2  0
  2 26  1  0
 26 27  2  0
 27 28  1  0
 28 29  2  0
 29 30  1  0
 30 31  2  0
 17  9  1  0
 25 19  1  0
 31 26  1  0
 16 11  1  0
M  END
>  <zinc_id>  (1) 
ZINC000000703454

>  <smiles>  (1) 
C/C(=N\NC(=O)CSc1nc2ccccc2n1Cc1ccc(C)cc1)c1cccnc1

$$$$
