
     RDKit          3D

 18 19  0  0  0  0  0  0  0  0999 V2000
    0.7702   -3.1839   -0.1002 O   0  0  0  0  0  0  0  0  0  0  0  0
    0.3861   -1.9917   -0.0689 C   0  0  0  0  0  0  0  0  0  0  0  0
   -1.0656   -1.6751    0.1141 C   0  0  0  0  0  0  0  0  0  0  0  0
   -1.2707   -0.2432    0.1184 N   0  0  0  0  0  0  0  0  0  0  0  0
   -2.6016    0.2315    0.2832 C   0  0  0  0  0  0  0  0  0  0  0  0
   -3.6777   -0.6149    0.4355 C   0  0  0  0  0  0  0  0  0  0  0  0
   -4.9628   -0.1597    0.5947 C   0  0  0  0  0  0  0  0  0  0  0  0
   -5.2255    1.2083    0.6074 C   0  0  0  0  0  0  0  0  0  0  0  0
   -4.1541    2.0622    0.4556 C   0  0  0  0  0  0  0  0  0  0  0  0
   -2.8573    1.6042    0.2949 C   0  0  0  0  0  0  0  0  0  0  0  0
   -1.5000    2.7052    0.1023 Cl  0  0  0  0  0  0  0  0  0  0  0  0
    1.3701   -0.9765   -0.2119 N   0  0  0  0  0  0  0  0  0  0  0  0
    2.7170   -1.3010   -0.3812 N   0  0  0  0  0  0  0  0  0  0  0  0
    3.6052   -0.4381   -0.1143 C   0  0  0  0  0  0  0  0  0  0  0  0
    3.3863    0.9291    0.3752 C   0  0  0  0  0  0  0  0  0  0  0  0
    4.5174    1.7413   -0.2207 C   0  0  0  0  0  0  0  0  0  0  0  0
    5.5023    0.7234   -0.7756 C   0  0  0  0  0  0  0  0  0  0  0  0
    5.0608   -0.6211   -0.2383 C   0  0  0  0  0  0  0  0  0  0  0  0
  1  2  2  0
  2  3  1  0
  3  4  1  0
  4  5  1  0
  5  6  2  0
  6  7  1  0
  7  8  2  0
  8  9  1  0
  9 10  2  0
 10 11  1  0
  2 12  1  0
 12 13  1  0
 13 14  2  3
 14 15  1  0
 15 16  1  0
 16 17  1  0
 17 18  1  0
 10  5  1  0
 18 14  1  0
M  END
>  <zinc_id>  (1) 
ZINC000000586211

>  <smiles>  (1) 
O=C(CNc1ccccc1Cl)NN=C1CCCC1

$$$$
