
     RDKit          3D

 19 21  0  0  0  0  0  0  0  0999 V2000
    6.0217   -1.1644   -0.5773 C   0  0  0  0  0  0  0  0  0  0  0  0
    4.9205   -0.6460   -1.0863 C   0  0  0  0  0  0  0  0  0  0  0  0
    4.7319    0.8010   -1.2218 C   0  0  0  0  0  0  0  0  0  0  0  0
    3.5584    1.2374   -0.4539 N   0  0  0  0  0  0  0  0  0  0  0  0
    2.2843    0.6594   -0.8128 C   0  0  0  0  0  0  0  0  0  0  0  0
    1.1021    0.8878   -0.2788 N   0  0  0  0  0  0  0  0  0  0  0  0
    0.0567    0.2759   -0.7293 C   0  0  0  0  0  0  0  0  0  0  0  0
   -1.3046    0.4835   -0.1772 C   0  0  0  0  0  0  0  0  0  0  0  0
   -2.2580    1.3961   -0.5549 C   0  0  0  0  0  0  0  0  0  0  0  0
   -2.1158    2.3973   -1.6316 C   0  0  0  0  0  0  0  0  0  0  0  0
   -3.3588    1.2259    0.2284 N   0  0  0  0  0  0  0  0  0  0  0  0
   -3.1498    0.2311    1.1030 C   0  0  0  0  0  0  0  0  0  0  0  0
   -3.9300   -0.3367    2.1036 C   0  0  0  0  0  0  0  0  0  0  0  0
   -3.3709   -1.3726    2.8240 C   0  0  0  0  0  0  0  0  0  0  0  0
   -2.1020   -1.8489    2.5910 C   0  0  0  0  0  0  0  0  0  0  0  0
   -1.3607   -1.2656    1.5966 C   0  0  0  0  0  0  0  0  0  0  0  0
   -1.8904   -0.2396    0.8698 C   0  0  0  0  0  0  0  0  0  0  0  0
    0.2328   -0.6041   -1.7681 C   0  0  0  0  0  0  0  0  0  0  0  0
    1.9324   -0.4813   -2.0243 S   0  0  0  0  0  0  0  0  0  0  0  0
  1  2  2  0
  2  3  1  0
  3  4  1  0
  4  5  1  0
  5  6  2  0
  6  7  1  0
  7  8  1  0
  8  9  2  0
  9 10  1  0
  9 11  1  0
 11 12  1  0
 12 13  2  0
 13 14  1  0
 14 15  2  0
 15 16  1  0
 16 17  2  0
  7 18  2  0
 18 19  1  0
 19  5  1  0
 17  8  1  0
 17 12  1  0
M  END
>  <zinc_id>  (1) 
ZINC000002359546

>  <smiles>  (1) 
C=CCNc1nc(-c2c(C)[nH]c3ccccc23)cs1

$$$$
