
     RDKit          3D

 20 21  0  0  0  0  0  0  0  0999 V2000
    5.9121    1.2984   -0.4649 C   0  0  0  0  0  0  0  0  0  0  0  0
    4.6159    0.6425   -0.7778 C   0  0  0  0  0  0  0  0  0  0  0  0
    4.5652   -0.1333   -1.7484 O   0  0  0  0  0  0  0  0  0  0  0  0
    3.4421    0.8716   -0.0096 N   0  0  0  0  0  0  0  0  0  0  0  0
    2.2360    0.1782   -0.4069 C   0  0  0  0  0  0  0  0  0  0  0  0
    2.0282   -0.9023   -1.7032 S   0  0  0  0  0  0  0  0  0  0  0  0
    0.3849   -1.2576   -1.4925 C   0  0  0  0  0  0  0  0  0  0  0  0
    0.0278   -0.5103   -0.3945 C   0  0  0  0  0  0  0  0  0  0  0  0
   -1.4019   -0.5765    0.0239 C   0  0  0  0  0  0  0  0  0  0  0  0
   -1.8858   -1.8374    0.2864 C   0  0  0  0  0  0  0  0  0  0  0  0
   -3.1919   -2.0743    0.6544 C   0  0  0  0  0  0  0  0  0  0  0  0
   -4.0275   -0.9926    0.7571 C   0  0  0  0  0  0  0  0  0  0  0  0
   -5.4538   -1.1464    1.1477 C   0  0  0  0  0  0  0  0  0  0  0  0
   -3.5472    0.2783    0.4944 C   0  0  0  0  0  0  0  0  0  0  0  0
   -4.4713    1.4286    0.6130 C   0  0  0  0  0  0  0  0  0  0  0  0
   -2.2213    0.4946    0.1235 C   0  0  0  0  0  0  0  0  0  0  0  0
    0.9944    0.2397    0.1744 C   0  0  0  0  0  0  0  0  0  0  0  0
    0.7603    1.0760    1.3674 C   0  0  0  0  0  0  0  0  0  0  0  0
   -0.4759    1.1806    2.0380 N   0  0  0  0  0  0  0  0  0  0  0  0
    1.7095    1.7424    1.8305 O   0  0  0  0  0  0  0  0  0  0  0  0
  1  2  1  0
  2  3  2  0
  2  4  1  0
  4  5  1  0
  5  6  1  0
  6  7  1  0
  7  8  2  0
  8  9  1  0
  9 10  2  0
 10 11  1  0
 11 12  2  0
 12 13  1  0
 12 14  1  0
 14 15  1  0
 14 16  2  0
  8 17  1  0
 17 18  1  0
 18 19  1  0
 18 20  2  0
 17  5  2  0
 16  9  1  0
M  END
>  <zinc_id>  (1) 
ZINC000001052190

>  <smiles>  (1) 
CC(=O)Nc1scc(-c2ccc(C)c(C)c2)c1C(N)=O

$$$$
