
     RDKit          3D

 30 32  0  0  0  0  0  0  0  0999 V2000
   -1.5122   -0.1504   -2.5241 C   0  0  0  0  0  0  0  0  0  0  0  0
   -2.8374   -0.2984   -1.7422 C   0  0  0  0  0  0  0  0  0  0  0  0
   -3.8157    0.5830   -2.5155 C   0  0  0  0  0  0  0  0  0  0  0  0
   -3.2292   -1.7264   -1.7215 C   0  0  0  0  0  0  0  0  0  0  0  0
   -2.6369    0.3179   -0.4805 N   0  0  0  0  0  0  0  0  0  0  0  0
   -3.5673    1.3035   -0.0672 C   0  0  0  0  0  0  0  0  0  0  0  0
   -4.9352    0.8370    0.2423 C   0  0  0  0  0  0  0  0  0  0  0  0
   -5.2700    0.9094    1.5861 C   0  0  0  0  0  0  0  0  0  0  0  0
   -6.5270    0.4763    1.9968 C   0  0  0  0  0  0  0  0  0  0  0  0
   -7.4576   -0.0215    1.1370 C   0  0  0  0  0  0  0  0  0  0  0  0
   -8.6816   -0.4375    1.5523 F   0  0  0  0  0  0  0  0  0  0  0  0
   -7.0889   -0.0758   -0.2058 C   0  0  0  0  0  0  0  0  0  0  0  0
   -5.8642    0.3439   -0.6216 C   0  0  0  0  0  0  0  0  0  0  0  0
   -2.0202   -0.4435    0.5342 C   0  0  0  0  0  0  0  0  0  0  0  0
   -0.6460   -0.8712    0.2114 C   0  0  0  0  0  0  0  0  0  0  0  0
   -0.2481   -1.9186   -0.6255 C   0  0  0  0  0  0  0  0  0  0  0  0
    1.1172   -1.9313   -0.6127 C   0  0  0  0  0  0  0  0  0  0  0  0
    1.5276   -0.9241    0.2053 C   0  0  0  0  0  0  0  0  0  0  0  0
    2.8812   -0.4889    0.5911 C   0  0  0  0  0  0  0  0  0  0  0  0
    3.8845   -1.2194    0.2347 O   0  0  0  0  0  0  0  0  0  0  0  0
    3.2018    0.6347    1.3128 N   0  0  0  0  0  0  0  0  0  0  0  0
    4.2786    1.2784    1.8159 C   0  0  0  0  0  0  0  0  0  0  0  0
    5.4086    1.8138    1.1090 C   0  0  0  0  0  0  0  0  0  0  0  0
    6.3286    1.0032    0.3626 C   0  0  0  0  0  0  0  0  0  0  0  0
    7.4385    0.4417    1.0225 C   0  0  0  0  0  0  0  0  0  0  0  0
    8.3552   -0.3128    0.2854 C   0  0  0  0  0  0  0  0  0  0  0  0
    8.1802   -0.5074   -1.0657 C   0  0  0  0  0  0  0  0  0  0  0  0
    7.1030    0.0366   -1.7055 C   0  0  0  0  0  0  0  0  0  0  0  0
    6.2035    0.7773   -0.9723 C   0  0  0  0  0  0  0  0  0  0  0  0
    0.4290   -0.3323    0.6607 O   0  0  0  0  0  0  0  0  0  0  0  0
  1  2  1  0
  2  3  1  0
  2  4  1  0
  2  5  1  0
  5  6  1  0
  6  7  1  0
  7  8  2  0
  8  9  1  0
  9 10  2  0
 10 11  1  0
 10 12  1  0
 12 13  2  0
  5 14  1  0
 14 15  1  0
 15 16  2  0
 16 17  1  0
 17 18  2  0
 18 19  1  0
 19 20  2  0
 19 21  1  0
 21 22  1  0
 22 23  1  0
 23 24  1  0
 24 25  2  0
 25 26  1  0
 26 27  2  0
 27 28  1  0
 28 29  2  0
 18 30  1  0
 13  7  1  0
 30 15  1  0
 29 24  1  0
M  END
>  <zinc_id>  (1) 
ZINC000004378885

>  <smiles>  (1) 
CC(C)(C)N(Cc1ccc(F)cc1)Cc1ccc(C(=O)NCCc2ccccc2)o1

$$$$
