
     RDKit          3D

 33 37  0  0  0  0  0  0  0  0999 V2000
    5.1021   -1.4116    2.2662 O   0  0  0  0  0  0  0  0  0  0  0  0
    4.8720   -0.7549    1.2049 C   0  0  0  0  0  0  0  0  0  0  0  0
    3.5714   -0.8288    0.6188 N   0  0  0  0  0  0  0  0  0  0  0  0
    2.5721   -1.6436    1.2514 C   0  0  0  0  0  0  0  0  0  0  0  0
    1.5641   -0.9053    2.0567 C   0  0  0  0  0  0  0  0  0  0  0  0
    0.1437   -1.3163    1.7928 C   0  0  0  0  0  0  0  0  0  0  0  0
    0.0027   -1.4495    0.3396 N   0  0  0  0  0  0  0  0  0  0  0  0
    0.8485   -0.4288   -0.2384 C   0  0  0  0  0  0  0  0  0  0  0  0
    0.2047    0.9048    0.1042 C   0  0  0  0  0  0  0  0  0  0  0  0
   -1.1638    0.9217   -0.4760 C   0  0  0  0  0  0  0  0  0  0  0  0
   -1.8469   -0.1349   -1.0661 C   0  0  0  0  0  0  0  0  0  0  0  0
   -3.0485    0.2695   -1.4404 N   0  0  0  0  0  0  0  0  0  0  0  0
   -4.0414   -0.5675   -2.0953 C   0  0  0  0  0  0  0  0  0  0  0  0
   -4.9362   -1.2110   -1.1145 C   0  0  0  0  0  0  0  0  0  0  0  0
   -4.6713   -2.4012   -0.4984 C   0  0  0  0  0  0  0  0  0  0  0  0
   -5.5328   -2.9762    0.4044 C   0  0  0  0  0  0  0  0  0  0  0  0
   -6.7179   -2.3601    0.7252 C   0  0  0  0  0  0  0  0  0  0  0  0
   -6.9883   -1.1566    0.1029 C   0  0  0  0  0  0  0  0  0  0  0  0
   -6.1300   -0.5861   -0.7940 C   0  0  0  0  0  0  0  0  0  0  0  0
   -3.2218    1.5638   -1.1371 C   0  0  0  0  0  0  0  0  0  0  0  0
   -4.2866    2.4172   -1.3337 C   0  0  0  0  0  0  0  0  0  0  0  0
   -4.1791    3.7228   -0.9125 C   0  0  0  0  0  0  0  0  0  0  0  0
   -3.0091    4.1314   -0.3078 C   0  0  0  0  0  0  0  0  0  0  0  0
   -1.9398    3.2846   -0.1110 C   0  0  0  0  0  0  0  0  0  0  0  0
   -2.0563    1.9724   -0.5388 C   0  0  0  0  0  0  0  0  0  0  0  0
    0.6388   -2.7332    0.0249 C   0  0  0  0  0  0  0  0  0  0  0  0
    2.0636   -2.7701    0.4417 C   0  0  0  0  0  0  0  0  0  0  0  0
    5.9691    0.0282    0.6671 C   0  0  0  0  0  0  0  0  0  0  0  0
    5.8629    0.7491   -0.5123 C   0  0  0  0  0  0  0  0  0  0  0  0
    6.8585    1.4940   -1.0633 C   0  0  0  0  0  0  0  0  0  0  0  0
    8.0647    1.5513   -0.4187 C   0  0  0  0  0  0  0  0  0  0  0  0
    8.2319    0.8527    0.7622 C   0  0  0  0  0  0  0  0  0  0  0  0
    7.1987    0.1044    1.2951 C   0  0  0  0  0  0  0  0  0  0  0  0
  1  2  2  0
  2  3  1  0
  3  4  1  0
  4  5  1  0
  5  6  1  0
  6  7  1  0
  7  8  1  0
  8  9  1  0
  9 10  1  0
 10 11  2  0
 11 12  1  0
 12 13  1  0
 13 14  1  0
 14 15  2  0
 15 16  1  0
 16 17  2  0
 17 18  1  0
 18 19  2  0
 12 20  1  0
 20 21  2  0
 21 22  1  0
 22 23  2  0
 23 24  1  0
 24 25  2  0
  7 26  1  0
 26 27  1  0
  2 28  1  0
 28 29  2  0
 29 30  1  0
 30 31  2  0
 31 32  1  0
 32 33  2  0
 27  4  1  0
 33 28  1  0
 25 10  1  0
 19 14  1  0
 25 20  1  0
M  END
>  <zinc_id>  (1) 
ZINC000003610404

>  <smiles>  (1) 
O=C(NC1CCN(CCc2cn(Cc3ccccc3)c3ccccc23)CC1)c1ccccc1

$$$$
