
     RDKit          3D

 30 33  0  0  0  0  0  0  0  0999 V2000
   -1.6142   -3.3997   -1.7218 C   0  0  0  0  0  0  0  0  0  0  0  0
   -2.3558   -1.9665   -1.3082 C   0  0  1  0  0  0  0  0  0  0  0  0
   -3.0167   -2.5580   -0.0498 O   0  0  0  0  0  0  0  0  0  0  0  0
   -3.7864   -1.8381    0.7449 C   0  0  0  0  0  0  0  0  0  0  0  0
   -4.3432   -2.4313    1.8501 C   0  0  0  0  0  0  0  0  0  0  0  0
   -5.1526   -1.7835    2.7378 C   0  0  0  0  0  0  0  0  0  0  0  0
   -5.4290   -0.4734    2.5227 C   0  0  0  0  0  0  0  0  0  0  0  0
   -4.9094    0.1799    1.4437 C   0  0  0  0  0  0  0  0  0  0  0  0
   -4.0853   -0.5066    0.5527 C   0  0  0  0  0  0  0  0  0  0  0  0
   -3.7425    0.4354   -0.4019 O   0  0  0  0  0  0  0  0  0  0  0  0
   -4.6566    1.5177   -0.4300 C   0  0  0  0  0  0  0  0  0  0  0  0
   -5.8084    1.0597   -1.3219 C   0  0  0  0  0  0  0  0  0  0  0  0
   -4.0276    2.7751   -0.9315 C   0  0  0  0  0  0  0  0  0  0  0  0
   -5.0747    1.5873    1.0155 C   0  0  0  0  0  0  0  0  0  0  0  0
   -1.0579   -1.3234   -0.6536 C   0  0  0  0  0  0  0  0  0  0  0  0
   -0.8364   -1.3932    0.5402 O   0  0  0  0  0  0  0  0  0  0  0  0
   -0.1942   -0.6768   -1.5358 N   0  0  0  0  0  0  0  0  0  0  0  0
    1.0340   -0.0340   -1.1222 C   0  0  0  0  0  0  0  0  0  0  0  0
    1.8417    0.5872   -2.0449 C   0  0  0  0  0  0  0  0  0  0  0  0
    3.0270    1.2095   -1.6579 C   0  0  0  0  0  0  0  0  0  0  0  0
    3.4318    1.2239   -0.3334 C   0  0  0  0  0  0  0  0  0  0  0  0
    4.6032    1.8316    0.0928 O   0  0  0  0  0  0  0  0  0  0  0  0
    5.8185    1.1855    0.1651 C   0  0  0  0  0  0  0  0  0  0  0  0
    5.8881   -0.1401   -0.2042 C   0  0  0  0  0  0  0  0  0  0  0  0
    7.0528   -0.8666   -0.1661 C   0  0  0  0  0  0  0  0  0  0  0  0
    8.2091   -0.2738    0.2526 C   0  0  0  0  0  0  0  0  0  0  0  0
    8.1630    1.0384    0.6230 C   0  0  0  0  0  0  0  0  0  0  0  0
    6.9987    1.7541    0.5819 C   0  0  0  0  0  0  0  0  0  0  0  0
    2.5982    0.5921    0.5632 C   0  0  0  0  0  0  0  0  0  0  0  0
    1.4248   -0.0268    0.1972 C   0  0  0  0  0  0  0  0  0  0  0  0
  2  1  1  1
  2  3  1  0
  3  4  1  0
  4  5  2  0
  5  6  1  0
  6  7  2  0
  7  8  1  0
  8  9  2  0
  9 10  1  0
 10 11  1  0
 11 12  1  0
 11 13  1  0
 11 14  1  0
  2 15  1  0
 15 16  2  0
 15 17  1  0
 17 18  1  0
 18 19  2  0
 19 20  1  0
 20 21  2  0
 21 22  1  0
 22 23  1  0
 23 24  2  0
 24 25  1  0
 25 26  2  0
 26 27  1  0
 27 28  2  0
 21 29  1  0
 29 30  2  0
  9  4  1  0
 30 18  1  0
 14  8  1  0
 28 23  1  0
M  END
>  <zinc_id>  (1) 
ZINC000003304833

>  <smiles>  (1) 
C[C@H](Oc1cccc2c1OC(C)(C)C2)C(=O)Nc1ccc(Oc2ccccc2)cc1

$$$$
