
     RDKit          3D

 20 22  0  0  0  0  0  0  0  0999 V2000
    0.3757    1.4486   -3.0655 N   0  0  0  0  0  0  0  0  0  0  0  0
    1.2167    0.7944   -2.0832 C   0  0  0  0  0  0  0  0  0  0  0  0
    2.9059    0.8588   -1.9034 S   0  0  0  0  0  0  0  0  0  0  0  0
    3.0745   -0.1583   -0.5540 C   0  0  0  0  0  0  0  0  0  0  0  0
    1.7843   -0.5311   -0.2706 C   0  0  0  0  0  0  0  0  0  0  0  0
    0.8124   -0.0384   -1.0632 C   0  0  0  0  0  0  0  0  0  0  0  0
   -0.6375   -0.3558   -0.8766 C   0  0  0  0  0  0  0  0  0  0  0  0
   -1.5048    0.1255   -1.6379 O   0  0  0  0  0  0  0  0  0  0  0  0
   -1.1042   -1.2065    0.1572 N   0  0  0  0  0  0  0  0  0  0  0  0
   -2.4818   -1.5363    0.3711 C   0  0  0  0  0  0  0  0  0  0  0  0
   -3.2996   -0.2981    0.6422 C   0  0  0  0  0  0  0  0  0  0  0  0
   -2.8284    0.9960    0.6876 C   0  0  0  0  0  0  0  0  0  0  0  0
   -3.9026    1.8142    0.9626 C   0  0  0  0  0  0  0  0  0  0  0  0
   -4.9796    0.9695    1.0710 C   0  0  0  0  0  0  0  0  0  0  0  0
   -4.5806   -0.2369    0.8782 O   0  0  0  0  0  0  0  0  0  0  0  0
    1.4250   -1.4637    0.8865 C   0  0  0  0  0  0  0  0  0  0  0  0
    2.1375   -1.0638    2.1336 C   0  0  0  0  0  0  0  0  0  0  0  0
    2.8971    0.2280    1.9286 C   0  0  0  0  0  0  0  0  0  0  0  0
    4.3278   -0.1523    1.5911 C   0  0  0  0  0  0  0  0  0  0  0  0
    4.3622   -0.5408    0.1446 C   0  0  0  0  0  0  0  0  0  0  0  0
  1  2  1  0
  2  3  1  0
  3  4  1  0
  4  5  2  0
  5  6  1  0
  6  7  1  0
  7  8  2  0
  7  9  1  0
  9 10  1  0
 10 11  1  0
 11 12  2  0
 12 13  1  0
 13 14  2  0
 14 15  1  0
  5 16  1  0
 16 17  1  0
 17 18  1  0
 18 19  1  0
 19 20  1  0
  6  2  2  0
 15 11  1  0
 20  4  1  0
M  END
>  <zinc_id>  (1) 
ZINC000002558530

>  <smiles>  (1) 
Nc1sc2c(c1C(=O)NCc1ccco1)CCCCC2

$$$$
