
     RDKit          3D

 20 21  0  0  0  0  0  0  0  0999 V2000
   -2.4444   -3.8264    0.3274 C   0  0  0  0  0  0  0  0  0  0  0  0
   -1.5616   -2.7041    0.2472 O   0  0  0  0  0  0  0  0  0  0  0  0
   -2.0740   -1.4341    0.0117 C   0  0  0  0  0  0  0  0  0  0  0  0
   -3.4466   -1.2364   -0.1489 C   0  0  0  0  0  0  0  0  0  0  0  0
   -3.9569    0.0236   -0.3828 C   0  0  0  0  0  0  0  0  0  0  0  0
   -5.6858    0.2705   -0.5847 Cl  0  0  0  0  0  0  0  0  0  0  0  0
   -3.0648    1.0705   -0.4509 C   0  0  0  0  0  0  0  0  0  0  0  0
   -3.5829    2.4320   -0.7005 C   0  0  0  0  0  0  0  0  0  0  0  0
   -1.7129    0.8637   -0.2910 C   0  0  0  0  0  0  0  0  0  0  0  0
   -1.1832   -0.3856   -0.0568 C   0  0  0  0  0  0  0  0  0  0  0  0
    0.2103   -0.6060    0.1091 N   0  0  0  0  0  0  0  0  0  0  0  0
    1.1293    0.4447    0.0430 C   0  0  0  0  0  0  0  0  0  0  0  0
    0.6735    1.6140   -0.1723 O   0  0  0  0  0  0  0  0  0  0  0  0
    2.5628    0.3143    0.1995 C   0  0  0  0  0  0  0  0  0  0  0  0
    3.1370   -0.9144    0.4349 C   0  0  0  0  0  0  0  0  0  0  0  0
    4.4854   -1.1256    0.5951 C   0  0  0  0  0  0  0  0  0  0  0  0
    5.3349   -0.0531    0.5191 C   0  0  0  0  0  0  0  0  0  0  0  0
    4.8004    1.1917    0.2852 C   0  0  0  0  0  0  0  0  0  0  0  0
    3.4308    1.3814    0.1261 C   0  0  0  0  0  0  0  0  0  0  0  0
    2.9487    2.6792   -0.1106 N   0  0  0  0  0  0  0  0  0  0  0  0
  1  2  1  0
  2  3  1  0
  3  4  2  0
  4  5  1  0
  5  6  1  0
  5  7  2  0
  7  8  1  0
  7  9  1  0
  9 10  2  0
 10 11  1  0
 11 12  1  0
 12 13  2  0
 12 14  1  0
 14 15  2  0
 15 16  1  0
 16 17  2  0
 17 18  1  0
 18 19  2  0
 19 20  1  0
 10  3  1  0
 19 14  1  0
M  END
>  <zinc_id>  (1) 
ZINC000003319694

>  <smiles>  (1) 
COc1cc(Cl)c(C)cc1NC(=O)c1ccccc1N

$$$$
