
     RDKit          3D

 32 36  0  0  0  0  0  0  0  0999 V2000
    8.8056   -0.4746    0.1501 C   0  0  0  0  0  0  0  0  0  0  0  0
    7.4663   -0.9398    0.6111 C   0  0  0  0  0  0  0  0  0  0  0  0
    6.4907   -0.0193    0.1981 O   0  0  0  0  0  0  0  0  0  0  0  0
    5.1527   -0.2588    0.5222 C   0  0  0  0  0  0  0  0  0  0  0  0
    4.7627   -1.3760    1.2375 C   0  0  0  0  0  0  0  0  0  0  0  0
    3.4461   -1.6257    1.5630 C   0  0  0  0  0  0  0  0  0  0  0  0
    2.4842   -0.7637    1.1815 C   0  0  0  0  0  0  0  0  0  0  0  0
    1.0808   -0.9227    1.4408 N   0  0  0  0  0  0  0  0  0  0  0  0
    0.1677    0.0313    1.0794 C   0  0  0  0  0  0  0  0  0  0  0  0
    0.4477    1.1043    0.5129 O   0  0  0  0  0  0  0  0  0  0  0  0
   -1.4090   -0.2040    1.3860 C   0  0  1  0  0  0  0  0  0  0  0  0
   -1.9433    1.0773    0.8438 N   0  0  0  0  0  0  0  0  0  0  0  0
   -2.8448    1.3874   -0.0746 C   0  0  0  0  0  0  0  0  0  0  0  0
   -3.4583    0.5426   -0.7030 O   0  0  0  0  0  0  0  0  0  0  0  0
   -3.1494    2.8077   -0.3809 C   0  0  0  0  0  0  0  0  0  0  0  0
   -3.8458    3.1267   -1.5411 C   0  0  0  0  0  0  0  0  0  0  0  0
   -4.1742    4.4198   -1.8923 C   0  0  0  0  0  0  0  0  0  0  0  0
   -3.7758    5.4145   -1.0269 C   0  0  0  0  0  0  0  0  0  0  0  0
   -3.0888    5.1271    0.1224 C   0  0  0  0  0  0  0  0  0  0  0  0
   -2.7800    3.8293    0.4384 C   0  0  0  0  0  0  0  0  0  0  0  0
   -1.5677   -1.2823    0.1900 C   0  0  0  0  0  0  0  0  0  0  0  0
   -2.9663   -1.7799    0.2130 C   0  0  0  0  0  0  0  0  0  0  0  0
   -3.1705   -2.6777   -0.9626 C   0  0  0  0  0  0  0  0  0  0  0  0
   -2.3365   -3.9260   -0.6342 C   0  0  0  0  0  0  0  0  0  0  0  0
   -0.9219   -3.5357   -0.3647 C   0  0  0  0  0  0  0  0  0  0  0  0
   -0.3312   -2.9682   -1.6555 C   0  0  0  0  0  0  0  0  0  0  0  0
   -1.1563   -1.7541   -2.1080 C   0  0  0  0  0  0  0  0  0  0  0  0
   -2.6135   -2.1413   -2.2584 C   0  0  0  0  0  0  0  0  0  0  0  0
   -1.0634   -0.7160   -1.0592 C   0  0  0  0  0  0  0  0  0  0  0  0
   -0.7310   -2.4915    0.6782 C   0  0  0  0  0  0  0  0  0  0  0  0
    2.8579    0.3580    0.4672 C   0  0  0  0  0  0  0  0  0  0  0  0
    4.1653    0.6313    0.1286 C   0  0  0  0  0  0  0  0  0  0  0  0
  1  2  1  0
  2  3  1  0
  3  4  1  0
  4  5  2  0
  5  6  1  0
  6  7  2  0
  7  8  1  0
  8  9  1  0
  9 10  2  0
  9 11  1  0
 11 12  1  6
 12 13  1  0
 13 14  2  0
 13 15  1  0
 15 16  2  0
 16 17  1  0
 17 18  2  0
 18 19  1  0
 19 20  2  0
 11 21  1  0
 21 22  1  0
 22 23  1  0
 23 24  1  0
 24 25  1  0
 25 26  1  0
 26 27  1  0
 27 28  1  0
 27 29  1  0
 25 30  1  0
  7 31  1  0
 31 32  2  0
 32  4  1  0
 20 15  1  0
 29 21  1  0
 30 21  1  0
 28 23  1  0
M  END
>  <zinc_id>  (1) 
ZINC000004428158

>  <smiles>  (1) 
CCOc1ccc(NC(=O)[C@@H](NC(=O)c2ccccc2)C23CC4CC(CC(C4)C2)C3)cc1

$$$$
