
     RDKit          3D

 22 24  0  0  0  0  0  0  0  0999 V2000
    0.4257    1.6578    1.2920 O   0  0  0  0  0  0  0  0  0  0  0  0
    0.5333    0.6177    0.6336 C   0  0  0  0  0  0  0  0  0  0  0  0
   -0.6176   -0.0066    0.1281 N   0  0  0  0  0  0  0  0  0  0  0  0
   -1.9365    0.4866    0.3252 C   0  0  0  0  0  0  0  0  0  0  0  0
   -2.2157    1.6380    1.0396 C   0  0  0  0  0  0  0  0  0  0  0  0
   -3.5473    2.0415    1.1780 C   0  0  0  0  0  0  0  0  0  0  0  0
   -4.5857    1.3092    0.6133 C   0  0  0  0  0  0  0  0  0  0  0  0
   -4.2939    0.1699   -0.0922 C   0  0  0  0  0  0  0  0  0  0  0  0
   -2.9718   -0.2150   -0.2194 C   0  0  0  0  0  0  0  0  0  0  0  0
   -2.6888   -1.4518   -0.9884 C   0  0  0  0  0  0  0  0  0  0  0  0
   -3.6097   -2.5289   -0.5193 C   0  0  0  0  0  0  0  0  0  0  0  0
   -5.0316   -2.1094   -0.3531 C   0  0  0  0  0  0  0  0  0  0  0  0
   -5.3150   -0.6939   -0.7397 C   0  0  0  0  0  0  0  0  0  0  0  0
    1.8350   -0.0169    0.3441 C   0  0  0  0  0  0  0  0  0  0  0  0
    1.9341   -1.1682   -0.3863 C   0  0  0  0  0  0  0  0  0  0  0  0
    3.1755   -1.7364   -0.6386 C   0  0  0  0  0  0  0  0  0  0  0  0
    4.3177   -1.1386   -0.1512 C   0  0  0  0  0  0  0  0  0  0  0  0
    4.2594    0.0359    0.5978 C   0  0  0  0  0  0  0  0  0  0  0  0
    5.4341    0.6421    1.0936 N   0  0  0  0  0  4  0  0  0  0  0  0
    6.5289    0.1242    0.8603 O   0  0  0  0  0  0  0  0  0  0  0  0
    5.3733    1.7882    1.8241 O   0  0  0  0  0  1  0  0  0  0  0  0
    2.9969    0.5546    0.8165 C   0  0  0  0  0  0  0  0  0  0  0  0
  1  2  2  0
  2  3  1  0
  3  4  1  0
  4  5  2  0
  5  6  1  0
  6  7  2  0
  7  8  1  0
  8  9  2  0
  9 10  1  0
 10 11  1  0
 11 12  1  0
 12 13  1  0
  2 14  1  0
 14 15  2  0
 15 16  1  0
 16 17  2  0
 17 18  1  0
 18 19  1  0
 19 20  2  0
 19 21  1  0
 18 22  2  0
  9  4  1  0
 22 14  1  0
 13  8  1  0
M  CHG  2  19   1  21  -1
M  END
>  <zinc_id>  (1) 
ZINC000000210711

>  <smiles>  (1) 
O=C(Nc1cccc2c1CCCC2)c1cccc([N+](=O)[O-])c1

$$$$
