
     RDKit          3D

 18 19  0  0  0  0  0  0  0  0999 V2000
    3.5561    2.8236   -0.8802 C   0  0  0  0  0  0  0  0  0  0  0  0
    3.7900    1.2141   -1.2640 C   0  0  2  0  0  0  0  0  0  0  0  0
    2.3250    0.8102   -0.6251 C   0  0  0  0  0  0  0  0  0  0  0  0
    2.3401   -0.4459   -0.1940 C   0  0  0  0  0  0  0  0  0  0  0  0
    1.1885   -1.0143    0.3970 N   0  0  0  0  0  0  0  0  0  0  0  0
   -0.0600   -0.4555    0.1277 N   0  0  0  0  0  0  0  0  0  0  0  0
   -1.2319   -1.2345   -0.0273 C   0  0  0  0  0  0  0  0  0  0  0  0
   -1.1352   -2.4864    0.0781 O   0  0  0  0  0  0  0  0  0  0  0  0
   -2.5102   -0.5942   -0.3016 C   0  0  0  0  0  0  0  0  0  0  0  0
   -3.6527   -1.3902   -0.4674 C   0  0  0  0  0  0  0  0  0  0  0  0
   -4.8753   -0.8117   -0.7292 C   0  0  0  0  0  0  0  0  0  0  0  0
   -4.9825    0.5665   -0.8302 C   0  0  0  0  0  0  0  0  0  0  0  0
   -3.8804    1.3643   -0.6711 C   0  0  0  0  0  0  0  0  0  0  0  0
   -2.6629    0.7676   -0.4092 C   0  0  0  0  0  0  0  0  0  0  0  0
   -1.0820    1.8373   -0.1797 Br  0  0  0  0  0  0  0  0  0  0  0  0
    3.5390   -1.3015   -0.3095 C   0  0  0  0  0  0  0  0  0  0  0  0
    4.7905   -0.5667    0.0991 C   0  0  0  0  0  0  0  0  0  0  0  0
    4.5440    0.9173    0.2009 C   0  0  0  0  0  0  0  0  0  0  0  0
  2  1  1  1
  2  3  1  0
  3  4  2  0
  4  5  1  0
  5  6  1  0
  6  7  1  0
  7  8  2  0
  7  9  1  0
  9 10  2  0
 10 11  1  0
 11 12  2  0
 12 13  1  0
 13 14  2  0
 14 15  1  0
  4 16  1  0
 16 17  1  0
 17 18  1  0
 18  2  1  0
 14  9  1  0
M  END
>  <zinc_id>  (1) 
ZINC000003233625

>  <smiles>  (1) 
C[C@@H]1C=C(NNC(=O)c2ccccc2Br)CCC1

$$$$
