
     RDKit          3D

 21 23  0  0  0  0  0  0  0  0999 V2000
    4.9563   -1.5928    1.5728 C   0  0  0  0  0  0  0  0  0  0  0  0
    3.6806   -1.9903    1.1560 O   0  0  0  0  0  0  0  0  0  0  0  0
    2.8758   -1.1271    0.4147 C   0  0  0  0  0  0  0  0  0  0  0  0
    1.6144   -1.4885   -0.0109 C   0  0  0  0  0  0  0  0  0  0  0  0
    0.8821   -0.5860   -0.7356 C   0  0  0  0  0  0  0  0  0  0  0  0
    1.3397    0.6696   -1.0641 C   0  0  0  0  0  0  0  0  0  0  0  0
    0.5586    1.6588   -1.8485 C   0  0  0  0  0  0  0  0  0  0  0  0
   -0.7405    1.1397   -2.2238 N   0  0  0  0  0  0  0  0  0  0  0  0
   -1.6644    0.7426   -1.1886 C   0  0  0  0  0  0  0  0  0  0  0  0
   -2.8993    0.2456   -1.3774 N   0  0  0  0  0  0  0  0  0  0  0  0
   -3.4594   -0.0074   -0.1805 C   0  0  0  0  0  0  0  0  0  0  0  0
   -4.6914   -0.5160    0.2266 C   0  0  0  0  0  0  0  0  0  0  0  0
   -5.0209   -0.6782    1.5551 C   0  0  0  0  0  0  0  0  0  0  0  0
   -4.1045   -0.3274    2.5308 C   0  0  0  0  0  0  0  0  0  0  0  0
   -2.8703    0.1820    2.1319 C   0  0  0  0  0  0  0  0  0  0  0  0
   -2.5510    0.3402    0.7982 C   0  0  0  0  0  0  0  0  0  0  0  0
   -1.4725    0.7920    0.1379 N   0  0  0  0  0  0  0  0  0  0  0  0
    2.6111    1.0349   -0.6355 C   0  0  0  0  0  0  0  0  0  0  0  0
    3.1623    2.2580   -0.9069 O   0  0  0  0  0  0  0  0  0  0  0  0
    4.4579    2.5709   -0.4447 C   0  0  0  0  0  0  0  0  0  0  0  0
    3.3352    0.1159    0.0925 C   0  0  0  0  0  0  0  0  0  0  0  0
  1  2  1  0
  2  3  1  0
  3  4  2  0
  4  5  1  0
  5  6  2  0
  6  7  1  0
  7  8  1  0
  8  9  1  0
  9 10  2  0
 10 11  1  0
 11 12  2  0
 12 13  1  0
 13 14  2  0
 14 15  1  0
 15 16  2  0
 16 17  1  0
  6 18  1  0
 18 19  1  0
 19 20  1  0
 18 21  2  0
 21  3  1  0
 17  9  1  0
 16 11  1  0
M  END
>  <zinc_id>  (1) 
ZINC000000117991

>  <smiles>  (1) 
COc1ccc(CNc2nc3ccccc3[nH]2)c(OC)c1

$$$$
