
     RDKit          3D

 20 21  0  0  0  0  0  0  0  0999 V2000
   -0.5093    4.6177    1.1944 C   0  0  0  0  0  0  0  0  0  0  0  0
   -0.5769    3.4886    0.2375 C   0  0  0  0  0  0  0  0  0  0  0  0
    0.3317    4.1574   -1.0349 C   0  0  0  0  0  0  0  0  0  0  0  0
    0.3018    2.3392    0.4190 O   0  0  0  0  0  0  0  0  0  0  0  0
   -0.4537    1.1236    0.4080 C   0  0  0  0  0  0  0  0  0  0  0  0
   -1.7300    1.1595    1.1157 C   0  0  0  0  0  0  0  0  0  0  0  0
   -2.5603   -0.0094    1.1822 C   0  0  0  0  0  0  0  0  0  0  0  0
   -2.1129   -1.1961    0.5643 C   0  0  0  0  0  0  0  0  0  0  0  0
   -2.7526   -2.3418    0.6549 C   0  0  0  0  0  0  0  0  0  0  0  0
   -2.2334   -3.5142    0.1172 C   0  0  0  0  0  0  0  0  0  0  0  0
   -1.0375   -3.4836   -0.5145 C   0  0  0  0  0  0  0  0  0  0  0  0
   -0.3310   -2.3258   -0.6448 C   0  0  0  0  0  0  0  0  0  0  0  0
   -0.8746   -1.1624   -0.1048 C   0  0  0  0  0  0  0  0  0  0  0  0
   -0.1517   -0.0127   -0.1314 C   0  0  0  0  0  0  0  0  0  0  0  0
    1.0543   -0.1326   -1.0851 C   0  0  0  0  0  0  0  0  0  0  0  0
    0.8149    0.1955   -2.2664 O   0  0  0  0  0  0  0  0  0  0  0  0
    2.2302   -0.5600   -0.6182 N   0  0  0  0  0  0  0  0  0  0  0  0
    3.1352   -0.6859    0.1279 C   0  0  0  0  0  0  0  0  0  0  0  0
    4.2279   -1.5237   -0.2867 N   0  0  0  0  0  0  0  0  0  0  0  0
    3.2279   -0.1333    1.4782 N   0  0  0  0  0  0  0  0  0  0  0  0
  1  2  1  0
  2  3  1  0
  2  4  1  0
  4  5  1  0
  5  6  2  0
  6  7  1  0
  7  8  2  0
  8  9  1  0
  9 10  2  0
 10 11  1  0
 11 12  2  0
 12 13  1  0
 13 14  2  0
 14 15  1  0
 15 16  2  0
 15 17  1  0
 17 18  2  3
 18 19  1  0
 18 20  1  0
 14  5  1  0
 13  8  1  0
M  END
>  <zinc_id>  (1) 
ZINC000003960801

>  <smiles>  (1) 
CC(C)Oc1ccc2ccccc2c1C(=O)N=C(N)N

$$$$
