
     RDKit          3D

 19 21  0  0  0  0  0  0  0  0999 V2000
   -1.0584   -1.5333   -0.2780 O   0  0  0  0  0  0  0  0  0  0  0  0
   -1.3968   -0.9608    0.7224 C   0  0  0  0  0  0  0  0  0  0  0  0
   -0.4684   -0.4092    1.6073 N   0  0  0  0  0  0  0  0  0  0  0  0
    0.9033   -0.5488    1.2821 N   0  0  0  0  0  0  0  0  0  0  0  0
    1.3939    0.2788    0.4498 C   0  0  0  0  0  0  0  0  0  0  0  0
    2.8156    0.2045    0.0554 C   0  0  0  0  0  0  0  0  0  0  0  0
    3.5971   -0.7725    0.6024 C   0  0  0  0  0  0  0  0  0  0  0  0
    4.9013   -0.9014    0.2901 C   0  0  0  0  0  0  0  0  0  0  0  0
    5.4436    0.0054   -0.6234 C   0  0  0  0  0  0  0  0  0  0  0  0
    4.6447    0.9876   -1.1690 C   0  0  0  0  0  0  0  0  0  0  0  0
    3.3148    1.0917   -0.8282 C   0  0  0  0  0  0  0  0  0  0  0  0
    2.4773    2.0817   -1.3680 O   0  0  0  0  0  0  0  0  0  0  0  0
   -2.8754   -0.7435    1.1873 C   0  0  2  0  0  0  0  0  0  0  0  0
   -3.6077   -1.4558    0.0150 C   0  0  0  0  0  0  0  0  0  0  0  0
   -4.4905   -0.4250   -0.7456 C   0  0  1  0  0  0  0  0  0  0  0  0
   -5.1442    0.5120    0.3573 C   0  0  0  0  0  0  0  0  0  0  0  0
   -4.3739    1.1664    1.0002 C   0  0  0  0  0  0  0  0  0  0  0  0
   -2.9062    0.8988    0.5728 C   0  0  2  0  0  0  0  0  0  0  0  0
   -3.1699    0.5234   -0.9385 C   0  0  0  0  0  0  0  0  0  0  0  0
  1  2  2  0
  2  3  1  0
  3  4  1  0
  4  5  2  0
  5  6  1  0
  6  7  2  0
  7  8  1  0
  8  9  2  0
  9 10  1  0
 10 11  2  0
 11 12  1  0
 13  2  1  6
 13 14  1  0
 15 14  1  1
 15 16  1  0
 16 17  2  0
 18 17  1  1
 18 19  1  0
 11  6  1  0
 18 13  1  0
 19 15  1  0
M  END
>  <zinc_id>  (1) 
ZINC000000047984

>  <smiles>  (1) 
O=C(N/N=C/c1ccccc1O)[C@@H]1C[C@H]2C=C[C@@H]1C2

$$$$
