
     RDKit          3D

 20 22  0  0  0  0  0  0  0  0999 V2000
   -0.8089   -2.5328   -0.9927 C   0  0  0  0  0  0  0  0  0  0  0  0
   -1.6350   -1.3951   -0.5221 C   0  0  0  0  0  0  0  0  0  0  0  0
   -2.8940   -1.6422   -0.0879 C   0  0  0  0  0  0  0  0  0  0  0  0
   -3.7750   -0.7001    0.3752 C   0  0  0  0  0  0  0  0  0  0  0  0
   -5.0598   -0.9715    0.8156 O   0  0  0  0  0  0  0  0  0  0  0  0
   -3.2951    0.6012    0.3821 C   0  0  0  0  0  0  0  0  0  0  0  0
   -4.0945    1.7408    0.8430 C   0  0  0  0  0  0  0  0  0  0  0  0
   -1.9959    0.8828   -0.0623 C   0  0  0  0  0  0  0  0  0  0  0  0
   -1.0367    2.3072   -0.2166 S   0  0  0  0  0  0  0  0  0  0  0  0
    0.3766    1.5915   -0.8458 C   0  0  0  0  0  0  0  0  0  0  0  0
    1.6411    2.1404   -1.2394 N   0  0  0  0  0  0  0  0  0  0  0  0
    2.7087    1.3449   -1.7505 C   0  0  0  0  0  0  0  0  0  0  0  0
    3.1437    0.3215   -0.7721 C   0  0  0  0  0  0  0  0  0  0  0  0
    2.5065    0.2767    0.4435 C   0  0  0  0  0  0  0  0  0  0  0  0
    2.8453   -0.6317    1.3963 C   0  0  0  0  0  0  0  0  0  0  0  0
    3.8508   -1.5254    1.1327 C   0  0  0  0  0  0  0  0  0  0  0  0
    4.4577   -1.4657   -0.0545 N   0  0  0  0  0  0  0  0  0  0  0  0
    4.1470   -0.5815   -1.0160 C   0  0  0  0  0  0  0  0  0  0  0  0
    0.0496    0.3140   -0.9063 N   0  0  0  0  0  0  0  0  0  0  0  0
   -1.1320   -0.0751   -0.5212 C   0  0  0  0  0  0  0  0  0  0  0  0
  1  2  1  0
  2  3  2  0
  3  4  1  0
  4  5  1  0
  4  6  2  0
  6  7  1  0
  6  8  1  0
  8  9  1  0
  9 10  1  0
 10 11  1  0
 11 12  1  0
 12 13  1  0
 13 14  2  0
 14 15  1  0
 15 16  2  0
 16 17  1  0
 17 18  2  0
 10 19  2  0
 19 20  1  0
 20  2  1  0
 20  8  2  0
 18 13  1  0
M  END
>  <zinc_id>  (1) 
ZINC000000007872

>  <smiles>  (1) 
Cc1cc(O)c(C)c2sc(NCc3cccnc3)nc12

$$$$
