
     RDKit          3D

 20 21  0  0  0  0  0  0  0  0999 V2000
   -5.1703    1.3775   -0.0383 C   0  0  0  0  0  0  0  0  0  0  0  0
   -3.7707    0.8771   -0.0623 C   0  0  0  0  0  0  0  0  0  0  0  0
   -2.7962    1.4718    0.7120 C   0  0  0  0  0  0  0  0  0  0  0  0
   -1.5050    0.9966    0.6730 C   0  0  0  0  0  0  0  0  0  0  0  0
   -1.1404   -0.0610   -0.1161 C   0  0  0  0  0  0  0  0  0  0  0  0
    0.2434   -0.5325   -0.1231 C   0  0  0  0  0  0  0  0  0  0  0  0
    0.5656   -1.8458   -0.0414 C   0  0  0  0  0  0  0  0  0  0  0  0
    1.8925   -2.2191   -0.0577 C   0  0  0  0  0  0  0  0  0  0  0  0
    2.9183   -1.2964   -0.1556 C   0  0  0  0  0  0  0  0  0  0  0  0
    4.3248   -1.7537   -0.1728 C   0  0  0  0  0  0  0  0  0  0  0  0
    2.5742    0.0348   -0.2375 C   0  0  0  0  0  0  0  0  0  0  0  0
    3.5434    1.0510   -0.3386 N   0  0  0  0  0  4  0  0  0  0  0  0
    4.2297    1.3702    0.6389 O   0  0  0  0  0  0  0  0  0  0  0  0
    3.7358    1.6986   -1.5232 O   0  0  0  0  0  1  0  0  0  0  0  0
    1.2469    0.4012   -0.2205 C   0  0  0  0  0  0  0  0  0  0  0  0
    0.8813    1.8467   -0.3101 C   0  0  0  0  0  0  0  0  0  0  0  0
   -2.1134   -0.6466   -0.8824 C   0  0  0  0  0  0  0  0  0  0  0  0
   -1.7873   -1.7941   -1.7555 C   0  0  0  0  0  0  0  0  0  0  0  0
   -3.4152   -0.1983   -0.8692 C   0  0  0  0  0  0  0  0  0  0  0  0
   -4.4575   -0.7780   -1.6490 N   0  0  0  0  0  0  0  0  0  0  0  0
  1  2  1  0
  2  3  2  0
  3  4  1  0
  4  5  2  0
  5  6  1  0
  6  7  2  0
  7  8  1  0
  8  9  2  0
  9 10  1  0
  9 11  1  0
 11 12  1  0
 12 13  2  0
 12 14  1  0
 11 15  2  0
 15 16  1  0
  5 17  1  0
 17 18  1  0
 17 19  2  0
 19 20  1  0
 19  2  1  0
 15  6  1  0
M  CHG  2  12   1  14  -1
M  END
>  <zinc_id>  (1) 
ZINC000003199964

>  <smiles>  (1) 
Cc1ccc(-c2ccc(C)c([N+](=O)[O-])c2C)c(C)c1N

$$$$
