
     RDKit          3D

 32 35  0  0  0  0  0  0  0  0999 V2000
   -9.1228    1.4780   -0.9356 C   0  0  0  0  0  0  0  0  0  0  0  0
   -8.2698    1.0666    0.1196 O   0  0  0  0  0  0  0  0  0  0  0  0
   -6.9467    0.7320   -0.0850 C   0  0  0  0  0  0  0  0  0  0  0  0
   -6.3447    0.7714   -1.3238 C   0  0  0  0  0  0  0  0  0  0  0  0
   -4.9978    0.4214   -1.4741 C   0  0  0  0  0  0  0  0  0  0  0  0
   -4.2358    0.0255   -0.3902 C   0  0  0  0  0  0  0  0  0  0  0  0
   -2.7990   -0.3645   -0.5756 C   0  0  0  0  0  0  0  0  0  0  0  0
   -1.9723    0.8956   -0.4648 C   0  0  0  0  0  0  0  0  0  0  0  0
   -0.5403    0.6289   -0.6800 N   0  0  0  0  0  0  0  0  0  0  0  0
    0.2123   -0.1785    0.2295 C   0  0  0  0  0  0  0  0  0  0  0  0
   -0.4060   -0.6226    1.2173 O   0  0  0  0  0  0  0  0  0  0  0  0
    1.6178   -0.4779    0.0487 C   0  0  0  0  0  0  0  0  0  0  0  0
    2.6212    0.4406    0.3945 C   0  0  0  0  0  0  0  0  0  0  0  0
    3.9498    0.1672    0.1696 C   0  0  0  0  0  0  0  0  0  0  0  0
    4.9482    1.1953    0.5148 C   0  0  0  0  0  0  0  0  0  0  0  0
    4.5673    2.3896    1.0685 C   0  0  0  0  0  0  0  0  0  0  0  0
    5.4690    3.3794    1.3777 C   0  0  0  0  0  0  0  0  0  0  0  0
    6.8105    3.1413    1.1125 C   0  0  0  0  0  0  0  0  0  0  0  0
    7.2124    1.9429    0.5552 C   0  0  0  0  0  0  0  0  0  0  0  0
    6.2918    0.9677    0.2543 C   0  0  0  0  0  0  0  0  0  0  0  0
    6.7482   -0.3271   -0.3461 C   0  0  0  0  0  0  0  0  0  0  0  0
    4.3358   -0.9885   -0.3856 N   0  0  0  0  0  0  0  0  0  0  0  0
    3.3873   -1.9066   -0.7345 C   0  0  0  0  0  0  0  0  0  0  0  0
    3.7732   -3.1041   -1.2923 C   0  0  0  0  0  0  0  0  0  0  0  0
    2.8638   -4.0840   -1.6552 C   0  0  0  0  0  0  0  0  0  0  0  0
    1.5257   -3.8405   -1.4463 C   0  0  0  0  0  0  0  0  0  0  0  0
    1.1383   -2.6305   -0.8829 C   0  0  0  0  0  0  0  0  0  0  0  0
    2.0406   -1.6540   -0.5210 C   0  0  0  0  0  0  0  0  0  0  0  0
   -4.8585   -0.0063    0.8338 C   0  0  0  0  0  0  0  0  0  0  0  0
   -6.2052    0.3407    1.0103 C   0  0  0  0  0  0  0  0  0  0  0  0
   -6.7930    0.2982    2.2539 O   0  0  0  0  0  0  0  0  0  0  0  0
   -6.0214   -0.0971    3.3634 C   0  0  0  0  0  0  0  0  0  0  0  0
  1  2  1  0
  2  3  1  0
  3  4  2  0
  4  5  1  0
  5  6  2  0
  6  7  1  0
  7  8  1  0
  8  9  1  0
  9 10  1  0
 10 11  2  0
 10 12  1  0
 12 13  2  0
 13 14  1  0
 14 15  1  0
 15 16  2  0
 16 17  1  0
 17 18  2  0
 18 19  1  0
 19 20  2  0
 20 21  1  0
 14 22  2  0
 22 23  1  0
 23 24  2  0
 24 25  1  0
 25 26  2  0
 26 27  1  0
 27 28  2  0
  6 29  1  0
 29 30  2  0
 30 31  1  0
 31 32  1  0
 30  3  1  0
 28 12  1  0
 20 15  1  0
 28 23  1  0
M  END
>  <zinc_id>  (1) 
ZINC000000995087

>  <smiles>  (1) 
COc1ccc(CCNC(=O)c2cc(-c3ccccc3C)nc3ccccc23)cc1OC

$$$$
