
     RDKit          3D

 18 19  0  0  0  0  0  0  0  0999 V2000
   -3.4154    1.2829   -1.3383 O   0  0  0  0  0  0  0  0  0  0  0  0
   -3.9062    0.0622   -2.0656 C   0  0  2  0  0  0  0  0  0  0  0  0
   -5.2344   -0.1027   -1.1467 C   0  0  0  0  0  0  0  0  0  0  0  0
   -4.9762   -0.4536    0.2101 C   0  0  0  0  0  0  0  0  0  0  0  0
   -3.6930   -0.1132    0.8666 C   0  0  0  0  0  0  0  0  0  0  0  0
   -2.6277   -0.5981   -0.0084 N   0  0  0  0  0  0  0  0  0  0  0  0
   -1.2709   -0.6250    0.3489 C   0  0  0  0  0  0  0  0  0  0  0  0
   -0.8724   -0.0666    1.8120 S   0  0  0  0  0  0  0  0  0  0  0  0
   -0.2871   -1.1040   -0.5121 N   0  0  0  0  0  0  0  0  0  0  0  0
    1.1403   -1.1705   -0.2412 C   0  0  0  0  0  0  0  0  0  0  0  0
    1.5982    0.2727   -0.2130 C   0  0  0  0  0  0  0  0  0  0  0  0
    3.0392    0.4390    0.0447 C   0  0  0  0  0  0  0  0  0  0  0  0
    3.9505    0.4336   -1.0337 C   0  0  0  0  0  0  0  0  0  0  0  0
    5.2840    0.6045   -0.7558 C   0  0  0  0  0  0  0  0  0  0  0  0
    5.8083    0.7832    0.4863 C   0  0  0  0  0  0  0  0  0  0  0  0
    4.9121    0.7900    1.5657 C   0  0  0  0  0  0  0  0  0  0  0  0
    3.5850    0.6188    1.2862 C   0  0  0  0  0  0  0  0  0  0  0  0
   -3.0344   -1.0533   -1.2647 C   0  0  0  0  0  0  0  0  0  0  0  0
  2  1  1  1
  2  3  1  0
  3  4  1  0
  4  5  1  0
  5  6  1  0
  6  7  1  0
  7  8  2  0
  7  9  1  0
  9 10  1  0
 10 11  1  0
 11 12  1  0
 12 13  2  0
 13 14  1  0
 14 15  2  0
 15 16  1  0
 16 17  2  0
  6 18  1  0
 18  2  1  0
 17 12  1  0
M  END
>  <zinc_id>  (1) 
ZINC000001459881

>  <smiles>  (1) 
O[C@@H]1CCCN(C(=S)NCCc2ccccc2)C1

$$$$
