
     RDKit          3D

 32 35  0  0  0  0  0  0  0  0999 V2000
    7.6393   -0.7046   -1.8069 C   0  0  0  0  0  0  0  0  0  0  0  0
    6.5317   -0.6007   -0.6164 C   0  0  1  0  0  0  0  0  0  0  0  0
    7.6104   -0.8003    0.5745 C   0  0  0  0  0  0  0  0  0  0  0  0
    7.2235    0.2443    1.5740 C   0  0  0  0  0  0  0  0  0  0  0  0
    6.0338    1.0162    0.9066 C   0  0  2  0  0  0  0  0  0  0  0  0
    6.0922    2.3696    1.5545 C   0  0  0  0  0  0  0  0  0  0  0  0
    4.9230    0.1939    1.0699 C   0  0  0  0  0  0  0  0  0  0  0  0
    3.6881    0.0696    0.8513 O   0  0  0  0  0  0  0  0  0  0  0  0
    2.7064   -0.0211   -0.0679 C   0  0  0  0  0  0  0  0  0  0  0  0
    3.1613    0.0325   -1.2439 O   0  0  0  0  0  0  0  0  0  0  0  0
    1.2859   -0.1634    0.1676 C   0  0  0  0  0  0  0  0  0  0  0  0
    0.8124   -0.2196    1.4550 C   0  0  0  0  0  0  0  0  0  0  0  0
   -0.5637   -0.3576    1.6971 C   0  0  0  0  0  0  0  0  0  0  0  0
   -1.4490   -0.4377    0.6428 C   0  0  0  0  0  0  0  0  0  0  0  0
   -2.8556   -0.5788    0.8878 N   0  0  0  0  0  0  0  0  0  0  0  0
   -3.6053   -0.8120   -0.0807 N   0  0  0  0  0  0  0  0  0  0  0  0
   -4.9881   -0.9836   -0.0687 C   0  0  0  0  0  0  0  0  0  0  0  0
   -5.5105   -2.2478    0.0005 C   0  0  0  0  0  0  0  0  0  0  0  0
   -4.6749   -3.3792    0.0598 O   0  0  0  0  0  0  0  0  0  0  0  0
   -6.8856   -2.3731    0.0101 C   0  0  0  0  0  0  0  0  0  0  0  0
   -7.7130   -1.2676   -0.0478 C   0  0  0  0  0  0  0  0  0  0  0  0
   -7.1561    0.0121   -0.1179 C   0  0  0  0  0  0  0  0  0  0  0  0
   -7.9720    1.1313   -0.1765 C   0  0  0  0  0  0  0  0  0  0  0  0
   -7.3803    2.3760   -0.2448 C   0  0  0  0  0  0  0  0  0  0  0  0
   -5.9986    2.5121   -0.2549 C   0  0  0  0  0  0  0  0  0  0  0  0
   -5.1896    1.4163   -0.1975 C   0  0  0  0  0  0  0  0  0  0  0  0
   -5.7847    0.1585   -0.1286 C   0  0  0  0  0  0  0  0  0  0  0  0
   -0.9489   -0.3790   -0.6349 C   0  0  0  0  0  0  0  0  0  0  0  0
    0.4231   -0.2412   -0.9004 C   0  0  0  0  0  0  0  0  0  0  0  0
    6.6163    1.0092   -0.4891 C   0  0  0  0  0  0  0  0  0  0  0  0
    5.8518    1.6585   -1.5424 C   0  0  0  0  0  0  0  0  0  0  0  0
    8.0767    1.3675   -0.4312 C   0  0  0  0  0  0  0  0  0  0  0  0
  2  1  1  6
  2  3  1  0
  3  4  1  0
  4  5  1  0
  5  6  1  1
  5  7  1  0
  7  8  1  0
  8  9  1  0
  9 10  2  0
  9 11  1  0
 11 12  2  0
 12 13  1  0
 13 14  2  0
 14 15  1  0
 15 16  2  0
 16 17  1  0
 17 18  2  0
 18 19  1  0
 18 20  1  0
 20 21  2  0
 21 22  1  0
 22 23  2  0
 23 24  1  0
 24 25  2  0
 25 26  1  0
 26 27  2  0
 14 28  1  0
 28 29  2  0
  5 30  1  0
 30 31  1  0
 30 32  1  0
 30  2  1  0
 29 11  1  0
 27 17  1  0
 27 22  1  0
M  END
>  <zinc_id>  (1) 
ZINC000003846127

>  <smiles>  (1) 
C[C@H]1CC[C@](C)(COC(=O)c2ccc(/N=N/c3c(O)ccc4ccccc34)cc2)C1(C)C

$$$$
