
     RDKit          3D

 19 20  0  0  0  0  0  0  0  0999 V2000
   -1.1725   -1.9394    1.5021 O   0  0  0  0  0  0  0  0  0  0  0  0
   -1.7297   -1.1270    0.7022 C   0  0  0  0  0  0  0  0  0  0  0  0
   -0.9346   -0.1917    0.0022 N   0  0  0  0  0  0  0  0  0  0  0  0
    0.4733   -0.1433    0.1762 C   0  0  0  0  0  0  0  0  0  0  0  0
    1.1732   -1.1931    1.2067 S   0  0  0  0  0  0  0  0  0  0  0  0
    1.2826    0.7906   -0.5204 N   0  0  0  0  0  0  0  0  0  0  0  0
    2.6769    0.8208   -0.3326 C   0  0  0  0  0  0  0  0  0  0  0  0
    3.3564   -0.0324    0.5220 C   0  0  0  0  0  0  0  0  0  0  0  0
    4.7286    0.0292    0.6788 C   0  0  0  0  0  0  0  0  0  0  0  0
    5.4474    0.9537   -0.0235 C   0  0  0  0  0  0  0  0  0  0  0  0
    4.8017    1.8070   -0.8729 C   0  0  0  0  0  0  0  0  0  0  0  0
    3.4356    1.7467   -1.0300 C   0  0  0  0  0  0  0  0  0  0  0  0
    2.7654    2.6154   -1.8967 O   0  0  0  0  0  0  0  0  0  0  0  0
   -3.1950   -1.2262    0.5642 C   0  0  0  0  0  0  0  0  0  0  0  0
   -3.8182    0.0718    0.9642 C   0  0  0  0  0  0  0  0  0  0  0  0
   -4.7361    0.6598   -0.0559 C   0  0  0  0  0  0  0  0  0  0  0  0
   -5.7667   -0.3298   -0.5555 C   0  0  0  0  0  0  0  0  0  0  0  0
   -5.1496   -1.6866   -0.8204 C   0  0  0  0  0  0  0  0  0  0  0  0
   -3.6387   -1.6256   -0.8018 C   0  0  0  0  0  0  0  0  0  0  0  0
  1  2  2  0
  2  3  1  0
  3  4  1  0
  4  5  2  0
  4  6  1  0
  6  7  1  0
  7  8  2  0
  8  9  1  0
  9 10  2  0
 10 11  1  0
 11 12  2  0
 12 13  1  0
  2 14  1  0
 14 15  1  0
 15 16  1  0
 16 17  1  0
 17 18  1  0
 18 19  1  0
 12  7  1  0
 19 14  1  0
M  END
>  <zinc_id>  (1) 
ZINC000003305073

>  <smiles>  (1) 
O=C(NC(=S)Nc1ccccc1O)C1CCCCC1

$$$$
