
     RDKit          3D

 31 35  0  0  0  0  0  0  0  0999 V2000
   -7.7669    0.3707    1.3214 C   0  0  0  0  0  0  0  0  0  0  0  0
   -6.4783    1.1333    1.3467 C   0  0  0  0  0  0  0  0  0  0  0  0
   -5.3961    0.4329    0.5901 C   0  0  0  0  0  0  0  0  0  0  0  0
   -5.2798    0.7352   -0.7460 C   0  0  0  0  0  0  0  0  0  0  0  0
   -4.2655    0.0911   -1.4953 C   0  0  0  0  0  0  0  0  0  0  0  0
   -3.4281   -0.8013   -0.9155 C   0  0  0  0  0  0  0  0  0  0  0  0
   -2.3591   -1.4693   -1.8428 C   0  0  1  0  0  0  0  0  0  0  0  0
   -2.3537   -0.5001   -3.0707 N   0  0  0  0  0  0  0  0  0  0  0  0
   -2.4265    0.8330   -2.7164 C   0  0  0  0  0  0  0  0  0  0  0  0
   -1.1262    1.3744   -2.2224 C   0  0  0  0  0  0  0  0  0  0  0  0
   -0.5528    0.2992   -1.3418 C   0  0  0  0  0  0  0  0  0  0  0  0
   -1.0350   -0.9101   -1.1506 C   0  0  0  0  0  0  0  0  0  0  0  0
   -0.2721   -1.6080   -0.3029 N   0  0  0  0  0  0  0  0  0  0  0  0
    0.7607   -0.8042    0.0744 C   0  0  0  0  0  0  0  0  0  0  0  0
    1.8364   -0.9685    0.9085 C   0  0  0  0  0  0  0  0  0  0  0  0
    2.7124    0.0503    1.0801 C   0  0  0  0  0  0  0  0  0  0  0  0
    2.6130    1.2821    0.4672 C   0  0  0  0  0  0  0  0  0  0  0  0
    3.5269    2.3060    0.6636 O   0  0  0  0  0  0  0  0  0  0  0  0
    4.6218    2.1476    1.5053 C   0  0  0  0  0  0  0  0  0  0  0  0
    5.5298    1.0622    1.0886 C   0  0  0  0  0  0  0  0  0  0  0  0
    5.3105    0.4036   -0.0954 C   0  0  0  0  0  0  0  0  0  0  0  0
    6.0978   -0.6017   -0.5486 C   0  0  0  0  0  0  0  0  0  0  0  0
    7.1771   -0.9953    0.2047 C   0  0  0  0  0  0  0  0  0  0  0  0
    7.4344   -0.3635    1.3972 C   0  0  0  0  0  0  0  0  0  0  0  0
    6.6076    0.6730    1.8464 C   0  0  0  0  0  0  0  0  0  0  0  0
    1.5218    1.4275   -0.3696 C   0  0  0  0  0  0  0  0  0  0  0  0
    0.6081    0.4026   -0.5653 C   0  0  0  0  0  0  0  0  0  0  0  0
   -3.5432   -1.0956    0.3905 C   0  0  0  0  0  0  0  0  0  0  0  0
   -2.7068   -1.9951    0.9970 O   0  0  0  0  0  0  0  0  0  0  0  0
   -2.8252   -2.3010    2.3513 C   0  0  0  0  0  0  0  0  0  0  0  0
   -4.5428   -0.4672    1.1501 C   0  0  0  0  0  0  0  0  0  0  0  0
  1  2  1  0
  2  3  1  0
  3  4  2  0
  4  5  1  0
  5  6  2  0
  7  6  1  1
  7  8  1  0
  8  9  1  0
  9 10  1  0
 10 11  1  0
 11 12  2  0
 12 13  1  0
 13 14  1  0
 14 15  2  0
 15 16  1  0
 16 17  2  0
 17 18  1  0
 18 19  1  0
 19 20  1  0
 20 21  2  0
 21 22  1  0
 22 23  2  0
 23 24  1  0
 24 25  2  0
 17 26  1  0
 26 27  2  0
  6 28  1  0
 28 29  1  0
 29 30  1  0
 28 31  2  0
 31  3  1  0
 12  7  1  0
 27 14  1  0
 27 11  1  0
 25 20  1  0
M  END
>  <zinc_id>  (1) 
ZINC000003737833

>  <smiles>  (1) 
CCc1ccc([C@H]2NCCc3c2[nH]c2ccc(OCc4ccccc4)cc32)c(OC)c1

$$$$
