
     RDKit          3D

 20 22  0  0  0  0  0  0  0  0999 V2000
    7.0814   -1.1269    0.6674 C   0  0  0  0  0  0  0  0  0  0  0  0
    5.6170   -0.8338    0.7050 C   0  0  0  0  0  0  0  0  0  0  0  0
    4.7897   -1.0490    1.7708 C   0  0  0  0  0  0  0  0  0  0  0  0
    3.5050   -0.7308    1.6362 C   0  0  0  0  0  0  0  0  0  0  0  0
    3.0893   -0.2132    0.4557 C   0  0  0  0  0  0  0  0  0  0  0  0
    1.7436    0.2233    0.0316 C   0  0  0  0  0  0  0  0  0  0  0  0
    0.7635    0.1407    0.8216 N   0  0  0  0  0  0  0  0  0  0  0  0
   -0.5779    0.5543    0.4581 C   0  0  0  0  0  0  0  0  0  0  0  0
   -1.2602    2.0857    0.6790 S   0  0  0  0  0  0  0  0  0  0  0  0
   -2.8143    1.7945    0.0224 C   0  0  0  0  0  0  0  0  0  0  0  0
   -2.7504    0.4865   -0.3558 C   0  0  0  0  0  0  0  0  0  0  0  0
   -1.5757   -0.1735   -0.1296 C   0  0  0  0  0  0  0  0  0  0  0  0
   -1.3436   -1.5989   -0.4825 C   0  0  0  0  0  0  0  0  0  0  0  0
   -2.3303   -2.4034   -1.0899 N   0  0  0  0  0  0  0  0  0  0  0  0
   -0.2393   -2.1022   -0.2337 O   0  0  0  0  0  0  0  0  0  0  0  0
   -3.9915   -0.1511   -1.0028 C   0  0  0  0  0  0  0  0  0  0  0  0
   -5.1876    0.5859   -0.5099 C   0  0  0  0  0  0  0  0  0  0  0  0
   -5.0238    2.0201   -1.0181 C   0  0  0  0  0  0  0  0  0  0  0  0
   -4.0298    2.6790   -0.1460 C   0  0  0  0  0  0  0  0  0  0  0  0
    4.5350   -0.1870   -0.4472 S   0  0  0  0  0  0  0  0  0  0  0  0
  1  2  1  0
  2  3  2  0
  3  4  1  0
  4  5  2  0
  5  6  1  0
  6  7  2  0
  7  8  1  0
  8  9  1  0
  9 10  1  0
 10 11  2  0
 11 12  1  0
 12 13  1  0
 13 14  1  0
 13 15  2  0
 11 16  1  0
 16 17  1  0
 17 18  1  0
 18 19  1  0
  5 20  1  0
 20  2  1  0
 12  8  2  0
 19 10  1  0
M  END
>  <zinc_id>  (1) 
ZINC000000357998

>  <smiles>  (1) 
Cc1ccc(/C=N/c2sc3c(c2C(N)=O)CCCC3)s1

$$$$
