
     RDKit          3D

 32 36  0  0  0  0  0  0  0  0999 V2000
   -2.5768    2.6683   -1.3440 C   0  0  0  0  0  0  0  0  0  0  0  0
   -4.0766    2.7758   -1.1964 C   0  0  0  0  0  0  0  0  0  0  0  0
   -4.7038    1.5152   -1.0406 O   0  0  0  0  0  0  0  0  0  0  0  0
   -4.3928    0.6822    0.0161 C   0  0  0  0  0  0  0  0  0  0  0  0
   -5.1377    0.8221    1.1920 C   0  0  0  0  0  0  0  0  0  0  0  0
   -6.1439    1.7392    1.3222 O   0  0  0  0  0  0  0  0  0  0  0  0
   -6.9193    1.9366    2.4589 C   0  0  0  0  0  0  0  0  0  0  0  0
   -4.8217   -0.0085    2.2357 C   0  0  0  0  0  0  0  0  0  0  0  0
   -3.8285   -0.9545    2.1850 C   0  0  0  0  0  0  0  0  0  0  0  0
   -3.1182   -1.0632    1.0130 C   0  0  0  0  0  0  0  0  0  0  0  0
   -3.4003   -0.2727   -0.0158 C   0  0  0  0  0  0  0  0  0  0  0  0
   -2.5806   -0.3799   -1.4011 C   0  0  2  0  0  0  0  0  0  0  0  0
   -2.7442   -1.9692   -1.5091 N   0  0  0  0  0  0  0  0  0  0  0  0
   -2.0110   -2.3038   -2.7159 C   0  0  0  0  0  0  0  0  0  0  0  0
   -0.5211   -2.1205   -2.5222 C   0  0  0  0  0  0  0  0  0  0  0  0
   -0.2322   -1.2431   -1.3634 C   0  0  0  0  0  0  0  0  0  0  0  0
   -1.1287   -0.4134   -0.7902 C   0  0  0  0  0  0  0  0  0  0  0  0
   -0.5725    0.2269    0.2096 N   0  0  0  0  0  0  0  0  0  0  0  0
    0.7163   -0.1708    0.3188 C   0  0  0  0  0  0  0  0  0  0  0  0
    1.7255    0.1674    1.1690 C   0  0  0  0  0  0  0  0  0  0  0  0
    2.9576   -0.4343    1.0159 C   0  0  0  0  0  0  0  0  0  0  0  0
    3.2230   -1.3594    0.0487 C   0  0  0  0  0  0  0  0  0  0  0  0
    4.4352   -1.9775   -0.1324 O   0  0  0  0  0  0  0  0  0  0  0  0
    5.5305   -1.6969    0.6858 C   0  0  0  0  0  0  0  0  0  0  0  0
    5.8692   -0.2564    0.5638 C   0  0  0  0  0  0  0  0  0  0  0  0
    6.8125    0.3347    1.3983 C   0  0  0  0  0  0  0  0  0  0  0  0
    7.1290    1.6672    1.2822 C   0  0  0  0  0  0  0  0  0  0  0  0
    6.5090    2.4660    0.3188 C   0  0  0  0  0  0  0  0  0  0  0  0
    5.5814    1.8782   -0.4999 C   0  0  0  0  0  0  0  0  0  0  0  0
    5.2648    0.5470   -0.3841 C   0  0  0  0  0  0  0  0  0  0  0  0
    2.1877   -1.6977   -0.8133 C   0  0  0  0  0  0  0  0  0  0  0  0
    0.9685   -1.1051   -0.6649 C   0  0  0  0  0  0  0  0  0  0  0  0
  1  2  1  0
  2  3  1  0
  3  4  1  0
  4  5  2  0
  5  6  1  0
  6  7  1  0
  5  8  1  0
  8  9  2  0
  9 10  1  0
 10 11  2  0
 12 11  1  1
 12 13  1  0
 13 14  1  0
 14 15  1  0
 15 16  1  0
 16 17  2  0
 17 18  1  0
 18 19  1  0
 19 20  2  0
 20 21  1  0
 21 22  2  0
 22 23  1  0
 23 24  1  0
 24 25  1  0
 25 26  2  0
 26 27  1  0
 27 28  2  0
 28 29  1  0
 29 30  2  0
 22 31  1  0
 31 32  2  0
 11  4  1  0
 17 12  1  0
 32 19  1  0
 32 16  1  0
 30 25  1  0
M  END
>  <zinc_id>  (1) 
ZINC000003738977

>  <smiles>  (1) 
CCOc1c(OC)cccc1[C@@H]1NCCc2c1[nH]c1ccc(OCc3ccccc3)cc21

$$$$
