
     RDKit          3D

 20 21  0  0  0  0  0  0  0  0999 V2000
   -4.2905    2.4096    2.1256 N   0  0  0  0  0  0  0  0  0  0  0  0
   -3.1336    1.6856    1.7599 C   0  0  0  0  0  0  0  0  0  0  0  0
   -2.0597    1.9281    2.3771 O   0  0  0  0  0  0  0  0  0  0  0  0
   -3.1974    0.6904    0.6973 C   0  0  0  0  0  0  0  0  0  0  0  0
   -4.3970    0.4769    0.0679 C   0  0  0  0  0  0  0  0  0  0  0  0
   -4.4914   -0.4560   -0.9398 C   0  0  0  0  0  0  0  0  0  0  0  0
   -3.3896   -1.1954   -1.3403 C   0  0  0  0  0  0  0  0  0  0  0  0
   -2.2089   -0.9461   -0.6800 C   0  0  0  0  0  0  0  0  0  0  0  0
   -2.0709   -0.0249    0.3303 C   0  0  0  0  0  0  0  0  0  0  0  0
   -0.8409    0.2132    0.9958 N   0  0  0  0  0  0  0  0  0  0  0  0
    0.3256   -0.5079    0.6362 C   0  0  0  0  0  0  0  0  0  0  0  0
    0.2333   -1.3558   -0.2822 O   0  0  0  0  0  0  0  0  0  0  0  0
    1.5758   -0.2081    1.3729 C   0  0  0  0  0  0  0  0  0  0  0  0
    2.7076   -1.0802    0.8436 C   0  0  0  0  0  0  0  0  0  0  0  0
    2.8447   -0.7331   -0.6350 C   0  0  0  0  0  0  0  0  0  0  0  0
    3.1710    0.7504   -0.6902 C   0  0  0  0  0  0  0  0  0  0  0  0
    4.5002    0.9163    0.0521 C   0  0  0  0  0  0  0  0  0  0  0  0
    5.5483    0.2459   -0.8389 C   0  0  0  0  0  0  0  0  0  0  0  0
    5.2890   -1.2368   -0.9147 C   0  0  0  0  0  0  0  0  0  0  0  0
    3.8842   -1.5724   -1.3186 C   0  0  0  0  0  0  0  0  0  0  0  0
  1  2  1  0
  2  3  2  0
  2  4  1  0
  4  5  2  0
  5  6  1  0
  6  7  2  0
  7  8  1  0
  8  9  2  0
  9 10  1  0
 10 11  1  0
 11 12  2  0
 11 13  1  0
 13 14  1  0
 14 15  1  0
 15 16  1  0
 16 17  1  0
 17 18  1  0
 18 19  1  0
 19 20  1  0
  9  4  1  0
 20 15  1  0
M  END
>  <zinc_id>  (1) 
ZINC000000310980

>  <smiles>  (1) 
NC(=O)c1ccccc1NC(=O)CCC1CCCCC1

$$$$
