
     RDKit          3D

 22 24  0  0  0  0  0  0  0  0999 V2000
   -3.3360   -2.2639    2.9536 C   0  0  0  0  0  0  0  0  0  0  0  0
   -3.6257   -1.1361    2.1480 O   0  0  0  0  0  0  0  0  0  0  0  0
   -2.6832   -0.7115    1.1776 C   0  0  0  0  0  0  0  0  0  0  0  0
   -1.4977   -1.3626    0.9968 C   0  0  0  0  0  0  0  0  0  0  0  0
   -0.5822   -0.9184    0.0262 C   0  0  0  0  0  0  0  0  0  0  0  0
   -0.8875    0.1779   -0.7418 C   0  0  0  0  0  0  0  0  0  0  0  0
   -2.1020    0.8534   -0.5640 C   0  0  0  0  0  0  0  0  0  0  0  0
   -2.9606    0.3848    0.3917 C   0  0  0  0  0  0  0  0  0  0  0  0
   -4.1799    1.0202    0.6078 O   0  0  0  0  0  0  0  0  0  0  0  0
   -4.5336    2.1506   -0.1595 C   0  0  0  0  0  0  0  0  0  0  0  0
    0.0684    0.6058   -1.7236 C   0  0  0  0  0  0  0  0  0  0  0  0
   -0.3232    1.8172   -2.5380 C   0  0  0  0  0  0  0  0  0  0  0  0
    1.1449    0.0263   -1.8982 N   0  0  0  0  0  4  0  0  0  0  0  0
    2.0144    0.4859   -2.8530 O   0  0  0  0  0  1  0  0  0  0  0  0
    1.6792   -1.1785   -1.1802 C   0  0  1  0  0  0  0  0  0  0  0  0
    2.6709   -0.4055   -0.2107 C   0  0  0  0  0  0  0  0  0  0  0  0
    3.4497    0.5754   -0.7631 C   0  0  0  0  0  0  0  0  0  0  0  0
    4.3373    1.2645    0.0770 C   0  0  0  0  0  0  0  0  0  0  0  0
    4.3867    0.9281    1.4086 C   0  0  0  0  0  0  0  0  0  0  0  0
    3.5978   -0.0584    1.9443 C   0  0  0  0  0  0  0  0  0  0  0  0
    2.7383   -0.7151    1.0942 C   0  0  0  0  0  0  0  0  0  0  0  0
    0.6244   -1.5400   -0.1939 N   0  0  0  0  0  0  0  0  0  0  0  0
  1  2  1  0
  2  3  1  0
  3  4  2  0
  4  5  1  0
  5  6  2  0
  6  7  1  0
  7  8  2  0
  8  9  1  0
  9 10  1  0
  6 11  1  0
 11 12  1  0
 11 13  2  0
 13 14  1  0
 13 15  1  0
 15 16  1  1
 16 17  2  0
 17 18  1  0
 18 19  2  0
 19 20  1  0
 20 21  2  0
 15 22  1  0
  8  3  1  0
 21 16  1  0
 22  5  1  0
M  CHG  2  13   1  14  -1
M  END
>  <zinc_id>  (1) 
ZINC000000014171

>  <smiles>  (1) 
COc1cc2c(cc1OC)C(C)=[N+]([O-])[C@@H](c1ccccc1)N2

$$$$
