
     RDKit          3D

 31 34  0  0  0  0  0  0  0  0999 V2000
   -8.6354   -0.2768   -0.4082 C   0  0  0  0  0  0  0  0  0  0  0  0
   -7.2147   -0.0697    0.0102 C   0  0  0  0  0  0  0  0  0  0  0  0
   -6.1638   -0.4914   -0.7776 C   0  0  0  0  0  0  0  0  0  0  0  0
   -4.8464   -0.2989   -0.3887 C   0  0  0  0  0  0  0  0  0  0  0  0
   -4.5247    0.3217    0.8007 C   0  0  0  0  0  0  0  0  0  0  0  0
   -3.1902    0.5407    1.2404 N   0  0  0  0  0  0  0  0  0  0  0  0
   -2.0516    0.1512    0.5168 C   0  0  0  0  0  0  0  0  0  0  0  0
   -2.2271   -0.4259   -0.5863 O   0  0  0  0  0  0  0  0  0  0  0  0
   -0.6624    0.3793    0.9746 C   0  0  0  0  0  0  0  0  0  0  0  0
    0.2992   -0.1002    0.0919 O   0  0  0  0  0  0  0  0  0  0  0  0
    0.3882   -1.4387   -0.2608 C   0  0  0  0  0  0  0  0  0  0  0  0
   -0.4885   -2.1869    0.2968 O   0  0  0  0  0  0  0  0  0  0  0  0
    1.3846   -2.0018   -1.1903 C   0  0  0  0  0  0  0  0  0  0  0  0
    2.3350   -1.0045   -1.7747 C   0  0  0  0  0  0  0  0  0  0  0  0
    3.1270   -0.3035   -0.7528 N   0  0  0  0  0  0  0  0  0  0  0  0
    3.8918   -1.0917    0.1275 C   0  0  0  0  0  0  0  0  0  0  0  0
    3.8375   -2.4825   -0.0343 C   0  0  0  0  0  0  0  0  0  0  0  0
    4.5641   -3.3247    0.7923 C   0  0  0  0  0  0  0  0  0  0  0  0
    5.3519   -2.8079    1.7869 C   0  0  0  0  0  0  0  0  0  0  0  0
    5.3858   -1.4382    1.9223 C   0  0  0  0  0  0  0  0  0  0  0  0
    4.6829   -0.5877    1.1252 C   0  0  0  0  0  0  0  0  0  0  0  0
    4.7939    1.1568    1.3847 S   0  0  0  0  0  0  0  0  0  0  0  0
    3.7396    1.9276    0.1408 C   0  0  0  0  0  0  0  0  0  0  0  0
    3.6172    3.2836    0.0713 C   0  0  0  0  0  0  0  0  0  0  0  0
    2.8335    3.9054   -0.8535 C   0  0  0  0  0  0  0  0  0  0  0  0
    2.1423    3.1050   -1.7494 C   0  0  0  0  0  0  0  0  0  0  0  0
    2.2679    1.7401   -1.6765 C   0  0  0  0  0  0  0  0  0  0  0  0
    3.0758    1.1053   -0.7228 C   0  0  0  0  0  0  0  0  0  0  0  0
   -5.5769    0.7428    1.5873 C   0  0  0  0  0  0  0  0  0  0  0  0
   -5.2453    1.4207    2.8862 C   0  0  0  0  0  0  0  0  0  0  0  0
   -6.8915    0.5507    1.1993 C   0  0  0  0  0  0  0  0  0  0  0  0
  1  2  1  0
  2  3  2  0
  3  4  1  0
  4  5  2  0
  5  6  1  0
  6  7  1  0
  7  8  2  0
  7  9  1  0
  9 10  1  0
 10 11  1  0
 11 12  2  0
 11 13  1  0
 13 14  1  0
 14 15  1  0
 15 16  1  0
 16 17  2  0
 17 18  1  0
 18 19  2  0
 19 20  1  0
 20 21  2  0
 21 22  1  0
 22 23  1  0
 23 24  2  0
 24 25  1  0
 25 26  2  0
 26 27  1  0
 27 28  2  0
  5 29  1  0
 29 30  1  0
 29 31  2  0
 31  2  1  0
 28 15  1  0
 21 16  1  0
 28 23  1  0
M  END
>  <zinc_id>  (1) 
ZINC000003244845

>  <smiles>  (1) 
Cc1ccc(NC(=O)COC(=O)CCN2c3ccccc3Sc3ccccc32)c(C)c1

$$$$
