
     RDKit          3D

 30 33  0  0  0  0  0  0  0  0999 V2000
    2.8143    6.4712   -0.2194 C   0  0  0  0  0  0  0  0  0  0  0  0
    1.6067    6.0516    0.3526 O   0  0  0  0  0  0  0  0  0  0  0  0
    1.2578    4.6840    0.3040 C   0  0  0  0  0  0  0  0  0  0  0  0
    2.1019    3.7854   -0.3002 C   0  0  0  0  0  0  0  0  0  0  0  0
    1.7523    2.4650   -0.3403 C   0  0  0  0  0  0  0  0  0  0  0  0
    0.5600    2.0701    0.2276 C   0  0  0  0  0  0  0  0  0  0  0  0
    0.1987    0.6841    0.1820 N   0  0  0  0  0  0  0  0  0  0  0  0
   -0.8605    0.1065    0.7670 C   0  0  0  0  0  0  0  0  0  0  0  0
   -1.8393    0.9004    1.5852 C   0  0  0  0  0  0  0  0  0  0  0  0
   -2.8812    0.0069    2.0297 N   0  0  0  0  0  0  0  0  0  0  0  0
   -3.6839   -0.6564    1.0771 C   0  0  0  0  0  0  0  0  0  0  0  0
   -3.4641   -0.4406   -0.2577 C   0  0  0  0  0  0  0  0  0  0  0  0
   -4.2115   -1.0542   -1.2303 C   0  0  0  0  0  0  0  0  0  0  0  0
   -5.2204   -1.9194   -0.8501 C   0  0  0  0  0  0  0  0  0  0  0  0
   -6.0318   -2.5854   -1.9230 C   0  0  0  0  0  0  0  0  0  0  0  0
   -5.4649   -2.1559    0.4679 C   0  0  0  0  0  0  0  0  0  0  0  0
   -4.6942   -1.5219    1.4176 C   0  0  0  0  0  0  0  0  0  0  0  0
   -0.8944   -1.2177    0.5160 N   0  0  0  0  0  0  0  0  0  0  0  0
    0.1631   -1.4617   -0.2374 N   0  0  0  0  0  0  0  0  0  0  0  0
    0.8407   -0.3162   -0.4514 C   0  0  0  0  0  0  0  0  0  0  0  0
    2.3354   -0.0359   -1.3879 S   0  0  0  0  0  0  0  0  0  0  0  0
    2.9867   -1.5278   -2.1243 C   0  0  0  0  0  0  0  0  0  0  0  0
    3.4322   -2.4293   -1.0079 C   0  0  0  0  0  0  0  0  0  0  0  0
    2.5064   -3.3269   -0.4957 C   0  0  0  0  0  0  0  0  0  0  0  0
    2.9191   -4.1441    0.5206 C   0  0  0  0  0  0  0  0  0  0  0  0
    4.1888   -4.0937    1.0255 C   0  0  0  0  0  0  0  0  0  0  0  0
    5.0847   -3.2020    0.5061 C   0  0  0  0  0  0  0  0  0  0  0  0
    4.7171   -2.3574   -0.5186 C   0  0  0  0  0  0  0  0  0  0  0  0
   -0.2922    2.9470    0.8324 C   0  0  0  0  0  0  0  0  0  0  0  0
    0.0725    4.2742    0.8656 C   0  0  0  0  0  0  0  0  0  0  0  0
  1  2  1  0
  2  3  1  0
  3  4  2  0
  4  5  1  0
  5  6  2  0
  6  7  1  0
  7  8  1  0
  8  9  1  0
  9 10  1  0
 10 11  1  0
 11 12  2  0
 12 13  1  0
 13 14  2  0
 14 15  1  0
 14 16  1  0
 16 17  2  0
  8 18  2  0
 18 19  1  0
 19 20  2  0
 20 21  1  0
 21 22  1  0
 22 23  1  0
 23 24  2  0
 24 25  1  0
 25 26  2  0
 26 27  1  0
 27 28  2  0
  6 29  1  0
 29 30  2  0
 30  3  1  0
 20  7  1  0
 28 23  1  0
 17 11  1  0
M  END
>  <zinc_id>  (1) 
ZINC000000925365

>  <smiles>  (1) 
COc1ccc(-n2c(CNc3ccc(C)cc3)nnc2SCc2ccccc2)cc1

$$$$
