
     RDKit          3D

 20 23  0  0  0  0  0  0  0  0999 V2000
    6.4822    0.5955   -0.1172 N   0  0  0  0  0  0  0  0  0  0  0  0
    5.1000    0.2857   -0.3284 C   0  0  0  0  0  0  0  0  0  0  0  0
    4.1741    0.4824    0.6873 C   0  0  0  0  0  0  0  0  0  0  0  0
    2.8474    0.1871    0.4853 C   0  0  0  0  0  0  0  0  0  0  0  0
    2.3600   -0.3089   -0.6995 C   0  0  0  0  0  0  0  0  0  0  0  0
    0.9371   -0.5896   -0.8578 C   0  0  0  0  0  0  0  0  0  0  0  0
    0.4549   -1.3562   -1.7094 O   0  0  0  0  0  0  0  0  0  0  0  0
    0.0159    0.0613    0.0246 N   0  0  0  0  0  0  0  0  0  0  0  0
   -1.3601   -0.0835    0.0114 C   0  0  0  0  0  0  0  0  0  0  0  0
   -2.1367    0.1874   -1.2149 C   0  0  0  0  0  0  0  0  0  0  0  0
   -3.2497   -0.8381   -1.3712 C   0  0  0  0  0  0  0  0  0  0  0  0
   -4.0910   -0.9423   -0.1116 C   0  0  0  0  0  0  0  0  0  0  0  0
   -4.7523    0.4257    0.1162 C   0  0  0  0  0  0  0  0  0  0  0  0
   -3.6549    1.4569    0.2807 C   0  0  0  0  0  0  0  0  0  0  0  0
   -2.8393    1.5342   -0.9930 C   0  0  0  0  0  0  0  0  0  0  0  0
   -2.8471    1.1080    1.4890 C   0  0  0  0  0  0  0  0  0  0  0  0
   -2.1200   -0.2303    1.2618 C   0  0  0  0  0  0  0  0  0  0  0  0
   -3.2353   -1.2564    1.0963 C   0  0  0  0  0  0  0  0  0  0  0  0
    3.2869   -0.5079   -1.7196 C   0  0  0  0  0  0  0  0  0  0  0  0
    4.6278   -0.2110   -1.5211 C   0  0  0  0  0  0  0  0  0  0  0  0
  1  2  1  0
  2  3  2  0
  3  4  1  0
  4  5  2  0
  5  6  1  0
  6  7  2  0
  6  8  1  0
  8  9  1  0
  9 10  1  0
 10 11  1  0
 11 12  1  0
 12 13  1  0
 13 14  1  0
 14 15  1  0
 14 16  1  0
 16 17  1  0
 17 18  1  0
  5 19  1  0
 19 20  2  0
 20  2  1  0
 17  9  1  0
 15 10  1  0
 18 12  1  0
M  END
>  <zinc_id>  (1) 
ZINC000001076057

>  <smiles>  (1) 
Nc1ccc(C(=O)NC2C3CC4CC(C3)CC2C4)cc1

$$$$
