
     RDKit          3D

 21 23  0  0  0  0  0  0  0  0999 V2000
   -4.7629    0.8479    2.2311 C   0  0  0  0  0  0  0  0  0  0  0  0
   -5.1046   -0.5001    1.6896 C   0  0  0  0  0  0  0  0  0  0  0  0
   -4.7372   -0.6947    0.3507 O   0  0  0  0  0  0  0  0  0  0  0  0
   -3.4059   -0.5962   -0.0510 C   0  0  0  0  0  0  0  0  0  0  0  0
   -3.0479   -0.7881   -1.3683 C   0  0  0  0  0  0  0  0  0  0  0  0
   -1.7283   -0.6902   -1.7655 C   0  0  0  0  0  0  0  0  0  0  0  0
   -0.7156   -0.3989   -0.8728 C   0  0  0  0  0  0  0  0  0  0  0  0
   -1.0667   -0.2063    0.4430 C   0  0  0  0  0  0  0  0  0  0  0  0
   -2.3938   -0.3053    0.8396 C   0  0  0  0  0  0  0  0  0  0  0  0
    0.1706    0.0790    1.1422 C   0  0  0  0  0  0  0  0  0  0  0  0
    0.2723    0.3183    2.3947 N   0  0  0  0  0  0  0  0  0  0  0  0
   -0.8176    0.3360    3.2685 N   0  0  0  0  0  0  0  0  0  0  0  0
    1.2683    0.0486    0.1929 C   0  0  0  0  0  0  0  0  0  0  0  0
    2.6285    0.2327    0.2447 C   0  0  0  0  0  0  0  0  0  0  0  0
    3.4637    0.1430   -0.8465 C   0  0  0  0  0  0  0  0  0  0  0  0
    4.8217    0.3483   -0.6764 O   0  0  0  0  0  0  0  0  0  0  0  0
    5.3141    0.6445    0.6133 C   0  0  0  0  0  0  0  0  0  0  0  0
    4.6509    1.9185    1.0784 C   0  0  0  0  0  0  0  0  0  0  0  0
    2.8944   -0.1489   -2.0577 C   0  0  0  0  0  0  0  0  0  0  0  0
    1.5505   -0.3430   -2.1761 C   0  0  0  0  0  0  0  0  0  0  0  0
    0.7457   -0.2449   -1.0602 C   0  0  0  0  0  0  0  0  0  0  0  0
  1  2  1  0
  2  3  1  0
  3  4  1  0
  4  5  2  0
  5  6  1  0
  6  7  2  0
  7  8  1  0
  8  9  2  0
  8 10  1  0
 10 11  2  3
 11 12  1  0
 10 13  1  0
 13 14  2  0
 14 15  1  0
 15 16  1  0
 16 17  1  0
 17 18  1  0
 15 19  2  0
 19 20  1  0
 20 21  2  0
  9  4  1  0
 21 13  1  0
 21  7  1  0
M  END
>  <zinc_id>  (1) 
ZINC000000257868

>  <smiles>  (1) 
CCOc1ccc2c(c1)C(=NN)c1cc(OCC)ccc1-2

$$$$
