
     RDKit          3D

 21 23  0  0  0  0  0  0  0  0999 V2000
   -5.3255    0.4876   -2.0564 C   0  0  0  0  0  0  0  0  0  0  0  0
   -4.2715    0.6854   -1.0449 C   0  0  0  0  0  0  0  0  0  0  0  0
   -4.3393    1.7069   -0.1238 C   0  0  0  0  0  0  0  0  0  0  0  0
   -3.3584    1.8921    0.8192 C   0  0  0  0  0  0  0  0  0  0  0  0
   -2.2407    1.0486    0.8876 C   0  0  0  0  0  0  0  0  0  0  0  0
   -2.1629    0.0335   -0.0201 C   0  0  0  0  0  0  0  0  0  0  0  0
   -3.1791   -0.1414   -0.9799 C   0  0  0  0  0  0  0  0  0  0  0  0
   -0.9146   -0.7140    0.2308 C   0  0  1  0  0  0  0  0  0  0  0  0
   -1.1632   -2.0691    0.4654 O   0  0  0  0  0  0  0  0  0  0  0  0
    0.0351   -0.5407   -0.9521 C   0  0  0  0  0  0  0  0  0  0  0  0
    1.3026   -1.2755   -0.7412 C   0  0  0  0  0  0  0  0  0  0  0  0
    1.2764   -2.5282   -0.8022 O   0  0  0  0  0  0  0  0  0  0  0  0
    2.5559   -0.5708   -0.4680 C   0  0  0  0  0  0  0  0  0  0  0  0
    2.7881    0.7707   -0.3636 C   0  0  0  0  0  0  0  0  0  0  0  0
    4.0204    1.1800   -0.1081 C   0  0  0  0  0  0  0  0  0  0  0  0
    4.9975    0.2330    0.0375 C   0  0  0  0  0  0  0  0  0  0  0  0
    6.4610    0.4461    0.3284 C   0  0  0  0  0  0  0  0  0  0  0  0
    4.1160   -1.2080   -0.1963 S   0  0  0  0  0  0  0  0  0  0  0  0
   -0.2952   -0.0514    1.3845 C   0  0  0  0  0  0  0  0  0  0  0  0
    0.8139   -0.4128    1.9425 O   0  0  0  0  0  0  0  0  0  0  0  0
   -1.1166    1.0280    1.7606 N   0  0  0  0  0  0  0  0  0  0  0  0
  1  2  1  0
  2  3  2  0
  3  4  1  0
  4  5  2  0
  5  6  1  0
  6  7  2  0
  6  8  1  0
  8  9  1  1
  8 10  1  0
 10 11  1  0
 11 12  2  0
 11 13  1  0
 13 14  2  0
 14 15  1  0
 15 16  2  0
 16 17  1  0
 16 18  1  0
  8 19  1  0
 19 20  2  0
 19 21  1  0
  7  2  1  0
 18 13  1  0
 21  5  1  0
M  END
>  <zinc_id>  (1) 
ZINC000001320283

>  <smiles>  (1) 
Cc1ccc2c(c1)[C@@](O)(CC(=O)c1ccc(C)s1)C(=O)N2

$$$$
