
     RDKit          3D

 21 23  0  0  0  0  0  0  0  0999 V2000
   -0.7694    1.8004   -1.8632 C   0  0  0  0  0  0  0  0  0  0  0  0
   -1.1901    1.2697   -0.5111 C   0  0  0  0  0  0  0  0  0  0  0  0
   -2.4568    1.0699   -0.4635 C   0  0  0  0  0  0  0  0  0  0  0  0
   -3.1107    0.5141    0.8934 C   0  0  1  0  0  0  0  0  0  0  0  0
   -4.0698   -0.5614    0.1246 C   0  0  0  0  0  0  0  0  0  0  0  0
   -1.8972   -0.5823    1.0812 C   0  0  1  0  0  0  0  0  0  0  0  0
   -2.6192   -1.4452    2.0323 C   0  0  0  0  0  0  0  0  0  0  0  0
   -2.0685   -2.5455    2.5572 O   0  0  0  0  0  0  0  0  0  0  0  0
   -1.4146   -1.0909   -0.0982 C   0  0  0  0  0  0  0  0  0  0  0  0
   -0.2043   -1.1121   -0.6151 O   0  0  0  0  0  0  0  0  0  0  0  0
    0.6988   -0.3725    0.3079 C   0  0  1  0  0  0  0  0  0  0  0  0
    1.8004    0.0839   -0.6239 C   0  0  0  0  0  0  0  0  0  0  0  0
    1.5059    0.2634   -1.9323 C   0  0  0  0  0  0  0  0  0  0  0  0
    2.4528    0.4930   -2.9207 C   0  0  0  0  0  0  0  0  0  0  0  0
    3.7851    0.5472   -2.5406 C   0  0  0  0  0  0  0  0  0  0  0  0
    4.1234    0.3707   -1.2259 C   0  0  0  0  0  0  0  0  0  0  0  0
    3.1548    0.1403   -0.2731 C   0  0  0  0  0  0  0  0  0  0  0  0
    3.4982   -0.0406    1.0364 O   0  0  0  0  0  0  0  0  0  0  0  0
   -0.1278    1.0615    0.5412 C   0  0  2  0  0  0  0  0  0  0  0  0
   -1.0620    0.5660    1.8893 C   0  0  2  0  0  0  0  0  0  0  0  0
   -0.0286   -0.4298    2.6040 C   0  0  0  0  0  0  0  0  0  0  0  0
  1  2  1  0
  2  3  2  0
  3  4  1  0
  4  5  1  6
  4  6  1  0
  6  7  1  1
  7  8  1  0
  6  9  1  0
  9 10  1  0
 10 11  1  0
 11 12  1  6
 12 13  2  0
 13 14  1  0
 14 15  2  0
 15 16  1  0
 16 17  2  0
 17 18  1  0
 11 19  1  0
 19 20  1  0
 20 21  1  1
 19  2  1  6
 20  6  1  0
 17 12  1  0
M  END
>  <zinc_id>  (1) 
ZINC000000519491

>  <smiles>  (1) 
CC1=C[C@@H](C)[C@@]2(CO)CO[C@@H](c3ccccc3O)[C@@H]1[C@@H]2C

$$$$
