
     RDKit          3D

 19 20  0  0  0  0  0  0  0  0999 V2000
    0.5674   -0.1290    0.3957 O   0  0  0  0  0  0  0  0  0  0  0  0
    0.7902    0.0838   -0.8049 C   0  0  0  0  0  0  0  0  0  0  0  0
    2.1329    0.2315   -1.4129 C   0  0  0  0  0  0  0  0  0  0  0  0
    3.2466    0.0987   -0.4265 C   0  0  0  0  0  0  0  0  0  0  0  0
    3.1709    1.1350    0.6654 C   0  0  0  0  0  0  0  0  0  0  0  0
    4.3106    0.9416    1.6327 C   0  0  0  0  0  0  0  0  0  0  0  0
    5.3122   -0.0783    1.1369 C   0  0  0  0  0  0  0  0  0  0  0  0
    5.7523    0.1793   -0.2759 C   0  0  0  0  0  0  0  0  0  0  0  0
    4.5548    0.1902   -1.1810 C   0  0  0  0  0  0  0  0  0  0  0  0
   -0.3325    0.1962   -1.6734 N   0  0  0  0  0  0  0  0  0  0  0  0
   -1.6715    0.0711   -1.1965 C   0  0  0  0  0  0  0  0  0  0  0  0
   -2.6742    0.1967   -2.1202 C   0  0  0  0  0  0  0  0  0  0  0  0
   -3.9809    0.0892   -1.7398 C   0  0  0  0  0  0  0  0  0  0  0  0
   -4.3122   -0.1446   -0.4367 C   0  0  0  0  0  0  0  0  0  0  0  0
   -3.3177   -0.2741    0.5081 C   0  0  0  0  0  0  0  0  0  0  0  0
   -3.6952   -0.5156    1.8474 N   0  0  0  0  0  4  0  0  0  0  0  0
   -2.8462   -0.6451    2.7644 O   0  0  0  0  0  0  0  0  0  0  0  0
   -5.0147   -0.6194    2.2041 O   0  0  0  0  0  1  0  0  0  0  0  0
   -1.9927   -0.1635    0.1132 C   0  0  0  0  0  0  0  0  0  0  0  0
  1  2  2  0
  2  3  1  0
  3  4  1  0
  4  5  1  0
  5  6  1  0
  6  7  1  0
  7  8  1  0
  8  9  1  0
  2 10  1  0
 10 11  1  0
 11 12  2  0
 12 13  1  0
 13 14  2  0
 14 15  1  0
 15 16  1  0
 16 17  2  0
 16 18  1  0
 15 19  2  0
  9  4  1  0
 19 11  1  0
M  CHG  2  16   1  18  -1
M  END
>  <zinc_id>  (1) 
ZINC000000858539

>  <smiles>  (1) 
O=C(CC1CCCCC1)Nc1cccc([N+](=O)[O-])c1

$$$$
