
     RDKit          3D

 21 23  0  0  0  0  0  0  0  0999 V2000
    4.3004    2.1158    1.6547 C   0  0  0  0  0  0  0  0  0  0  0  0
    4.6150    0.7908    1.0249 C   0  0  0  0  0  0  0  0  0  0  0  0
    5.4427    1.0440   -0.2080 C   0  0  0  0  0  0  0  0  0  0  0  0
    3.3455    0.0898    0.7472 C   0  0  0  0  0  0  0  0  0  0  0  0
    3.2348   -0.8006   -0.2951 C   0  0  0  0  0  0  0  0  0  0  0  0
    2.0536   -1.4611   -0.5647 C   0  0  0  0  0  0  0  0  0  0  0  0
    0.9166   -1.2432    0.2243 C   0  0  0  0  0  0  0  0  0  0  0  0
   -0.2975   -1.9669   -0.0598 C   0  0  0  0  0  0  0  0  0  0  0  0
   -1.5130   -1.5237   -0.0934 C   0  0  0  0  0  0  0  0  0  0  0  0
   -2.7628   -2.2415   -0.3771 C   0  0  0  0  0  0  0  0  0  0  0  0
   -2.8600   -3.4763   -0.6328 O   0  0  0  0  0  0  0  0  0  0  0  0
   -3.7956   -1.2600   -0.2998 N   0  0  0  0  0  0  0  0  0  0  0  0
   -3.2556    0.0012    0.0108 C   0  0  0  0  0  0  0  0  0  0  0  0
   -3.8546    1.2295    0.1818 C   0  0  0  0  0  0  0  0  0  0  0  0
   -3.1187    2.3476    0.4814 C   0  0  0  0  0  0  0  0  0  0  0  0
   -1.7511    2.2385    0.6137 C   0  0  0  0  0  0  0  0  0  0  0  0
   -0.9404    3.2754    0.9056 F   0  0  0  0  0  0  0  0  0  0  0  0
   -1.1905    1.0081    0.4382 C   0  0  0  0  0  0  0  0  0  0  0  0
   -1.8799   -0.1357    0.1393 C   0  0  0  0  0  0  0  0  0  0  0  0
    1.0689   -0.3519    1.2486 C   0  0  0  0  0  0  0  0  0  0  0  0
    2.2420    0.3201    1.5359 C   0  0  0  0  0  0  0  0  0  0  0  0
  1  2  1  0
  2  3  1  0
  2  4  1  0
  4  5  2  0
  5  6  1  0
  6  7  2  0
  7  8  1  0
  8  9  2  0
  9 10  1  0
 10 11  2  0
 10 12  1  0
 12 13  1  0
 13 14  2  0
 14 15  1  0
 15 16  2  0
 16 17  1  0
 16 18  1  0
 18 19  2  0
  7 20  1  0
 20 21  2  0
 21  4  1  0
 19  9  1  0
 19 13  1  0
M  END
>  <zinc_id>  (1) 
ZINC000000213316

>  <smiles>  (1) 
CC(C)c1ccc(/C=C2/C(=O)Nc3ccc(F)cc32)cc1

$$$$
