
     RDKit          3D

 22 24  0  0  0  0  0  0  0  0999 V2000
    4.6853    2.3067    1.1760 C   0  0  0  0  0  0  0  0  0  0  0  0
    5.1291    0.9991    0.8834 O   0  0  0  0  0  0  0  0  0  0  0  0
    4.2048    0.0589    0.4990 C   0  0  0  0  0  0  0  0  0  0  0  0
    4.6207   -1.2138    0.2119 C   0  0  0  0  0  0  0  0  0  0  0  0
    3.6877   -2.1461   -0.1715 C   0  0  0  0  0  0  0  0  0  0  0  0
    2.3553   -1.7895   -0.2611 C   0  0  0  0  0  0  0  0  0  0  0  0
    1.4400   -2.7793   -0.6576 O   0  0  0  0  0  0  0  0  0  0  0  0
    1.8641   -4.0927   -0.9546 C   0  0  0  0  0  0  0  0  0  0  0  0
    1.9120   -0.5187    0.0217 C   0  0  0  0  0  0  0  0  0  0  0  0
    0.5052   -0.2068   -0.0904 C   0  0  0  0  0  0  0  0  0  0  0  0
   -0.1362    0.9922    0.1452 C   0  0  0  0  0  0  0  0  0  0  0  0
   -1.4900    0.8482   -0.0832 C   0  0  0  0  0  0  0  0  0  0  0  0
   -2.5972    1.6801   -0.0124 C   0  0  0  0  0  0  0  0  0  0  0  0
   -3.8563    1.2282   -0.3111 C   0  0  0  0  0  0  0  0  0  0  0  0
   -5.0122    2.0498   -0.2498 N   0  0  0  0  0  4  0  0  0  0  0  0
   -4.9551    3.2468    0.0830 O   0  0  0  0  0  0  0  0  0  0  0  0
   -6.2449    1.5386   -0.5609 O   0  0  0  0  0  1  0  0  0  0  0  0
   -3.9787   -0.0919   -0.6864 C   0  0  0  0  0  0  0  0  0  0  0  0
   -2.9065   -0.9595   -0.7718 C   0  0  0  0  0  0  0  0  0  0  0  0
   -1.6537   -0.4673   -0.4630 C   0  0  0  0  0  0  0  0  0  0  0  0
   -0.4507   -1.0727   -0.4591 N   0  0  0  0  0  0  0  0  0  0  0  0
    2.8773    0.3898    0.4032 C   0  0  0  0  0  0  0  0  0  0  0  0
  1  2  1  0
  2  3  1  0
  3  4  2  0
  4  5  1  0
  5  6  2  0
  6  7  1  0
  7  8  1  0
  6  9  1  0
  9 10  1  0
 10 11  2  0
 11 12  1  0
 12 13  2  0
 13 14  1  0
 14 15  1  0
 15 16  2  0
 15 17  1  0
 14 18  2  0
 18 19  1  0
 19 20  2  0
 20 21  1  0
  9 22  2  0
 22  3  1  0
 21 10  1  0
 20 12  1  0
M  CHG  2  15   1  17  -1
M  END
>  <zinc_id>  (1) 
ZINC000001519000

>  <smiles>  (1) 
COc1ccc(OC)c(-c2cc3cc([N+](=O)[O-])ccc3[nH]2)c1

$$$$
