
     RDKit          3D

 20 22  0  0  0  0  0  0  0  0999 V2000
   -1.2007   -3.3438    2.2257 N   0  0  0  0  0  0  0  0  0  0  0  0
   -1.1756   -2.1597    1.4289 C   0  0  0  0  0  0  0  0  0  0  0  0
   -0.2985   -1.1774    1.7070 N   0  0  0  0  0  0  0  0  0  0  0  0
   -0.1951   -0.0406    1.0289 C   0  0  0  0  0  0  0  0  0  0  0  0
    0.7777    1.0328    1.3309 C   0  0  0  0  0  0  0  0  0  0  0  0
    1.8756    0.9233    0.3453 C   0  0  0  0  0  0  0  0  0  0  0  0
    1.9584    1.7893   -0.6936 C   0  0  0  0  0  0  0  0  0  0  0  0
    2.9686    1.7166   -1.6323 C   0  0  0  0  0  0  0  0  0  0  0  0
    3.8996    0.7104   -1.4611 C   0  0  0  0  0  0  0  0  0  0  0  0
    3.8168   -0.1599   -0.4175 C   0  0  0  0  0  0  0  0  0  0  0  0
    2.7942   -0.0817    0.5277 C   0  0  0  0  0  0  0  0  0  0  0  0
    2.6777   -1.1910    1.8749 Cl  0  0  0  0  0  0  0  0  0  0  0  0
   -1.0684    0.1381   -0.0524 C   0  0  0  0  0  0  0  0  0  0  0  0
   -1.9769   -0.8634   -0.3517 C   0  0  0  0  0  0  0  0  0  0  0  0
   -2.0229   -1.9990    0.3879 N   0  0  0  0  0  0  0  0  0  0  0  0
   -2.9144   -0.8064   -1.4182 N   0  0  0  0  0  0  0  0  0  0  0  0
   -3.6012    0.3750   -1.9685 C   0  0  0  0  0  0  0  0  0  0  0  0
   -3.3842    1.5346   -1.0262 C   0  0  0  0  0  0  0  0  0  0  0  0
   -2.0603    2.1890   -1.1128 C   0  0  0  0  0  0  0  0  0  0  0  0
   -0.8703    1.4138   -0.7228 C   0  0  0  0  0  0  0  0  0  0  0  0
  1  2  1  0
  2  3  2  0
  3  4  1  0
  4  5  1  0
  5  6  1  0
  6  7  2  0
  7  8  1  0
  8  9  2  0
  9 10  1  0
 10 11  2  0
 11 12  1  0
  4 13  2  0
 13 14  1  0
 14 15  2  0
 14 16  1  0
 16 17  1  0
 17 18  1  0
 18 19  1  0
 19 20  1  0
 15  2  1  0
 11  6  1  0
 20 13  1  0
M  END
>  <zinc_id>  (1) 
ZINC000003711332

>  <smiles>  (1) 
Nc1nc(Cc2ccccc2Cl)c2c(n1)NCCCC2

$$$$
