
     RDKit          3D

 22 25  0  0  0  0  0  0  0  0999 V2000
   -4.6018    2.7763   -0.3338 C   0  0  0  0  0  0  0  0  0  0  0  0
   -5.2416    1.5740    0.0475 O   0  0  0  0  0  0  0  0  0  0  0  0
   -4.4983    0.4080   -0.0494 C   0  0  0  0  0  0  0  0  0  0  0  0
   -5.0076   -0.8233    0.2912 C   0  0  0  0  0  0  0  0  0  0  0  0
   -4.2666   -1.9837    0.1944 C   0  0  0  0  0  0  0  0  0  0  0  0
   -2.9282   -1.9000   -0.2750 C   0  0  0  0  0  0  0  0  0  0  0  0
   -2.4227   -0.6851   -0.6121 C   0  0  0  0  0  0  0  0  0  0  0  0
   -0.9314   -0.6627   -1.1255 C   0  0  2  0  0  0  0  0  0  0  0  0
   -0.3137   -1.6127    0.0016 N   0  0  0  0  0  0  0  0  0  0  0  0
    1.0968   -1.5215    0.1046 C   0  0  0  0  0  0  0  0  0  0  0  0
    1.7160   -2.5956    0.3011 O   0  0  0  0  0  0  0  0  0  0  0  0
    1.7878   -0.2120   -0.0166 C   0  0  0  0  0  0  0  0  0  0  0  0
    0.9239    0.8314   -0.2302 C   0  0  0  0  0  0  0  0  0  0  0  0
    2.0026    2.1717   -0.3152 S   0  0  0  0  0  0  0  0  0  0  0  0
    3.4877    1.3626   -0.0787 C   0  0  0  0  0  0  0  0  0  0  0  0
    3.0909    0.0572    0.0605 C   0  0  0  0  0  0  0  0  0  0  0  0
    4.2797   -0.8650    0.2860 C   0  0  0  0  0  0  0  0  0  0  0  0
    5.0206   -0.2753    1.4490 C   0  0  0  0  0  0  0  0  0  0  0  0
    5.5299    1.1044    1.2111 C   0  0  0  0  0  0  0  0  0  0  0  0
    4.9428    1.7645   -0.0059 C   0  0  0  0  0  0  0  0  0  0  0  0
   -0.5008    0.6645   -0.3262 N   0  0  0  0  0  0  0  0  0  0  0  0
   -3.1658    0.4222   -0.5073 C   0  0  0  0  0  0  0  0  0  0  0  0
  1  2  1  0
  2  3  1  0
  3  4  2  0
  4  5  1  0
  5  6  2  0
  6  7  1  0
  8  7  1  1
  8  9  1  0
  9 10  1  0
 10 11  2  0
 10 12  1  0
 12 13  2  0
 13 14  1  0
 14 15  1  0
 15 16  2  0
 16 17  1  0
 17 18  1  0
 18 19  1  0
 19 20  1  0
 13 21  1  0
  7 22  2  0
 22  3  1  0
 21  8  1  0
 16 12  1  0
 20 15  1  0
M  END
>  <zinc_id>  (1) 
ZINC000000565704

>  <smiles>  (1) 
COc1cccc([C@@H]2NC(=O)c3c(sc4c3CCCC4)N2)c1

$$$$
