
     RDKit          3D

 20 22  0  0  0  0  0  0  0  0999 V2000
    5.5383    1.1065   -1.0111 C   0  0  0  0  0  0  0  0  0  0  0  0
    5.9351    0.0693    0.0295 C   0  0  0  0  0  0  0  0  0  0  0  0
    5.2146   -1.2499   -0.2467 C   0  0  0  0  0  0  0  0  0  0  0  0
    3.7494   -0.9678   -0.1723 C   0  0  0  0  0  0  0  0  0  0  0  0
    2.6928   -1.7825   -0.3371 C   0  0  0  0  0  0  0  0  0  0  0  0
    1.4550   -1.3148   -0.2245 C   0  0  0  0  0  0  0  0  0  0  0  0
    1.3285    0.0244    0.0635 C   0  0  0  0  0  0  0  0  0  0  0  0
    2.9494    0.5357    0.1579 S   0  0  0  0  0  0  0  0  0  0  0  0
    0.0470    0.6512    0.2016 N   0  0  0  0  0  0  0  0  0  0  0  0
   -1.0198    0.0623   -0.8814 C   0  0  2  0  0  0  0  0  0  0  0  0
   -2.3456    0.6424   -0.2029 C   0  0  0  0  0  0  0  0  0  0  0  0
   -2.6628    0.6186    1.0638 C   0  0  0  0  0  0  0  0  0  0  0  0
   -3.8522    1.1669    1.4831 C   0  0  0  0  0  0  0  0  0  0  0  0
   -4.7153    1.7411    0.5899 C   0  0  0  0  0  0  0  0  0  0  0  0
   -6.0266    2.3437    1.0653 C   0  0  0  0  0  0  0  0  0  0  0  0
   -4.4000    1.7759   -0.7446 C   0  0  0  0  0  0  0  0  0  0  0  0
   -3.1779    1.2068   -1.1371 C   0  0  0  0  0  0  0  0  0  0  0  0
   -1.0566   -1.3458   -0.1497 N   0  0  0  0  0  0  0  0  0  0  0  0
    0.1690   -2.0152   -0.3331 C   0  0  0  0  0  0  0  0  0  0  0  0
    0.1775   -3.2688   -0.6023 O   0  0  0  0  0  0  0  0  0  0  0  0
  1  2  1  0
  2  3  1  0
  3  4  1  0
  4  5  2  0
  5  6  1  0
  6  7  2  0
  7  8  1  0
  7  9  1  0
  9 10  1  0
 10 11  1  1
 11 12  2  0
 12 13  1  0
 13 14  2  0
 14 15  1  0
 14 16  1  0
 16 17  2  0
 10 18  1  0
 18 19  1  0
 19 20  2  0
  8  4  1  0
 17 11  1  0
 19  6  1  0
M  END
>  <zinc_id>  (1) 
ZINC000002738013

>  <smiles>  (1) 
CCCc1cc2c(s1)N[C@H](c1ccc(C)cc1)NC2=O

$$$$
