
     RDKit          3D

 21 24  0  0  0  0  0  0  0  0999 V2000
   -4.2885   -0.5871    1.2217 C   0  0  0  0  0  0  0  0  0  0  0  0
   -3.7026    0.7500    0.8530 C   0  0  0  0  0  0  0  0  0  0  0  0
   -3.8381    1.9203    1.5086 N   0  0  0  0  0  0  0  0  0  0  0  0
   -3.1458    2.8130    0.8077 C   0  0  0  0  0  0  0  0  0  0  0  0
   -2.5895    2.1883   -0.2732 N   0  0  0  0  0  0  0  0  0  0  0  0
   -2.9144    0.9251   -0.2695 C   0  0  0  0  0  0  0  0  0  0  0  0
   -2.5188   -0.1100   -1.2637 C   0  0  0  0  0  0  0  0  0  0  0  0
   -1.3654   -0.9380   -0.4789 C   0  0  1  0  0  0  0  0  0  0  0  0
   -1.0960   -1.9821   -1.7264 C   0  0  0  0  0  0  0  0  0  0  0  0
    0.0455   -2.8194   -1.3040 C   0  0  0  0  0  0  0  0  0  0  0  0
    1.1683   -2.0369   -0.6665 C   0  0  0  0  0  0  0  0  0  0  0  0
    2.7159   -2.4914   -0.0951 S   0  0  0  0  0  0  0  0  0  0  0  0
    3.2889   -0.9730    0.4249 C   0  0  0  0  0  0  0  0  0  0  0  0
    4.4829   -0.5036    1.0094 C   0  0  0  0  0  0  0  0  0  0  0  0
    4.6640    0.8226    1.3221 C   0  0  0  0  0  0  0  0  0  0  0  0
    3.5984    1.6441    1.0221 C   0  0  0  0  0  0  0  0  0  0  0  0
    2.4471    1.2139    0.4628 C   0  0  0  0  0  0  0  0  0  0  0  0
    2.2506   -0.1422    0.1386 C   0  0  0  0  0  0  0  0  0  0  0  0
    1.1307   -0.6928   -0.4351 C   0  0  0  0  0  0  0  0  0  0  0  0
   -0.1457   -0.0334   -0.8570 C   0  0  0  0  0  0  0  0  0  0  0  0
   -0.1875    1.0327   -1.4016 O   0  0  0  0  0  0  0  0  0  0  0  0
  1  2  1  0
  2  3  1  0
  3  4  1  0
  4  5  2  0
  5  6  1  0
  6  7  1  0
  8  7  1  6
  8  9  1  0
  9 10  1  0
 10 11  1  0
 11 12  1  0
 12 13  1  0
 13 14  2  0
 14 15  1  0
 15 16  2  0
 16 17  1  0
 17 18  2  0
 18 19  1  0
 19 20  1  0
 20 21  2  0
  6  2  2  0
 20  8  1  0
 19 11  2  0
 18 13  1  0
M  END
>  <zinc_id>  (1) 
ZINC000000596101

>  <smiles>  (1) 
Cc1[nH]cnc1C[C@H]1CCc2sc3ccccc3c2C1=O

$$$$
