
     RDKit          3D

 19 21  0  0  0  0  0  0  0  0999 V2000
    5.4778   -1.2306   -0.7498 C   0  0  0  0  0  0  0  0  0  0  0  0
    4.9312   -0.2114    0.2492 C   0  0  0  0  0  0  0  0  0  0  0  0
    5.4532    1.1568    0.0190 C   0  0  0  0  0  0  0  0  0  0  0  0
    3.4439   -0.2193    0.2476 C   0  0  0  0  0  0  0  0  0  0  0  0
    2.6252    0.6737   -0.3296 C   0  0  0  0  0  0  0  0  0  0  0  0
    1.2986    0.5159   -0.2338 C   0  0  0  0  0  0  0  0  0  0  0  0
    0.8418   -0.5642    0.4578 C   0  0  0  0  0  0  0  0  0  0  0  0
    2.3203   -1.3187    0.9486 S   0  0  0  0  0  0  0  0  0  0  0  0
   -0.5605   -0.8037    0.6098 N   0  0  0  0  0  0  0  0  0  0  0  0
   -1.3718   -0.4486   -0.6951 C   0  0  1  0  0  0  0  0  0  0  0  0
   -2.8079   -0.4137    0.0136 C   0  0  0  0  0  0  0  0  0  0  0  0
   -3.8405   -1.0494   -0.6337 C   0  0  0  0  0  0  0  0  0  0  0  0
   -5.0920   -1.0550   -0.0791 C   0  0  0  0  0  0  0  0  0  0  0  0
   -5.2629   -0.4036    1.1386 C   0  0  0  0  0  0  0  0  0  0  0  0
   -4.2112    0.2270    1.7684 C   0  0  0  0  0  0  0  0  0  0  0  0
   -2.9682    0.2080    1.1744 C   0  0  0  0  0  0  0  0  0  0  0  0
   -1.0968    1.0935   -0.5798 N   0  0  0  0  0  0  0  0  0  0  0  0
    0.2439    1.4034   -0.7902 C   0  0  0  0  0  0  0  0  0  0  0  0
    0.5760    2.4397   -1.4546 O   0  0  0  0  0  0  0  0  0  0  0  0
  1  2  1  0
  2  3  1  0
  2  4  1  0
  4  5  2  0
  5  6  1  0
  6  7  2  0
  7  8  1  0
  7  9  1  0
  9 10  1  0
 10 11  1  1
 11 12  2  0
 12 13  1  0
 13 14  2  0
 14 15  1  0
 15 16  2  0
 10 17  1  0
 17 18  1  0
 18 19  2  0
  8  4  1  0
 16 11  1  0
 18  6  1  0
M  END
>  <zinc_id>  (1) 
ZINC000002730552

>  <smiles>  (1) 
CC(C)c1cc2c(s1)N[C@@H](c1ccccc1)NC2=O

$$$$
