
     RDKit          3D

 21 22  0  0  0  0  0  0  0  0999 V2000
    1.6007   -1.5739    1.3306 C   0  0  0  0  0  0  0  0  0  0  0  0
    0.2329   -1.6044    0.6257 C   0  0  0  0  0  0  0  0  0  0  0  0
    0.0447   -0.8846   -0.4133 C   0  0  0  0  0  0  0  0  0  0  0  0
    1.2152   -0.0641   -0.8450 C   0  0  0  0  0  0  0  0  0  0  0  0
    1.0799    0.6505   -1.8502 O   0  0  0  0  0  0  0  0  0  0  0  0
    2.4171   -0.0568   -0.1997 O   0  0  0  0  0  0  0  0  0  0  0  0
    3.5217    0.7009   -0.5853 C   0  0  0  0  0  0  0  0  0  0  0  0
    4.6506    0.4093    0.4098 C   0  0  0  0  0  0  0  0  0  0  0  0
    3.2636    2.1898   -0.5035 C   0  0  0  0  0  0  0  0  0  0  0  0
    3.9734    0.2933   -1.9850 C   0  0  0  0  0  0  0  0  0  0  0  0
   -1.1329   -0.6747   -1.3172 C   0  0  2  0  0  0  0  0  0  0  0  0
   -1.6676    0.6586   -0.7384 C   0  0  0  0  0  0  0  0  0  0  0  0
   -3.0039    0.9480   -0.8855 C   0  0  0  0  0  0  0  0  0  0  0  0
   -3.5550    2.1318   -0.3981 C   0  0  0  0  0  0  0  0  0  0  0  0
   -2.7216    3.0181    0.2432 C   0  0  0  0  0  0  0  0  0  0  0  0
   -1.3912    2.7231    0.3863 C   0  0  0  0  0  0  0  0  0  0  0  0
   -0.8557    1.5440   -0.1022 C   0  0  0  0  0  0  0  0  0  0  0  0
   -2.4513   -1.7979   -0.6166 S   0  0  0  0  0  0  0  0  0  0  0  0
   -1.8414   -2.6282    0.8024 C   0  0  0  0  0  0  0  0  0  0  0  0
   -2.7158   -3.5148    1.4692 N   0  0  0  0  0  0  0  0  0  0  0  0
   -0.6634   -2.4679    1.2493 N   0  0  0  0  0  0  0  0  0  0  0  0
  1  2  1  0
  2  3  2  0
  3  4  1  0
  4  5  2  0
  4  6  1  0
  6  7  1  0
  7  8  1  0
  7  9  1  0
  7 10  1  0
  3 11  1  0
 11 12  1  1
 12 13  2  0
 13 14  1  0
 14 15  2  0
 15 16  1  0
 16 17  2  0
 11 18  1  0
 18 19  1  0
 19 20  1  0
 19 21  2  0
 21  2  1  0
 17 12  1  0
M  END
>  <zinc_id>  (1) 
ZINC000001410003

>  <smiles>  (1) 
CC1=C(C(=O)OC(C)(C)C)[C@H](c2ccccc2)SC(N)=N1

$$$$
