
     RDKit          3D

 20 22  0  0  0  0  0  0  0  0999 V2000
    6.2656    1.1433    0.5866 C   0  0  0  0  0  0  0  0  0  0  0  0
    5.0190    0.3498    0.1795 C   0  0  0  0  0  0  0  0  0  0  0  0
    3.9810    1.3980   -0.2245 C   0  0  0  0  0  0  0  0  0  0  0  0
    4.5880   -0.4297    1.3819 C   0  0  0  0  0  0  0  0  0  0  0  0
    3.3748   -1.2695    1.1650 C   0  0  0  0  0  0  0  0  0  0  0  0
    2.2131   -0.4925    0.7829 N   0  0  0  0  0  0  0  0  0  0  0  0
    0.9689   -1.1350    0.5363 C   0  0  0  0  0  0  0  0  0  0  0  0
    0.8613   -2.4727    0.6565 N   0  0  0  0  0  0  0  0  0  0  0  0
   -0.2857   -3.1296    0.4363 C   0  0  0  0  0  0  0  0  0  0  0  0
   -1.3728   -2.4217    0.0808 N   0  0  0  0  0  0  0  0  0  0  0  0
   -1.3358   -1.0842   -0.0574 C   0  0  0  0  0  0  0  0  0  0  0  0
   -0.1534   -0.4215    0.1712 C   0  0  0  0  0  0  0  0  0  0  0  0
   -0.3739    0.9010   -0.0310 N   0  0  0  0  0  0  0  0  0  0  0  0
   -1.6743    1.0926   -0.3840 C   0  0  0  0  0  0  0  0  0  0  0  0
   -2.3803    2.2342   -0.6901 C   0  0  0  0  0  0  0  0  0  0  0  0
   -3.7328    2.1240   -1.0231 C   0  0  0  0  0  0  0  0  0  0  0  0
   -4.3655    0.9050   -1.0500 C   0  0  0  0  0  0  0  0  0  0  0  0
   -5.6772    0.8106   -1.3743 F   0  0  0  0  0  0  0  0  0  0  0  0
   -3.6343   -0.2178   -0.7395 C   0  0  0  0  0  0  0  0  0  0  0  0
   -2.2853   -0.1474   -0.4031 C   0  0  0  0  0  0  0  0  0  0  0  0
  1  2  1  0
  2  3  1  0
  2  4  1  0
  4  5  1  0
  5  6  1  0
  6  7  1  0
  7  8  2  0
  8  9  1  0
  9 10  2  0
 10 11  1  0
 11 12  2  0
 12 13  1  0
 13 14  1  0
 14 15  2  0
 15 16  1  0
 16 17  2  0
 17 18  1  0
 17 19  1  0
 19 20  2  0
 12  7  1  0
 20 14  1  0
 20 11  1  0
M  END
>  <zinc_id>  (1) 
ZINC000000538861

>  <smiles>  (1) 
CC(C)CCNc1ncnc2c1[nH]c1ccc(F)cc12

$$$$
