
     RDKit          3D

 22 24  0  0  0  0  0  0  0  0999 V2000
   -2.9522    0.6291   -1.4937 C   0  0  0  0  0  0  0  0  0  0  0  0
   -3.0253   -0.7568   -1.2559 C   0  0  0  0  0  0  0  0  0  0  0  0
   -2.8071   -1.6044   -2.5032 C   0  0  0  0  0  0  0  0  0  0  0  0
   -1.9477   -1.3680   -0.1938 C   0  0  1  0  0  0  0  0  0  0  0  0
   -0.9690   -0.1282   -0.2225 N   0  0  0  0  0  0  0  0  0  0  0  0
    0.3389   -0.3592    0.2924 C   0  0  0  0  0  0  0  0  0  0  0  0
    0.5533   -1.5225    0.7258 O   0  0  0  0  0  0  0  0  0  0  0  0
    1.3987    0.6040    0.3521 C   0  0  0  0  0  0  0  0  0  0  0  0
    1.2657    1.9819    0.3437 C   0  0  0  0  0  0  0  0  0  0  0  0
    2.3621    2.8424    0.3684 C   0  0  0  0  0  0  0  0  0  0  0  0
    3.6254    2.3134    0.4009 C   0  0  0  0  0  0  0  0  0  0  0  0
    3.8267    0.9284    0.4124 C   0  0  0  0  0  0  0  0  0  0  0  0
    5.1477    0.3898    0.4536 N   0  0  0  0  0  4  0  0  0  0  0  0
    5.2609   -0.8399    0.5316 O   0  0  0  0  0  0  0  0  0  0  0  0
    6.2831    1.1556    0.4258 O   0  0  0  0  0  1  0  0  0  0  0  0
    2.7253    0.1725    0.3900 C   0  0  0  0  0  0  0  0  0  0  0  0
   -2.8110   -0.8366    1.1131 C   0  0  1  0  0  0  0  0  0  0  0  0
   -2.0201   -1.0673    2.2973 C   0  0  0  0  0  0  0  0  0  0  0  0
   -3.3594    0.4568    0.8096 C   0  0  0  0  0  0  0  0  0  0  0  0
   -4.7055    0.1855    0.2196 C   0  0  0  0  0  0  0  0  0  0  0  0
   -4.4204   -1.2502   -0.5839 C   0  0  2  0  0  0  0  0  0  0  0  0
   -3.7702   -1.9265    0.7772 C   0  0  0  0  0  0  0  0  0  0  0  0
  1  2  1  0
  2  3  1  0
  2  4  1  0
  4  5  1  6
  5  6  1  0
  6  7  2  0
  6  8  1  0
  8  9  2  0
  9 10  1  0
 10 11  2  0
 11 12  1  0
 12 13  1  0
 13 14  2  0
 13 15  1  0
 12 16  2  0
  4 17  1  0
 17 18  1  1
 17 19  1  0
 19 20  1  0
 21 20  1  1
 21 22  1  0
 21  2  1  0
 16  8  1  0
 22 17  1  0
M  CHG  2  13   1  15  -1
M  END
>  <zinc_id>  (1) 
ZINC000001042169

>  <smiles>  (1) 
CC1(C)[C@@H](NC(=O)c2cccc([N+](=O)[O-])c2)[C@@]2(C)CC[C@@H]1C2

$$$$
