
     RDKit          3D

 20 21  0  0  0  0  0  0  0  0999 V2000
   -1.0583    1.6641   -1.8277 C   0  0  0  0  0  0  0  0  0  0  0  0
   -1.3070    0.6588   -0.8190 N   0  0  0  0  0  0  0  0  0  0  0  0
   -0.2861   -0.0641   -0.1479 C   0  0  0  0  0  0  0  0  0  0  0  0
   -0.6861   -1.1542    0.9883 S   0  0  0  0  0  0  0  0  0  0  0  0
    1.0776    0.1606   -0.4403 N   0  0  0  0  0  0  0  0  0  0  0  0
    2.1076   -0.5410    0.2352 C   0  0  0  0  0  0  0  0  0  0  0  0
    1.6814   -1.3815    1.1174 O   0  0  0  0  0  0  0  0  0  0  0  0
    3.5288   -0.4489    0.0727 C   0  0  0  0  0  0  0  0  0  0  0  0
    4.4043   -1.3090    0.8831 C   0  0  0  0  0  0  0  0  0  0  0  0
    5.5631   -0.4595    1.4070 C   0  0  0  0  0  0  0  0  0  0  0  0
    6.2752    0.2185    0.2344 C   0  0  0  0  0  0  0  0  0  0  0  0
    5.3280    1.0400   -0.5762 C   0  0  0  0  0  0  0  0  0  0  0  0
    4.1232    0.2249   -1.0723 C   0  0  0  0  0  0  0  0  0  0  0  0
   -2.6929    0.4279   -0.5166 C   0  0  0  0  0  0  0  0  0  0  0  0
   -3.0938    0.7979    0.7504 C   0  0  0  0  0  0  0  0  0  0  0  0
   -4.4012    0.6140    1.1338 C   0  0  0  0  0  0  0  0  0  0  0  0
   -5.3657    0.0639    0.2927 C   0  0  0  0  0  0  0  0  0  0  0  0
   -6.6747   -0.1028    0.7186 O   0  0  0  0  0  0  0  0  0  0  0  0
   -4.9248   -0.2955   -0.9788 C   0  0  0  0  0  0  0  0  0  0  0  0
   -3.5985   -0.1142   -1.3758 C   0  0  0  0  0  0  0  0  0  0  0  0
  1  2  1  0
  2  3  1  0
  3  4  2  0
  3  5  1  0
  5  6  1  0
  6  7  2  0
  6  8  1  0
  8  9  1  0
  9 10  1  0
 10 11  1  0
 11 12  1  0
 12 13  1  0
  2 14  1  0
 14 15  2  0
 15 16  1  0
 16 17  2  0
 17 18  1  0
 17 19  1  0
 19 20  2  0
 13  8  1  0
 20 14  1  0
M  END
>  <zinc_id>  (1) 
ZINC000003292822

>  <smiles>  (1) 
CN(C(=S)NC(=O)C1CCCCC1)c1ccc(O)cc1

$$$$
