
     RDKit          3D

 32 36  0  0  0  0  0  0  0  0999 V2000
    0.7610    4.5534    2.3484 C   0  0  0  0  0  0  0  0  0  0  0  0
    0.6308    3.1336    1.8772 C   0  0  0  0  0  0  0  0  0  0  0  0
    1.6681    2.2365    2.0229 C   0  0  0  0  0  0  0  0  0  0  0  0
    1.5525    0.9373    1.5949 C   0  0  0  0  0  0  0  0  0  0  0  0
    0.3833    0.4676    0.9945 C   0  0  0  0  0  0  0  0  0  0  0  0
   -0.6610    1.3538    0.8427 C   0  0  0  0  0  0  0  0  0  0  0  0
   -0.5257    2.6740    1.2851 C   0  0  0  0  0  0  0  0  0  0  0  0
   -1.6657    0.6287    0.2316 C   0  0  0  0  0  0  0  0  0  0  0  0
   -2.9615    1.1922   -0.1097 C   0  0  0  0  0  0  0  0  0  0  0  0
   -3.3716    1.1944   -1.4433 C   0  0  0  0  0  0  0  0  0  0  0  0
   -4.5803    1.7134   -1.8389 C   0  0  0  0  0  0  0  0  0  0  0  0
   -5.4244    2.2489   -0.9219 C   0  0  0  0  0  0  0  0  0  0  0  0
   -5.0442    2.2635    0.4275 C   0  0  0  0  0  0  0  0  0  0  0  0
   -3.8221    1.7347    0.7993 C   0  0  0  0  0  0  0  0  0  0  0  0
   -1.2561   -0.6719    0.0098 C   0  0  0  0  0  0  0  0  0  0  0  0
   -1.9838   -1.7741   -0.6042 C   0  0  0  0  0  0  0  0  0  0  0  0
   -3.1223   -2.2580    0.0026 C   0  0  0  0  0  0  0  0  0  0  0  0
   -3.8730   -3.3030   -0.5155 C   0  0  0  0  0  0  0  0  0  0  0  0
   -3.4811   -3.9018   -1.6929 C   0  0  0  0  0  0  0  0  0  0  0  0
   -2.3526   -3.4440   -2.3222 C   0  0  0  0  0  0  0  0  0  0  0  0
   -1.6328   -2.4040   -1.7773 C   0  0  0  0  0  0  0  0  0  0  0  0
    0.0063   -0.7080    0.4986 N   0  0  0  0  0  0  0  0  0  0  0  0
    0.8455   -1.8917    0.4783 C   0  0  0  0  0  0  0  0  0  0  0  0
    1.6563   -1.7452   -0.9989 C   0  0  2  0  0  0  0  0  0  0  0  0
    2.4224   -3.0691   -0.7505 O   0  0  0  0  0  0  0  0  0  0  0  0
    2.8777   -0.8395   -0.3038 C   0  0  0  0  0  0  0  0  0  0  0  0
    3.9543   -1.2071   -1.1965 N   0  0  0  0  0  0  0  0  0  0  0  0
    5.2087   -0.5969   -0.8766 C   0  0  0  0  0  0  0  0  0  0  0  0
    5.2363    0.8878   -0.9565 C   0  0  0  0  0  0  0  0  0  0  0  0
    6.4637    1.2574   -0.1301 C   0  0  0  0  0  0  0  0  0  0  0  0
    6.4192    0.2772    1.0236 C   0  0  0  0  0  0  0  0  0  0  0  0
    5.6721   -0.9400    0.5207 C   0  0  0  0  0  0  0  0  0  0  0  0
  1  2  1  0
  2  3  2  0
  3  4  1  0
  4  5  2  0
  5  6  1  0
  6  7  2  0
  6  8  1  0
  8  9  1  0
  9 10  2  0
 10 11  1  0
 11 12  2  0
 12 13  1  0
 13 14  2  0
  8 15  2  0
 15 16  1  0
 16 17  2  0
 17 18  1  0
 18 19  2  0
 19 20  1  0
 20 21  2  0
 15 22  1  0
 22 23  1  0
 23 24  1  0
 24 25  1  1
 24 26  1  0
 26 27  1  0
 27 28  1  0
 28 29  1  0
 29 30  1  0
 30 31  1  0
 31 32  1  0
  7  2  1  0
 14  9  1  0
 21 16  1  0
 32 28  1  0
 22  5  1  0
M  END
>  <zinc_id>  (1) 
ZINC000004189343

>  <smiles>  (1) 
Cc1ccc2c(c1)c(-c1ccccc1)c(-c1ccccc1)n2C[C@H](O)CNC1CCCC1

$$$$
