
     RDKit          3D

 31 34  0  0  0  0  0  0  0  0999 V2000
    8.7059   -1.0643   -0.3761 C   0  0  0  0  0  0  0  0  0  0  0  0
    7.3076   -0.5117   -0.3072 C   0  0  0  0  0  0  0  0  0  0  0  0
    7.0607    0.8122   -0.3312 C   0  0  0  0  0  0  0  0  0  0  0  0
    5.8532    1.3452   -0.2144 C   0  0  0  0  0  0  0  0  0  0  0  0
    4.7142    0.5113   -0.0538 C   0  0  0  0  0  0  0  0  0  0  0  0
    3.2721    1.3625    0.3587 S   0  0  0  0  0  0  0  0  0  0  0  0
    2.9225    2.0974   -1.0342 O   0  0  0  0  0  0  0  0  0  0  0  0
    3.6435    2.5575    1.2656 O   0  0  0  0  0  0  0  0  0  0  0  0
    1.8420    0.6604    0.8551 N   0  0  0  0  0  0  0  0  0  0  0  0
    0.7203    1.1524    0.1517 C   0  0  0  0  0  0  0  0  0  0  0  0
   -0.6209    0.6260    0.4637 C   0  0  0  0  0  0  0  0  0  0  0  0
   -1.4749    1.6758    1.0677 C   0  0  0  0  0  0  0  0  0  0  0  0
   -1.0004    3.0212    1.4200 C   0  0  0  0  0  0  0  0  0  0  0  0
   -2.6883    1.0935    1.2088 C   0  0  0  0  0  0  0  0  0  0  0  0
   -3.8991    1.7823    1.7746 C   0  0  0  0  0  0  0  0  0  0  0  0
   -2.6861   -0.1633    0.7793 N   0  0  0  0  0  0  0  0  0  0  0  0
   -3.8387   -1.0924    0.8632 C   0  0  0  0  0  0  0  0  0  0  0  0
   -4.8147   -0.5345   -0.1819 C   0  0  0  0  0  0  0  0  0  0  0  0
   -4.7619   -0.8222   -1.4870 C   0  0  0  0  0  0  0  0  0  0  0  0
   -5.6616   -0.2443   -2.4240 C   0  0  0  0  0  0  0  0  0  0  0  0
   -6.6391    0.6517   -1.9827 C   0  0  0  0  0  0  0  0  0  0  0  0
   -6.7001    0.9496   -0.6488 C   0  0  0  0  0  0  0  0  0  0  0  0
   -5.7895    0.3663    0.2908 C   0  0  0  0  0  0  0  0  0  0  0  0
   -1.4267   -0.4180    0.3271 C   0  0  0  0  0  0  0  0  0  0  0  0
   -1.1575   -1.7095   -0.2524 N   0  0  0  0  0  0  0  0  0  0  0  0
   -1.0719   -2.8378    0.4133 C   0  0  0  0  0  0  0  0  0  0  0  0
   -0.9219   -3.8770   -0.5241 C   0  0  0  0  0  0  0  0  0  0  0  0
   -0.9165   -3.2807   -1.7655 C   0  0  0  0  0  0  0  0  0  0  0  0
   -1.0689   -1.8979   -1.5701 C   0  0  0  0  0  0  0  0  0  0  0  0
    4.9003   -0.8291   -0.0421 C   0  0  0  0  0  0  0  0  0  0  0  0
    6.1962   -1.3826   -0.1631 C   0  0  0  0  0  0  0  0  0  0  0  0
  1  2  1  0
  2  3  2  0
  3  4  1  0
  4  5  2  0
  5  6  1  0
  6  7  2  0
  6  8  2  0
  6  9  1  0
  9 10  1  0
 10 11  1  0
 11 12  1  0
 12 13  1  0
 12 14  2  0
 14 15  1  0
 14 16  1  0
 16 17  1  0
 17 18  1  0
 18 19  2  0
 19 20  1  0
 20 21  2  0
 21 22  1  0
 22 23  2  0
 16 24  1  0
 24 25  1  0
 25 26  1  0
 26 27  2  0
 27 28  1  0
 28 29  2  0
  5 30  1  0
 30 31  2  0
 31  2  1  0
 24 11  2  0
 29 25  1  0
 23 18  1  0
M  END
>  <zinc_id>  (1) 
ZINC000001398805

>  <smiles>  (1) 
Cc1ccc(S(=O)(=O)NCc2c(C)c(C)n(Cc3ccccc3)c2-n2cccc2)cc1

$$$$
