
     RDKit          3D

 34 37  0  0  0  0  0  0  0  0999 V2000
   -0.4906   -3.9140   -3.4270 C   0  0  0  0  0  0  0  0  0  0  0  0
   -0.7965   -2.9439   -2.3411 C   0  0  0  0  0  0  0  0  0  0  0  0
   -2.0241   -2.8987   -1.7272 C   0  0  0  0  0  0  0  0  0  0  0  0
   -2.2287   -1.9723   -0.7309 C   0  0  0  0  0  0  0  0  0  0  0  0
   -1.2978   -1.0966   -0.3111 N   0  0  0  0  0  0  0  0  0  0  0  0
   -1.2763   -0.1199    0.6294 C   0  0  0  0  0  0  0  0  0  0  0  0
   -2.3134    0.2616    1.4819 N   0  0  0  0  0  0  0  0  0  0  0  0
   -3.6274   -0.3241    1.5214 C   0  0  0  0  0  0  0  0  0  0  0  0
   -4.5125    0.3212    2.5619 C   0  0  0  0  0  0  0  0  0  0  0  0
   -3.4763   -1.7852    1.8883 C   0  0  0  0  0  0  0  0  0  0  0  0
   -4.3529   -0.2509    0.2034 C   0  0  0  0  0  0  0  0  0  0  0  0
   -4.5528    1.1544   -0.2749 C   0  0  0  0  0  0  0  0  0  0  0  0
   -5.2939    1.0722   -1.6083 C   0  0  0  0  0  0  0  0  0  0  0  0
   -3.2149    1.8075   -0.5574 C   0  0  0  0  0  0  0  0  0  0  0  0
   -5.3758    1.9801    0.6809 C   0  0  0  0  0  0  0  0  0  0  0  0
   -0.0263    0.4594    0.6128 C   0  0  0  0  0  0  0  0  0  0  0  0
    0.4548    1.5581    1.4586 C   0  0  0  0  0  0  0  0  0  0  0  0
   -0.4201    2.0971    2.3891 C   0  0  0  0  0  0  0  0  0  0  0  0
    0.0385    3.1174    3.1690 C   0  0  0  0  0  0  0  0  0  0  0  0
    1.3030    3.6070    3.0584 C   0  0  0  0  0  0  0  0  0  0  0  0
    2.1465    3.0472    2.1222 C   0  0  0  0  0  0  0  0  0  0  0  0
    1.7456    2.0191    1.3080 C   0  0  0  0  0  0  0  0  0  0  0  0
    2.5299    1.4128    0.3539 O   0  0  0  0  0  0  0  0  0  0  0  0
    3.3343    0.3204    0.5743 C   0  0  0  0  0  0  0  0  0  0  0  0
    3.3305   -0.1429    1.7664 O   0  0  0  0  0  0  0  0  0  0  0  0
    4.1534   -0.3093   -0.4309 C   0  0  0  0  0  0  0  0  0  0  0  0
    4.9352   -1.3998   -0.1436 C   0  0  0  0  0  0  0  0  0  0  0  0
    5.7214   -1.9925   -1.1382 C   0  0  0  0  0  0  0  0  0  0  0  0
    5.7270   -1.4963   -2.4197 C   0  0  0  0  0  0  0  0  0  0  0  0
    4.9463   -0.4058   -2.7106 C   0  0  0  0  0  0  0  0  0  0  0  0
    4.1758    0.1671   -1.7157 C   0  0  0  0  0  0  0  0  0  0  0  0
    0.6841   -0.1740   -0.3333 N   0  0  0  0  0  0  0  0  0  0  0  0
   -0.0938   -1.1319   -0.9042 C   0  0  0  0  0  0  0  0  0  0  0  0
    0.1474   -2.0448   -1.9045 C   0  0  0  0  0  0  0  0  0  0  0  0
  1  2  1  0
  2  3  1  0
  3  4  2  0
  4  5  1  0
  5  6  1  0
  6  7  1  0
  7  8  1  0
  8  9  1  0
  8 10  1  0
  8 11  1  0
 11 12  1  0
 12 13  1  0
 12 14  1  0
 12 15  1  0
  6 16  2  0
 16 17  1  0
 17 18  2  0
 18 19  1  0
 19 20  2  0
 20 21  1  0
 21 22  2  0
 22 23  1  0
 23 24  1  0
 24 25  2  0
 24 26  1  0
 26 27  2  0
 27 28  1  0
 28 29  2  0
 29 30  1  0
 30 31  2  0
 16 32  1  0
 32 33  2  0
 33 34  1  0
 34  2  2  0
 33  5  1  0
 22 17  1  0
 31 26  1  0
M  END
>  <zinc_id>  (1) 
ZINC000004157569

>  <smiles>  (1) 
Cc1ccn2c(NC(C)(C)CC(C)(C)C)c(-c3ccccc3OC(=O)c3ccccc3)nc2c1

$$$$
