
     RDKit          3D

 19 21  0  0  0  0  0  0  0  0999 V2000
   -3.4049    0.3645   -2.8433 C   0  0  0  0  0  0  0  0  0  0  0  0
   -2.3881    0.6010   -1.8581 O   0  0  0  0  0  0  0  0  0  0  0  0
   -2.2732   -0.3435   -0.8513 C   0  0  0  0  0  0  0  0  0  0  0  0
   -3.0566   -1.4552   -0.7550 C   0  0  0  0  0  0  0  0  0  0  0  0
   -2.9212   -2.3826    0.2585 C   0  0  0  0  0  0  0  0  0  0  0  0
   -1.9553   -2.1907    1.2247 C   0  0  0  0  0  0  0  0  0  0  0  0
   -1.1856   -1.0862    1.1176 C   0  0  0  0  0  0  0  0  0  0  0  0
   -1.2864   -0.1310    0.1200 C   0  0  0  0  0  0  0  0  0  0  0  0
   -0.4779    1.0547    0.0595 C   0  0  0  0  0  0  0  0  0  0  0  0
   -1.0614    2.1422   -0.1858 O   0  0  0  0  0  0  0  0  0  0  0  0
    0.9949    1.0398    0.2732 C   0  0  0  0  0  0  0  0  0  0  0  0
    1.6992    2.2244    0.2560 C   0  0  0  0  0  0  0  0  0  0  0  0
    1.2092    3.5504    0.0856 N   0  0  0  0  0  0  0  0  0  0  0  0
    3.3003    1.7422    0.4882 S   0  0  0  0  0  0  0  0  0  0  0  0
    3.0809    0.0572    0.6055 C   0  0  0  0  0  0  0  0  0  0  0  0
    1.7314   -0.0942    0.4582 C   0  0  0  0  0  0  0  0  0  0  0  0
    1.4549   -1.5932    0.5376 C   0  0  0  0  0  0  0  0  0  0  0  0
    2.7544   -2.2281    0.2129 C   0  0  0  0  0  0  0  0  0  0  0  0
    3.7853   -1.2717    0.7960 C   0  0  0  0  0  0  0  0  0  0  0  0
  1  2  1  0
  2  3  1  0
  3  4  2  0
  4  5  1  0
  5  6  2  0
  6  7  1  0
  7  8  2  0
  8  9  1  0
  9 10  2  0
  9 11  1  0
 11 12  2  0
 12 13  1  0
 12 14  1  0
 14 15  1  0
 15 16  2  0
 16 17  1  0
 17 18  1  0
 18 19  1  0
  8  3  1  0
 16 11  1  0
 19 15  1  0
M  END
>  <zinc_id>  (1) 
ZINC000000414588

>  <smiles>  (1) 
COc1ccccc1C(=O)c1c(N)sc2c1CCC2

$$$$
