
     RDKit          3D

 19 20  0  0  0  0  0  0  0  0999 V2000
   -5.3941    1.6267    1.4419 C   0  0  0  0  0  0  0  0  0  0  0  0
   -5.9463    0.7771    0.3669 C   0  0  0  0  0  0  0  0  0  0  0  0
   -4.7179    0.1747   -0.5285 C   0  0  2  0  0  0  0  0  0  0  0  0
   -4.0071   -0.6010    0.7363 C   0  0  0  0  0  0  0  0  0  0  0  0
   -2.7980   -1.1398    0.0605 C   0  0  0  0  0  0  0  0  0  0  0  0
   -2.0690   -0.3104   -0.6515 C   0  0  0  0  0  0  0  0  0  0  0  0
   -0.8833   -0.7877   -1.3269 N   0  0  0  0  0  0  0  0  0  0  0  0
    0.3588   -0.2883   -0.9607 N   0  0  0  0  0  0  0  0  0  0  0  0
    1.3216   -1.1288   -0.3706 C   0  0  0  0  0  0  0  0  0  0  0  0
    1.0575   -2.3218   -0.1774 O   0  0  0  0  0  0  0  0  0  0  0  0
    2.6034   -0.5412   -0.0098 C   0  0  0  0  0  0  0  0  0  0  0  0
    2.7723    0.0029    1.2477 C   0  0  0  0  0  0  0  0  0  0  0  0
    3.9866    0.5725    1.6259 C   0  0  0  0  0  0  0  0  0  0  0  0
    5.0589    0.6139    0.7633 C   0  0  0  0  0  0  0  0  0  0  0  0
    6.2517    1.1711    1.1206 F   0  0  0  0  0  0  0  0  0  0  0  0
    4.8883    0.0700   -0.4907 C   0  0  0  0  0  0  0  0  0  0  0  0
    3.6782   -0.5007   -0.8751 C   0  0  0  0  0  0  0  0  0  0  0  0
   -2.3924    1.1071   -0.8058 C   0  0  0  0  0  0  0  0  0  0  0  0
   -3.7693    1.5036   -0.3945 C   0  0  0  0  0  0  0  0  0  0  0  0
  1  2  1  0
  3  2  1  1
  3  4  1  0
  4  5  1  0
  5  6  2  0
  6  7  1  0
  7  8  1  0
  8  9  1  0
  9 10  2  0
  9 11  1  0
 11 12  2  0
 12 13  1  0
 13 14  2  0
 14 15  1  0
 14 16  1  0
 16 17  2  0
  6 18  1  0
 18 19  1  0
 19  3  1  0
 17 11  1  0
M  END
>  <zinc_id>  (1) 
ZINC000002729603

>  <smiles>  (1) 
CC[C@@H]1CC=C(NNC(=O)c2ccc(F)cc2)CC1

$$$$
