
     RDKit          3D

 32 35  0  0  0  0  0  0  0  0999 V2000
    6.6688   -4.2583   -1.1555 C   0  0  0  0  0  0  0  0  0  0  0  0
    6.7307   -3.1520   -0.2793 O   0  0  0  0  0  0  0  0  0  0  0  0
    5.6293   -2.3705   -0.0546 C   0  0  0  0  0  0  0  0  0  0  0  0
    5.7297   -1.2885    0.8160 C   0  0  0  0  0  0  0  0  0  0  0  0
    4.6436   -0.4871    1.0613 C   0  0  0  0  0  0  0  0  0  0  0  0
    3.4244   -0.7042    0.4738 C   0  0  0  0  0  0  0  0  0  0  0  0
    2.3210    0.1686    0.7683 N   0  0  0  0  0  0  0  0  0  0  0  0
    1.0489   -0.0643    0.1596 C   0  0  0  0  0  0  0  0  0  0  0  0
    0.9778   -1.0189   -0.5954 O   0  0  0  0  0  0  0  0  0  0  0  0
   -0.0996    0.8488    0.4730 C   0  0  0  0  0  0  0  0  0  0  0  0
   -1.3540    0.5922    0.0416 C   0  0  0  0  0  0  0  0  0  0  0  0
   -2.0856   -0.5339   -0.3754 N   0  0  0  0  0  0  0  0  0  0  0  0
   -1.8541   -1.8478   -0.0891 C   0  0  0  0  0  0  0  0  0  0  0  0
   -0.9524   -2.3104    0.6425 O   0  0  0  0  0  0  0  0  0  0  0  0
   -2.7438   -2.9114   -0.6863 C   0  0  0  0  0  0  0  0  0  0  0  0
   -3.7241   -2.3015   -1.4689 O   0  0  0  0  0  0  0  0  0  0  0  0
   -4.6426   -1.4109   -0.9839 C   0  0  0  0  0  0  0  0  0  0  0  0
   -5.5556   -0.8900   -1.9045 C   0  0  0  0  0  0  0  0  0  0  0  0
   -6.5127    0.0021   -1.5349 C   0  0  0  0  0  0  0  0  0  0  0  0
   -6.5782    0.3999   -0.2116 C   0  0  0  0  0  0  0  0  0  0  0  0
   -5.6938   -0.0920    0.7290 C   0  0  0  0  0  0  0  0  0  0  0  0
   -4.7473   -0.9854    0.3207 C   0  0  0  0  0  0  0  0  0  0  0  0
   -2.1597    2.1354    0.4162 S   0  0  0  0  0  0  0  0  0  0  0  0
   -0.8593    2.9576    1.0879 C   0  0  0  0  0  0  0  0  0  0  0  0
    0.1569    2.0665    1.0172 C   0  0  0  0  0  0  0  0  0  0  0  0
    1.4146    2.6987    1.6086 C   0  0  0  0  0  0  0  0  0  0  0  0
    1.8298    3.8933    0.9226 C   0  0  0  0  0  0  0  0  0  0  0  0
    0.5902    4.9175    0.6298 C   0  0  2  0  0  0  0  0  0  0  0  0
    1.1504    6.0358    1.7046 C   0  0  0  0  0  0  0  0  0  0  0  0
   -0.4777    4.2841    1.7060 C   0  0  0  0  0  0  0  0  0  0  0  0
    3.3162   -1.7729   -0.3894 C   0  0  0  0  0  0  0  0  0  0  0  0
    4.4080   -2.6008   -0.6532 C   0  0  0  0  0  0  0  0  0  0  0  0
  1  2  1  0
  2  3  1  0
  3  4  2  0
  4  5  1  0
  5  6  2  0
  6  7  1  0
  7  8  1  0
  8  9  2  0
  8 10  1  0
 10 11  2  0
 11 12  1  0
 12 13  1  0
 13 14  2  0
 13 15  1  0
 15 16  1  0
 16 17  1  0
 17 18  2  0
 18 19  1  0
 19 20  2  0
 20 21  1  0
 21 22  2  0
 11 23  1  0
 23 24  1  0
 24 25  2  0
 25 26  1  0
 26 27  1  0
 27 28  1  0
 28 29  1  1
 28 30  1  0
  6 31  1  0
 31 32  2  0
 32  3  1  0
 25 10  1  0
 22 17  1  0
 30 24  1  0
M  END
>  <zinc_id>  (1) 
ZINC000001216753

>  <smiles>  (1) 
COc1ccc(NC(=O)c2c(NC(=O)COc3ccccc3)sc3c2CC[C@H](C)C3)cc1

$$$$
