
     RDKit          3D

 19 20  0  0  0  0  0  0  0  0999 V2000
    5.0923   -1.7795   -1.2031 C   0  0  0  0  0  0  0  0  0  0  0  0
    3.8525   -1.2372   -0.5848 C   0  0  0  0  0  0  0  0  0  0  0  0
    3.7918   -1.0810    0.7916 C   0  0  0  0  0  0  0  0  0  0  0  0
    2.6699   -0.5845    1.4119 C   0  0  0  0  0  0  0  0  0  0  0  0
    2.7247   -0.4626    2.8989 C   0  0  0  0  0  0  0  0  0  0  0  0
    1.5653   -0.2254    0.6747 C   0  0  0  0  0  0  0  0  0  0  0  0
    1.6191   -0.3786   -0.6992 C   0  0  0  0  0  0  0  0  0  0  0  0
    0.5632   -0.0483   -1.5391 O   0  0  0  0  0  0  0  0  0  0  0  0
   -0.6078    0.4655   -0.9388 C   0  0  0  0  0  0  0  0  0  0  0  0
   -0.7134    1.8093   -0.7702 C   0  0  0  0  0  0  0  0  0  0  0  0
   -1.8407    2.3431   -0.1889 C   0  0  0  0  0  0  0  0  0  0  0  0
   -1.9906    3.7613    0.0074 N   0  0  0  0  0  0  0  0  0  0  0  0
   -2.8492    1.5032    0.2149 C   0  0  0  0  0  0  0  0  0  0  0  0
   -2.7417    0.1378    0.0434 C   0  0  0  0  0  0  0  0  0  0  0  0
   -3.7638   -0.7531    0.4492 N   0  0  0  0  0  4  0  0  0  0  0  0
   -3.6269   -1.9649    0.2774 O   0  0  0  0  0  0  0  0  0  0  0  0
   -4.8913   -0.2543    1.0274 O   0  0  0  0  0  1  0  0  0  0  0  0
   -1.6109   -0.3676   -0.5370 C   0  0  0  0  0  0  0  0  0  0  0  0
    2.7574   -0.8831   -1.3358 C   0  0  0  0  0  0  0  0  0  0  0  0
  1  2  1  0
  2  3  2  0
  3  4  1  0
  4  5  1  0
  4  6  2  0
  6  7  1  0
  7  8  1  0
  8  9  1  0
  9 10  2  0
 10 11  1  0
 11 12  1  0
 11 13  2  0
 13 14  1  0
 14 15  1  0
 15 16  2  0
 15 17  1  0
 14 18  2  0
  7 19  2  0
 19  2  1  0
 18  9  1  0
M  CHG  2  15   1  17  -1
M  END
>  <zinc_id>  (1) 
ZINC000000374072

>  <smiles>  (1) 
Cc1cc(C)cc(Oc2cc(N)cc([N+](=O)[O-])c2)c1

$$$$
