
     RDKit          3D

 20 21  0  0  0  0  0  0  0  0999 V2000
    4.2272    0.1309   -2.2633 C   0  0  0  0  0  0  0  0  0  0  0  0
    4.1889   -0.7217   -1.0527 C   0  0  0  0  0  0  0  0  0  0  0  0
    5.1574   -1.4691   -0.8038 O   0  0  0  0  0  0  0  0  0  0  0  0
    3.0111   -0.6471   -0.2013 C   0  0  0  0  0  0  0  0  0  0  0  0
    2.8173   -1.3747    0.9613 C   0  0  0  0  0  0  0  0  0  0  0  0
    3.8185   -2.3569    1.5083 C   0  0  0  0  0  0  0  0  0  0  0  0
    1.6213   -1.0459    1.4754 N   0  0  0  0  0  0  0  0  0  0  0  0
    1.0548   -0.1308    0.6690 C   0  0  0  0  0  0  0  0  0  0  0  0
   -0.2504    0.5063    0.8433 C   0  0  0  0  0  0  0  0  0  0  0  0
   -0.9278    0.1778    1.8370 O   0  0  0  0  0  0  0  0  0  0  0  0
   -0.7505    1.4654   -0.0698 N   0  0  0  0  0  0  0  0  0  0  0  0
   -2.0426    2.0575    0.1559 C   0  0  0  0  0  0  0  0  0  0  0  0
   -3.1691    1.1775   -0.1739 C   0  0  0  0  0  0  0  0  0  0  0  0
   -2.9800   -0.1044   -0.6588 C   0  0  0  0  0  0  0  0  0  0  0  0
   -4.0529   -0.8879   -0.9527 C   0  0  0  0  0  0  0  0  0  0  0  0
   -5.3597   -0.4573   -0.7874 C   0  0  0  0  0  0  0  0  0  0  0  0
   -5.5240    0.8299   -0.3005 C   0  0  0  0  0  0  0  0  0  0  0  0
   -4.4393    1.6279   -0.0011 C   0  0  0  0  0  0  0  0  0  0  0  0
    1.9002    0.1404   -0.3904 C   0  0  0  0  0  0  0  0  0  0  0  0
    1.6996    1.0822   -1.5299 C   0  0  0  0  0  0  0  0  0  0  0  0
  1  2  1  0
  2  3  2  0
  2  4  1  0
  4  5  2  0
  5  6  1  0
  5  7  1  0
  7  8  1  0
  8  9  1  0
  9 10  2  0
  9 11  1  0
 11 12  1  0
 12 13  1  0
 13 14  2  0
 14 15  1  0
 15 16  2  0
 16 17  1  0
 17 18  2  0
  8 19  2  0
 19 20  1  0
 19  4  1  0
 18 13  1  0
M  END
>  <zinc_id>  (1) 
ZINC000000429523

>  <smiles>  (1) 
CC(=O)c1c(C)[nH]c(C(=O)NCc2ccccc2)c1C

$$$$
