
     RDKit          3D

 21 23  0  0  0  0  0  0  0  0999 V2000
   -1.1250   -3.0374   -1.2586 C   0  0  0  0  0  0  0  0  0  0  0  0
   -1.0990   -1.5922   -0.9643 C   0  0  0  0  0  0  0  0  0  0  0  0
   -1.9293   -0.8002   -1.5030 C   0  0  0  0  0  0  0  0  0  0  0  0
   -1.5742    0.6108   -0.9564 C   0  0  1  0  0  0  0  0  0  0  0  0
   -2.9781    1.3158   -1.3888 C   0  0  0  0  0  0  0  0  0  0  0  0
   -1.9009    0.4322    0.5555 C   0  0  2  0  0  0  0  0  0  0  0  0
   -3.2672    0.4723    0.9554 C   0  0  0  0  0  0  0  0  0  0  0  0
   -4.1816   -0.3853    0.4973 O   0  0  0  0  0  0  0  0  0  0  0  0
   -1.0362    1.6117    1.0713 C   0  0  0  0  0  0  0  0  0  0  0  0
    0.2689    1.0697    0.9467 O   0  0  0  0  0  0  0  0  0  0  0  0
    0.3498    0.3857   -0.3820 C   0  0  1  0  0  0  0  0  0  0  0  0
    1.9371    0.2233   -0.3158 C   0  0  0  0  0  0  0  0  0  0  0  0
    2.5441   -0.9578   -0.2627 C   0  0  0  0  0  0  0  0  0  0  0  0
    3.9259   -1.0116   -0.2270 C   0  0  0  0  0  0  0  0  0  0  0  0
    4.7090    0.1297   -0.2437 C   0  0  0  0  0  0  0  0  0  0  0  0
    4.0472    1.3332   -0.2986 C   0  0  0  0  0  0  0  0  0  0  0  0
    2.6713    1.3900   -0.3348 C   0  0  0  0  0  0  0  0  0  0  0  0
    2.0253    2.6146   -0.3893 O   0  0  0  0  0  0  0  0  0  0  0  0
   -0.0219   -1.1957    0.1009 C   0  0  1  0  0  0  0  0  0  0  0  0
   -1.1357   -0.7256    1.3332 C   0  0  2  0  0  0  0  0  0  0  0  0
   -2.2295   -1.8832    1.1324 C   0  0  0  0  0  0  0  0  0  0  0  0
  1  2  1  0
  2  3  2  0
  3  4  1  0
  4  5  1  6
  4  6  1  0
  6  7  1  6
  7  8  1  0
  6  9  1  0
  9 10  1  0
 10 11  1  0
 11 12  1  1
 12 13  2  0
 13 14  1  0
 14 15  2  0
 15 16  1  0
 16 17  2  0
 17 18  1  0
 11 19  1  0
 19 20  1  0
 20 21  1  6
 19  2  1  6
 20  6  1  0
 17 12  1  0
M  END
>  <zinc_id>  (1) 
ZINC000001054990

>  <smiles>  (1) 
CC1=C[C@@H](C)[C@]2(CO)CO[C@@H](c3ccccc3O)[C@H]1[C@@H]2C

$$$$
