
     RDKit          3D

 22 24  0  0  0  0  0  0  0  0999 V2000
    4.3374    2.5722    0.3730 C   0  0  0  0  0  0  0  0  0  0  0  0
    3.7167    1.7382   -0.6038 O   0  0  0  0  0  0  0  0  0  0  0  0
    2.5940    1.0208   -0.1953 C   0  0  0  0  0  0  0  0  0  0  0  0
    2.0847    1.0935    1.0861 C   0  0  0  0  0  0  0  0  0  0  0  0
    0.9706    0.3770    1.4791 C   0  0  0  0  0  0  0  0  0  0  0  0
    0.3865   -0.3967    0.5882 C   0  0  0  0  0  0  0  0  0  0  0  0
    0.8409   -0.5070   -0.6796 C   0  0  0  0  0  0  0  0  0  0  0  0
    1.9579    0.1959   -1.1150 C   0  0  0  0  0  0  0  0  0  0  0  0
    2.4188    0.0841   -2.4016 O   0  0  0  0  0  0  0  0  0  0  0  0
    1.8384   -0.7240   -3.3946 C   0  0  0  0  0  0  0  0  0  0  0  0
   -0.8997   -1.2783    0.8709 C   0  0  2  0  0  0  0  0  0  0  0  0
   -1.8173   -0.6301   -0.2723 C   0  0  0  0  0  0  0  0  0  0  0  0
   -1.8283    0.7432   -0.3530 C   0  0  0  0  0  0  0  0  0  0  0  0
   -2.6219    1.2949   -1.3669 C   0  0  0  0  0  0  0  0  0  0  0  0
   -3.3437    0.4923   -2.2251 C   0  0  0  0  0  0  0  0  0  0  0  0
   -3.2668   -0.8750   -2.0624 C   0  0  0  0  0  0  0  0  0  0  0  0
   -2.5016   -1.4761   -1.0816 C   0  0  0  0  0  0  0  0  0  0  0  0
   -2.4470   -2.8240   -0.9495 F   0  0  0  0  0  0  0  0  0  0  0  0
   -1.5516   -0.3313    2.0500 C   0  0  0  0  0  0  0  0  0  0  0  0
   -0.6094   -0.2595    3.1482 C   0  0  0  0  0  0  0  0  0  0  0  0
   -0.7938   -0.8427    4.2407 O   0  0  0  0  0  0  0  0  0  0  0  0
    0.5353    0.5326    2.8643 N   0  0  0  0  0  0  0  0  0  0  0  0
  1  2  1  0
  2  3  1  0
  3  4  2  0
  4  5  1  0
  5  6  2  0
  6  7  1  0
  7  8  2  0
  8  9  1  0
  9 10  1  0
  6 11  1  0
 11 12  1  6
 12 13  2  0
 13 14  1  0
 14 15  2  0
 15 16  1  0
 16 17  2  0
 17 18  1  0
 11 19  1  0
 19 20  1  0
 20 21  2  0
 20 22  1  0
  8  3  1  0
 17 12  1  0
 22  5  1  0
M  END
>  <zinc_id>  (1) 
ZINC000000094910

>  <smiles>  (1) 
COc1cc2c(cc1OC)[C@H](c1ccccc1F)CC(=O)N2

$$$$
