
     RDKit          3D

 29 31  0  0  0  0  0  0  0  0999 V2000
    2.7761   -3.3981   -1.6262 C   0  0  0  0  0  0  0  0  0  0  0  0
    1.4714   -2.9196   -2.1135 C   0  0  0  0  0  0  0  0  0  0  0  0
    1.3802   -1.6135   -2.7718 C   0  0  0  0  0  0  0  0  0  0  0  0
    1.7619   -0.4523   -2.0409 N   0  0  0  0  0  0  0  0  0  0  0  0
    2.9556    0.1511   -2.0458 C   0  0  0  0  0  0  0  0  0  0  0  0
    4.1994   -0.2017   -2.8059 C   0  0  0  0  0  0  0  0  0  0  0  0
    5.0645   -1.0630   -1.9542 C   0  0  0  0  0  0  0  0  0  0  0  0
    5.4757   -0.3897   -0.6801 C   0  0  0  0  0  0  0  0  0  0  0  0
    4.7261   -0.4890    0.4742 C   0  0  0  0  0  0  0  0  0  0  0  0
    5.0915    0.1249    1.6548 C   0  0  0  0  0  0  0  0  0  0  0  0
    6.2556    0.8785    1.7095 C   0  0  0  0  0  0  0  0  0  0  0  0
    7.0160    0.9873    0.5634 C   0  0  0  0  0  0  0  0  0  0  0  0
    6.6338    0.3658   -0.6076 C   0  0  0  0  0  0  0  0  0  0  0  0
    2.8960    1.2164   -1.2100 N   0  0  0  0  0  0  0  0  0  0  0  0
    1.6830    1.2439   -0.7166 N   0  0  0  0  0  0  0  0  0  0  0  0
    0.9410    0.2440   -1.1902 C   0  0  0  0  0  0  0  0  0  0  0  0
   -0.7532   -0.2166   -0.8818 S   0  0  0  0  0  0  0  0  0  0  0  0
   -1.4982    0.9326    0.2847 C   0  0  0  0  0  0  0  0  0  0  0  0
   -2.9053    0.5600    0.5485 C   0  0  0  0  0  0  0  0  0  0  0  0
   -3.3974   -0.4421   -0.0241 O   0  0  0  0  0  0  0  0  0  0  0  0
   -3.7356    1.2938    1.4314 N   0  0  0  0  0  0  0  0  0  0  0  0
   -5.0716    0.8501    1.6134 C   0  0  0  0  0  0  0  0  0  0  0  0
   -6.0450    1.3453    0.7797 C   0  0  0  0  0  0  0  0  0  0  0  0
   -5.6852    2.3219   -0.2813 C   0  0  0  0  0  0  0  0  0  0  0  0
   -7.3339    0.8943    0.9824 C   0  0  0  0  0  0  0  0  0  0  0  0
   -7.6504   -0.0179    1.9784 C   0  0  0  0  0  0  0  0  0  0  0  0
   -6.6340   -0.4831    2.7878 C   0  0  0  0  0  0  0  0  0  0  0  0
   -5.3400   -0.0638    2.6238 C   0  0  0  0  0  0  0  0  0  0  0  0
   -4.2780   -0.5911    3.5182 C   0  0  0  0  0  0  0  0  0  0  0  0
  1  2  1  0
  2  3  1  0
  3  4  1  0
  4  5  1  0
  5  6  1  0
  6  7  1  0
  7  8  1  0
  8  9  2  0
  9 10  1  0
 10 11  2  0
 11 12  1  0
 12 13  2  0
  5 14  2  0
 14 15  1  0
 15 16  2  0
 16 17  1  0
 17 18  1  0
 18 19  1  0
 19 20  2  0
 19 21  1  0
 21 22  1  0
 22 23  2  0
 23 24  1  0
 23 25  1  0
 25 26  2  0
 26 27  1  0
 27 28  2  0
 28 29  1  0
 16  4  1  0
 28 22  1  0
 13  8  1  0
M  END
>  <zinc_id>  (1) 
ZINC000000687300

>  <smiles>  (1) 
CCCn1c(CCc2ccccc2)nnc1SCC(=O)Nc1c(C)cccc1C

$$$$
