
     RDKit          3D

 19 20  0  0  0  0  0  0  0  0999 V2000
    5.4406    1.8356   -1.5383 C   0  0  0  0  0  0  0  0  0  0  0  0
    4.4740    0.9467   -1.0275 O   0  0  0  0  0  0  0  0  0  0  0  0
    3.3484    1.3710   -0.3380 C   0  0  0  0  0  0  0  0  0  0  0  0
    3.1870    2.6037   -0.1627 O   0  0  0  0  0  0  0  0  0  0  0  0
    2.3429    0.4396    0.1927 C   0  0  0  0  0  0  0  0  0  0  0  0
    1.2596    0.9435    0.8594 C   0  0  0  0  0  0  0  0  0  0  0  0
    0.3126    0.0895    1.3553 C   0  0  0  0  0  0  0  0  0  0  0  0
    0.4255   -1.2685    1.1981 C   0  0  0  0  0  0  0  0  0  0  0  0
   -0.6245   -2.2054    1.7428 C   0  0  0  0  0  0  0  0  0  0  0  0
   -1.8878   -2.4652    0.4488 S   0  0  0  0  0  0  0  0  0  0  0  0
   -2.8000   -1.0008    0.0855 C   0  0  0  0  0  0  0  0  0  0  0  0
   -3.9592   -0.7179    0.7719 C   0  0  0  0  0  0  0  0  0  0  0  0
   -4.7237    0.4051    0.5427 C   0  0  0  0  0  0  0  0  0  0  0  0
   -4.2511    1.2708   -0.4512 C   0  0  0  0  0  0  0  0  0  0  0  0
   -3.0925    0.9927   -1.1405 C   0  0  0  0  0  0  0  0  0  0  0  0
   -2.3371   -0.1286   -0.9058 C   0  0  0  0  0  0  0  0  0  0  0  0
   -1.1391   -0.4139   -1.6214 N   0  0  0  0  0  0  0  0  0  0  0  0
    1.5238   -1.7591    0.5231 C   0  0  0  0  0  0  0  0  0  0  0  0
    2.5006   -0.9389    0.0076 C   0  0  0  0  0  0  0  0  0  0  0  0
  1  2  1  0
  2  3  1  0
  3  4  2  0
  3  5  1  0
  5  6  2  0
  6  7  1  0
  7  8  2  0
  8  9  1  0
  9 10  1  0
 10 11  1  0
 11 12  2  0
 12 13  1  0
 13 14  2  0
 14 15  1  0
 15 16  2  0
 16 17  1  0
  8 18  1  0
 18 19  2  0
 19  5  1  0
 16 11  1  0
M  END
>  <zinc_id>  (1) 
ZINC000000112038

>  <smiles>  (1) 
COC(=O)c1ccc(CSc2ccccc2N)cc1

$$$$
