
     RDKit          3D

 31 34  0  0  0  0  0  0  0  0999 V2000
    6.4523   -2.8821    0.3604 C   0  0  0  0  0  0  0  0  0  0  0  0
    6.9177   -1.4776    0.6868 C   0  0  0  0  0  0  0  0  0  0  0  0
    6.3766   -0.5080   -0.1600 O   0  0  0  0  0  0  0  0  0  0  0  0
    5.0080   -0.3259   -0.2406 C   0  0  0  0  0  0  0  0  0  0  0  0
    4.1908   -1.1179    0.5283 C   0  0  0  0  0  0  0  0  0  0  0  0
    2.8297   -0.9649    0.4734 C   0  0  0  0  0  0  0  0  0  0  0  0
    2.2559   -0.0239   -0.3449 C   0  0  0  0  0  0  0  0  0  0  0  0
    0.8463    0.1047   -0.3822 N   0  0  0  0  0  0  0  0  0  0  0  0
    0.0824    1.2997   -0.5603 C   0  0  0  0  0  0  0  0  0  0  0  0
    0.6649    2.4214   -0.7090 O   0  0  0  0  0  0  0  0  0  0  0  0
   -1.3301    0.9716   -0.5349 C   0  0  0  0  0  0  0  0  0  0  0  0
   -2.3895    1.8799   -0.6813 N   0  0  0  0  0  0  0  0  0  0  0  0
   -2.4007    3.1437   -0.0884 C   0  0  0  0  0  0  0  0  0  0  0  0
   -1.3739    3.6162    0.6791 C   0  0  0  0  0  0  0  0  0  0  0  0
   -1.4135    4.8584    1.2404 C   0  0  0  0  0  0  0  0  0  0  0  0
   -2.5154    5.6942    1.0469 C   0  0  0  0  0  0  0  0  0  0  0  0
   -3.5403    5.2011    0.2708 C   0  0  0  0  0  0  0  0  0  0  0  0
   -3.5220    3.9594   -0.3019 C   0  0  0  0  0  0  0  0  0  0  0  0
   -4.6508    3.4419   -1.1429 C   0  0  0  0  0  0  0  0  0  0  0  0
   -1.4549   -0.3488   -0.3516 C   0  0  0  0  0  0  0  0  0  0  0  0
   -3.0182   -1.1976   -0.2562 S   0  0  0  0  0  0  0  0  0  0  0  0
   -2.7849   -2.9486   -0.0356 C   0  0  0  0  0  0  0  0  0  0  0  0
   -2.6737   -3.7773   -1.1511 C   0  0  0  0  0  0  0  0  0  0  0  0
   -2.4883   -5.1491   -0.9910 C   0  0  0  0  0  0  0  0  0  0  0  0
   -2.4091   -5.7272    0.2448 C   0  0  0  0  0  0  0  0  0  0  0  0
   -2.5185   -4.9114    1.3603 C   0  0  0  0  0  0  0  0  0  0  0  0
   -2.7048   -3.5325    1.2022 C   0  0  0  0  0  0  0  0  0  0  0  0
   -0.1322   -0.9365   -0.2506 C   0  0  0  0  0  0  0  0  0  0  0  0
    0.1356   -2.1498   -0.0770 O   0  0  0  0  0  0  0  0  0  0  0  0
    3.0943    0.7536   -1.1014 C   0  0  0  0  0  0  0  0  0  0  0  0
    4.4661    0.6334   -1.0770 C   0  0  0  0  0  0  0  0  0  0  0  0
  1  2  1  0
  2  3  1  0
  3  4  1  0
  4  5  2  0
  5  6  1  0
  6  7  2  0
  7  8  1  0
  8  9  1  0
  9 10  2  0
  9 11  1  0
 11 12  1  0
 12 13  1  0
 13 14  2  0
 14 15  1  0
 15 16  2  0
 16 17  1  0
 17 18  2  0
 18 19  1  0
 11 20  2  0
 20 21  1  0
 21 22  1  0
 22 23  2  0
 23 24  1  0
 24 25  2  0
 25 26  1  0
 26 27  2  0
 20 28  1  0
 28 29  2  0
  7 30  1  0
 30 31  2  0
 31  4  1  0
 28  8  1  0
 18 13  1  0
 27 22  1  0
M  END
>  <zinc_id>  (1) 
ZINC000001928660

>  <smiles>  (1) 
CCOc1ccc(N2C(=O)C(Nc3ccccc3C)=C(Sc3ccccc3)C2=O)cc1

$$$$
