
     RDKit          3D

 21 23  0  0  0  0  0  0  0  0999 V2000
   -5.8609   -1.0959   -0.9009 C   0  0  0  0  0  0  0  0  0  0  0  0
   -5.0621   -0.0769   -0.3404 O   0  0  0  0  0  0  0  0  0  0  0  0
   -3.6955   -0.1074   -0.4110 C   0  0  0  0  0  0  0  0  0  0  0  0
   -3.0784   -1.1636   -1.0479 C   0  0  0  0  0  0  0  0  0  0  0  0
   -1.6927   -1.2222   -1.1355 C   0  0  0  0  0  0  0  0  0  0  0  0
   -0.9170   -0.2372   -0.5939 C   0  0  0  0  0  0  0  0  0  0  0  0
    0.5391   -0.3278   -0.7029 C   0  0  0  0  0  0  0  0  0  0  0  0
    1.1679   -0.6704   -1.8776 C   0  0  0  0  0  0  0  0  0  0  0  0
    2.5032   -0.7606   -2.0036 N   0  0  0  0  0  0  0  0  0  0  0  0
    3.2567   -0.4963   -0.9034 C   0  0  0  0  0  0  0  0  0  0  0  0
    4.6040   -0.4883   -0.6628 C   0  0  0  0  0  0  0  0  0  0  0  0
    4.8204   -0.1434    0.6527 C   0  0  0  0  0  0  0  0  0  0  0  0
    6.1039   -0.0013    1.3818 C   0  0  0  0  0  0  0  0  0  0  0  0
    3.6001    0.0545    1.1970 N   0  0  0  0  0  0  0  0  0  0  0  0
    2.6701   -0.1588    0.2588 N   0  0  0  0  0  0  0  0  0  0  0  0
    1.3331   -0.0654    0.3968 C   0  0  0  0  0  0  0  0  0  0  0  0
    0.7125    0.2947    1.6375 N   0  0  0  0  0  0  0  0  0  0  0  0
   -1.5416    0.8170    0.0421 C   0  0  0  0  0  0  0  0  0  0  0  0
   -2.9351    0.8960    0.1418 C   0  0  0  0  0  0  0  0  0  0  0  0
   -3.5821    1.9322    0.7682 O   0  0  0  0  0  0  0  0  0  0  0  0
   -2.9455    3.0212    1.3756 C   0  0  0  0  0  0  0  0  0  0  0  0
  1  2  1  0
  2  3  1  0
  3  4  2  0
  4  5  1  0
  5  6  2  0
  6  7  1  0
  7  8  1  0
  8  9  2  0
  9 10  1  0
 10 11  2  0
 11 12  1  0
 12 13  1  0
 12 14  2  0
 14 15  1  0
 15 16  1  0
 16 17  1  0
  6 18  1  0
 18 19  2  0
 19 20  1  0
 20 21  1  0
 19  3  1  0
 16  7  2  0
 15 10  1  0
M  END
>  <zinc_id>  (1) 
ZINC000004488647

>  <smiles>  (1) 
COc1ccc(-c2cnc3cc(C)nn3c2N)cc1OC

$$$$
