
     RDKit          3D

 19 20  0  0  0  0  0  0  0  0999 V2000
   -0.8727    0.6134    0.3551 O   0  0  0  0  0  0  0  0  0  0  0  0
   -0.2482   -0.1876   -0.3324 C   0  0  0  0  0  0  0  0  0  0  0  0
   -0.9328   -1.1039   -1.0413 N   0  0  0  0  0  0  0  0  0  0  0  0
   -2.4544   -1.2950   -1.0838 C   0  0  1  0  0  0  0  0  0  0  0  0
   -2.6113   -1.9432    0.3913 C   0  0  0  0  0  0  0  0  0  0  0  0
   -4.1418   -1.9442    0.5221 C   0  0  0  0  0  0  0  0  0  0  0  0
   -4.9046   -1.3305   -0.5328 C   0  0  0  0  0  0  0  0  0  0  0  0
   -4.5185   -0.1442   -1.2711 C   0  0  0  0  0  0  0  0  0  0  0  0
   -2.9814    0.2802   -0.8092 C   0  0  1  0  0  0  0  0  0  0  0  0
   -3.4153    0.2717    0.7450 C   0  0  0  0  0  0  0  0  0  0  0  0
   -3.8411    1.5556    0.9919 O   0  0  0  0  0  0  0  0  0  0  0  0
    1.1310   -0.1421   -0.3687 O   0  0  0  0  0  0  0  0  0  0  0  0
    1.7936    0.8490    0.3987 C   0  0  0  0  0  0  0  0  0  0  0  0
    3.2450    0.7757    0.3053 C   0  0  0  0  0  0  0  0  0  0  0  0
    3.9477   -0.2044   -0.3858 C   0  0  0  0  0  0  0  0  0  0  0  0
    5.3242   -0.2336   -0.4308 C   0  0  0  0  0  0  0  0  0  0  0  0
    6.0845    0.7300    0.2203 C   0  0  0  0  0  0  0  0  0  0  0  0
    5.3872    1.7273    0.9237 C   0  0  0  0  0  0  0  0  0  0  0  0
    4.0088    1.7257    0.9489 C   0  0  0  0  0  0  0  0  0  0  0  0
  1  2  2  0
  2  3  1  0
  4  3  1  1
  4  5  1  0
  5  6  1  0
  6  7  1  0
  7  8  1  0
  8  9  1  0
  9 10  1  1
 10 11  1  0
  2 12  1  0
 12 13  1  0
 13 14  1  0
 14 15  2  0
 15 16  1  0
 16 17  2  0
 17 18  1  0
 18 19  2  0
  9  4  1  0
 19 14  1  0
M  END
>  <zinc_id>  (1) 
ZINC000002518248

>  <smiles>  (1) 
O=C(N[C@H]1CCCC[C@H]1CO)OCc1ccccc1

$$$$
