
     RDKit          3D

 18 19  0  0  0  0  0  0  0  0999 V2000
   -5.1339    1.7652   -0.5686 O   0  0  0  0  0  0  0  0  0  0  0  0
   -4.6912    0.4535   -0.7307 C   0  0  0  0  0  0  0  0  0  0  0  0
   -3.7922    0.1735    0.6161 C   0  0  2  0  0  0  0  0  0  0  0  0
   -2.7519    1.3711    0.2967 C   0  0  0  0  0  0  0  0  0  0  0  0
   -2.1436    1.1518   -1.0309 C   0  0  0  0  0  0  0  0  0  0  0  0
   -0.9978    0.1445   -0.8492 C   0  0  0  0  0  0  0  0  0  0  0  0
   -1.5704   -0.8257    0.1080 N   0  0  0  0  0  0  0  0  0  0  0  0
   -0.7070   -1.3988    1.0300 C   0  0  0  0  0  0  0  0  0  0  0  0
   -1.2513   -2.4726    2.1160 S   0  0  0  0  0  0  0  0  0  0  0  0
    0.6672   -1.0924    1.0816 N   0  0  0  0  0  0  0  0  0  0  0  0
    1.2064   -0.1495    0.1461 C   0  0  0  0  0  0  0  0  0  0  0  0
    2.6392    0.0980    0.2838 C   0  0  0  0  0  0  0  0  0  0  0  0
    3.5460   -0.6595   -0.4035 C   0  0  0  0  0  0  0  0  0  0  0  0
    4.9206   -0.4763   -0.3173 C   0  0  0  0  0  0  0  0  0  0  0  0
    5.3775    0.5311    0.5132 C   0  0  0  0  0  0  0  0  0  0  0  0
    4.5073    1.3234    1.2280 C   0  0  0  0  0  0  0  0  0  0  0  0
    3.1328    1.0944    1.1031 C   0  0  0  0  0  0  0  0  0  0  0  0
   -2.9577   -1.0318   -0.0641 C   0  0  0  0  0  0  0  0  0  0  0  0
  1  2  1  0
  3  2  1  6
  3  4  1  0
  4  5  1  0
  5  6  1  0
  6  7  1  0
  7  8  1  0
  8  9  2  0
  8 10  1  0
 10 11  1  0
 11 12  1  0
 12 13  2  0
 13 14  1  0
 14 15  2  0
 15 16  1  0
 16 17  2  0
  7 18  1  0
 18  3  1  0
 17 12  1  0
M  END
>  <zinc_id>  (1) 
ZINC000000110431

>  <smiles>  (1) 
OC[C@@H]1CCCN(C(=S)NCc2ccccc2)C1

$$$$
