
     RDKit          3D

 30 32  0  0  0  0  0  0  0  0999 V2000
    6.1881    0.0088    2.2297 C   0  0  0  0  0  0  0  0  0  0  0  0
    6.7606    0.3261    0.8473 C   0  0  0  0  0  0  0  0  0  0  0  0
    7.5920   -0.8941    0.4773 C   0  0  0  0  0  0  0  0  0  0  0  0
    7.6027    1.5740    0.8581 C   0  0  0  0  0  0  0  0  0  0  0  0
    5.5886    0.4351   -0.0553 C   0  0  0  0  0  0  0  0  0  0  0  0
    4.6954   -0.5961   -0.1112 C   0  0  0  0  0  0  0  0  0  0  0  0
    3.5824   -0.5638   -0.9566 C   0  0  0  0  0  0  0  0  0  0  0  0
    3.3995    0.5660   -1.7528 C   0  0  0  0  0  0  0  0  0  0  0  0
    2.2271    0.5877   -2.5565 N   0  0  0  0  0  0  0  0  0  0  0  0
    0.9902    0.2394   -1.9792 C   0  0  0  0  0  0  0  0  0  0  0  0
    0.9515   -0.0856   -0.7664 O   0  0  0  0  0  0  0  0  0  0  0  0
   -0.3108    0.2386   -2.7256 C   0  0  0  0  0  0  0  0  0  0  0  0
   -1.3858    0.2358   -1.7118 O   0  0  0  0  0  0  0  0  0  0  0  0
   -1.3334    1.3231   -0.8907 C   0  0  0  0  0  0  0  0  0  0  0  0
   -0.4167    2.1803   -1.0949 O   0  0  0  0  0  0  0  0  0  0  0  0
   -2.2404    1.5722    0.1914 C   0  0  0  0  0  0  0  0  0  0  0  0
   -2.0220    2.6980    0.9919 C   0  0  0  0  0  0  0  0  0  0  0  0
   -2.7840    3.0211    2.0836 C   0  0  0  0  0  0  0  0  0  0  0  0
   -3.8326    2.2149    2.4405 C   0  0  0  0  0  0  0  0  0  0  0  0
   -4.0478    1.1075    1.6528 C   0  0  0  0  0  0  0  0  0  0  0  0
   -3.2829    0.7687    0.5437 C   0  0  0  0  0  0  0  0  0  0  0  0
   -3.6102   -0.3678   -0.2661 N   0  0  0  0  0  0  0  0  0  0  0  0
   -4.6892   -1.1687    0.2716 C   0  0  0  0  0  0  0  0  0  0  0  0
   -5.8691   -1.4078   -0.3908 C   0  0  0  0  0  0  0  0  0  0  0  0
   -6.8529   -2.2215    0.1834 C   0  0  0  0  0  0  0  0  0  0  0  0
   -6.6244   -2.7960    1.4358 C   0  0  0  0  0  0  0  0  0  0  0  0
   -5.4388   -2.5673    2.1210 C   0  0  0  0  0  0  0  0  0  0  0  0
   -4.4892   -1.7428    1.5051 C   0  0  0  0  0  0  0  0  0  0  0  0
    4.2727    1.6151   -1.7176 C   0  0  0  0  0  0  0  0  0  0  0  0
    5.3792    1.5448   -0.8575 C   0  0  0  0  0  0  0  0  0  0  0  0
  1  2  1  0
  2  3  1  0
  2  4  1  0
  2  5  1  0
  5  6  2  0
  6  7  1  0
  7  8  2  0
  8  9  1  0
  9 10  1  0
 10 11  2  0
 10 12  1  0
 12 13  1  0
 13 14  1  0
 14 15  2  0
 14 16  1  0
 16 17  2  0
 17 18  1  0
 18 19  2  0
 19 20  1  0
 20 21  2  0
 21 22  1  0
 22 23  1  0
 23 24  2  0
 24 25  1  0
 25 26  2  0
 26 27  1  0
 27 28  2  0
  8 29  1  0
 29 30  2  0
 30  5  1  0
 21 16  1  0
 28 23  1  0
M  END
>  <zinc_id>  (1) 
ZINC000003276105

>  <smiles>  (1) 
CC(C)(C)c1ccc(NC(=O)COC(=O)c2ccccc2Nc2ccccc2)cc1

$$$$
