
     RDKit          3D

 33 36  0  0  0  0  0  0  0  0999 V2000
   -4.2299   -3.6595   -0.8355 C   0  0  0  0  0  0  0  0  0  0  0  0
   -2.8165   -3.9914   -0.4569 C   0  0  0  0  0  0  0  0  0  0  0  0
   -2.4669   -5.3104   -0.2307 C   0  0  0  0  0  0  0  0  0  0  0  0
   -1.1749   -5.6467    0.1175 C   0  0  0  0  0  0  0  0  0  0  0  0
   -0.2618   -4.6211    0.2278 C   0  0  0  0  0  0  0  0  0  0  0  0
   -0.6108   -3.2916    0.0004 C   0  0  0  0  0  0  0  0  0  0  0  0
   -1.8962   -2.9492   -0.3466 C   0  0  0  0  0  0  0  0  0  0  0  0
   -2.3354   -1.6246   -0.5976 N   0  0  0  0  0  0  0  0  0  0  0  0
   -1.4470   -0.5047   -0.4977 C   0  0  0  0  0  0  0  0  0  0  0  0
   -1.8678    0.7488   -0.7376 N   0  0  0  0  0  0  0  0  0  0  0  0
   -1.0862    1.8405   -0.6588 C   0  0  0  0  0  0  0  0  0  0  0  0
   -1.5672    3.1495   -0.9177 N   0  0  0  0  0  0  0  0  0  0  0  0
   -0.9591    3.9150   -1.9761 C   0  0  0  0  0  0  0  0  0  0  0  0
   -2.6243    3.7369   -0.1746 C   0  0  0  0  0  0  0  0  0  0  0  0
   -2.3513    4.4530    0.9553 C   0  0  0  0  0  0  0  0  0  0  0  0
   -3.3223    5.0520    1.7286 C   0  0  0  0  0  0  0  0  0  0  0  0
   -4.6290    4.8999    1.3092 C   0  0  0  0  0  0  0  0  0  0  0  0
   -4.9391    4.1881    0.1804 C   0  0  0  0  0  0  0  0  0  0  0  0
   -3.9341    3.5924   -0.5829 C   0  0  0  0  0  0  0  0  0  0  0  0
    0.2403    1.6843   -0.3095 C   0  0  0  0  0  0  0  0  0  0  0  0
    1.0753    2.7863   -0.2179 C   0  0  0  0  0  0  0  0  0  0  0  0
    2.3938    2.5744    0.1354 C   0  0  0  0  0  0  0  0  0  0  0  0
    2.8323    1.2801    0.3841 C   0  0  0  0  0  0  0  0  0  0  0  0
    2.0023    0.2005    0.2916 C   0  0  0  0  0  0  0  0  0  0  0  0
    2.4199   -1.1224    0.5388 O   0  0  0  0  0  0  0  0  0  0  0  0
    3.7879   -1.2819    0.8997 C   0  0  0  0  0  0  0  0  0  0  0  0
    4.6502   -0.7524   -0.2330 C   0  0  0  0  0  0  0  0  0  0  0  0
    6.1126   -0.9063    0.1170 C   0  0  0  0  0  0  0  0  0  0  0  0
    6.5008   -2.2791    0.3481 N   0  0  0  0  0  0  0  0  0  0  0  0
    6.4389   -3.0323   -0.8938 C   0  0  0  0  0  0  0  0  0  0  0  0
    5.5413   -2.8529    1.2733 C   0  0  0  0  0  0  0  0  0  0  0  0
    0.6772    0.3918   -0.0615 C   0  0  0  0  0  0  0  0  0  0  0  0
   -0.1528   -0.6669   -0.1560 N   0  0  0  0  0  0  0  0  0  0  0  0
  1  2  1  0
  2  3  2  0
  3  4  1  0
  4  5  2  0
  5  6  1  0
  6  7  2  0
  7  8  1  0
  8  9  1  0
  9 10  2  0
 10 11  1  0
 11 12  1  0
 12 13  1  0
 12 14  1  0
 14 15  2  0
 15 16  1  0
 16 17  2  0
 17 18  1  0
 18 19  2  0
 11 20  2  0
 20 21  1  0
 21 22  2  0
 22 23  1  0
 23 24  2  0
 24 25  1  0
 25 26  1  0
 26 27  1  0
 27 28  1  0
 28 29  1  0
 29 30  1  0
 29 31  1  0
 24 32  1  0
 32 33  2  0
  7  2  1  0
 33  9  1  0
 19 14  1  0
 32 20  1  0
M  END
>  <zinc_id>  (1) 
ZINC000001905559

>  <smiles>  (1) 
Cc1ccccc1Nc1nc(N(C)c2ccccc2)c2cccc(OCCCN(C)C)c2n1

$$$$
