
     RDKit          3D

 19 20  0  0  0  0  0  0  0  0999 V2000
    6.1552    0.4915    1.6806 N   0  0  0  0  0  0  0  0  0  0  0  0
    4.8464    0.2282    1.2207 C   0  0  0  0  0  0  0  0  0  0  0  0
    4.3711    0.8728    0.1000 C   0  0  0  0  0  0  0  0  0  0  0  0
    3.0813    0.6235   -0.3664 C   0  0  0  0  0  0  0  0  0  0  0  0
    2.2585   -0.2664    0.2778 C   0  0  0  0  0  0  0  0  0  0  0  0
    0.9025   -0.5286   -0.2123 C   0  0  0  0  0  0  0  0  0  0  0  0
    0.1685   -1.3388    0.3830 O   0  0  0  0  0  0  0  0  0  0  0  0
    0.4060    0.1229   -1.3545 N   0  0  0  0  0  0  0  0  0  0  0  0
   -0.8461   -0.0468   -1.9003 N   0  0  0  0  0  0  0  0  0  0  0  0
   -1.9626    0.1338   -1.3211 C   0  0  0  0  0  0  0  0  0  0  0  0
   -3.0887   -0.1620   -2.2718 C   0  0  0  0  0  0  0  0  0  0  0  0
   -4.4191    0.2492   -1.6975 C   0  0  0  0  0  0  0  0  0  0  0  0
   -4.7593   -0.7293   -0.5966 C   0  0  0  0  0  0  0  0  0  0  0  0
   -5.2205    0.0890    0.5975 C   0  0  0  0  0  0  0  0  0  0  0  0
   -4.0152    0.8561    1.1408 C   0  0  0  0  0  0  0  0  0  0  0  0
   -2.8192   -0.0511    1.0048 C   0  0  0  0  0  0  0  0  0  0  0  0
   -1.8065    0.5672    0.0704 C   0  0  0  0  0  0  0  0  0  0  0  0
    2.7364   -0.9079    1.3960 C   0  0  0  0  0  0  0  0  0  0  0  0
    4.0112   -0.6553    1.8489 C   0  0  0  0  0  0  0  0  0  0  0  0
  1  2  1  0
  2  3  2  0
  3  4  1  0
  4  5  2  0
  5  6  1  0
  6  7  2  0
  6  8  1  0
  8  9  1  0
  9 10  2  3
 10 11  1  0
 11 12  1  0
 12 13  1  0
 13 14  1  0
 14 15  1  0
 15 16  1  0
 16 17  1  0
  5 18  1  0
 18 19  2  0
 19  2  1  0
 17 10  1  0
M  END
>  <zinc_id>  (1) 
ZINC000000045734

>  <smiles>  (1) 
Nc1ccc(C(=O)NN=C2CCCCCCC2)cc1

$$$$
