
     RDKit          3D

 29 31  0  0  0  0  0  0  0  0999 V2000
   -7.7308    2.0622   -1.7532 C   0  0  0  0  0  0  0  0  0  0  0  0
   -6.6724    1.2897   -1.0490 C   0  0  0  0  0  0  0  0  0  0  0  0
   -6.6122    1.2802    0.3288 C   0  0  0  0  0  0  0  0  0  0  0  0
   -5.6424    0.5732    1.0073 C   0  0  0  0  0  0  0  0  0  0  0  0
   -4.6762   -0.1661    0.3180 C   0  0  0  0  0  0  0  0  0  0  0  0
   -3.6865   -0.9386    1.0624 C   0  0  0  0  0  0  0  0  0  0  0  0
   -4.1208   -1.9019    1.9851 C   0  0  0  0  0  0  0  0  0  0  0  0
   -3.2660   -2.6972    2.7009 C   0  0  0  0  0  0  0  0  0  0  0  0
   -1.9042   -2.5817    2.5405 C   0  0  0  0  0  0  0  0  0  0  0  0
   -1.4568   -1.6448    1.6432 C   0  0  0  0  0  0  0  0  0  0  0  0
   -2.3284   -0.8234    0.9046 C   0  0  0  0  0  0  0  0  0  0  0  0
   -1.7477    0.1617    0.0150 C   0  0  0  0  0  0  0  0  0  0  0  0
   -2.4188    0.9758   -0.6416 O   0  0  0  0  0  0  0  0  0  0  0  0
   -0.3712    0.2199   -0.1294 O   0  0  0  0  0  0  0  0  0  0  0  0
    0.1927    1.1754   -0.9924 C   0  0  0  0  0  0  0  0  0  0  0  0
    1.6653    1.0303   -0.9680 C   0  0  0  0  0  0  0  0  0  0  0  0
    2.3263    1.8243   -1.6983 O   0  0  0  0  0  0  0  0  0  0  0  0
    2.3513    0.0655   -0.1825 N   0  0  0  0  0  0  0  0  0  0  0  0
    3.7819   -0.0189   -0.2076 C   0  0  0  0  0  0  0  0  0  0  0  0
    4.4663   -0.9470    0.5464 C   0  0  0  0  0  0  0  0  0  0  0  0
    5.8439   -1.0208    0.5158 C   0  0  0  0  0  0  0  0  0  0  0  0
    6.6033   -0.1708   -0.2695 C   0  0  0  0  0  0  0  0  0  0  0  0
    8.0891   -0.2523   -0.3009 C   0  0  0  0  0  0  0  0  0  0  0  0
    8.6187   -0.5702    1.1036 C   0  0  0  0  0  0  0  0  0  0  0  0
    8.7066    1.0784   -0.6865 C   0  0  0  0  0  0  0  0  0  0  0  0
    5.9156    0.7580   -1.0238 C   0  0  0  0  0  0  0  0  0  0  0  0
    4.5379    0.8284   -0.9903 C   0  0  0  0  0  0  0  0  0  0  0  0
   -4.7446   -0.1501   -1.0517 C   0  0  0  0  0  0  0  0  0  0  0  0
   -5.7198    0.5608   -1.7300 C   0  0  0  0  0  0  0  0  0  0  0  0
  1  2  1  0
  2  3  2  0
  3  4  1  0
  4  5  2  0
  5  6  1  0
  6  7  2  0
  7  8  1  0
  8  9  2  0
  9 10  1  0
 10 11  2  0
 11 12  1  0
 12 13  2  0
 12 14  1  0
 14 15  1  0
 15 16  1  0
 16 17  2  0
 16 18  1  0
 18 19  1  0
 19 20  2  0
 20 21  1  0
 21 22  2  0
 22 23  1  0
 23 24  1  0
 23 25  1  0
 22 26  1  0
 26 27  2  0
  5 28  1  0
 28 29  2  0
 29  2  1  0
 11  6  1  0
 27 19  1  0
M  END
>  <zinc_id>  (1) 
ZINC000003219376

>  <smiles>  (1) 
Cc1ccc(-c2ccccc2C(=O)OCC(=O)Nc2ccc(C(C)C)cc2)cc1

$$$$
