
     RDKit          3D

 31 34  0  0  0  0  0  0  0  0999 V2000
   -8.3773   -1.2999    1.1446 C   0  0  0  0  0  0  0  0  0  0  0  0
   -7.1170   -1.9031    1.3631 O   0  0  0  0  0  0  0  0  0  0  0  0
   -5.9256   -1.2296    1.0377 C   0  0  0  0  0  0  0  0  0  0  0  0
   -5.9452    0.0385    0.4959 C   0  0  0  0  0  0  0  0  0  0  0  0
   -4.7550    0.6901    0.1798 C   0  0  0  0  0  0  0  0  0  0  0  0
   -3.5287    0.1016    0.3931 C   0  0  0  0  0  0  0  0  0  0  0  0
   -2.2817    0.7912    0.0590 C   0  0  0  0  0  0  0  0  0  0  0  0
   -1.0602    0.1895    0.2781 C   0  0  0  0  0  0  0  0  0  0  0  0
    0.1196    0.8586   -0.0451 C   0  0  0  0  0  0  0  0  0  0  0  0
    1.4232    0.2322    0.1820 C   0  0  0  0  0  0  0  0  0  0  0  0
    1.4616   -0.9276    0.6770 O   0  0  0  0  0  0  0  0  0  0  0  0
    2.6267    0.9088   -0.1451 N   0  0  0  0  0  0  0  0  0  0  0  0
    3.9254    0.3038    0.0730 C   0  0  0  0  0  0  0  0  0  0  0  0
    4.0590   -0.9886   -0.7187 C   0  0  0  0  0  0  0  0  0  0  0  0
    5.4035   -1.5554   -0.4536 C   0  0  0  0  0  0  0  0  0  0  0  0
    6.4297   -1.1677   -1.2917 C   0  0  0  0  0  0  0  0  0  0  0  0
    7.7120   -1.6450   -1.1190 C   0  0  0  0  0  0  0  0  0  0  0  0
    7.9322   -2.5241   -0.0785 C   0  0  0  0  0  0  0  0  0  0  0  0
    6.9241   -2.9247    0.7697 C   0  0  0  0  0  0  0  0  0  0  0  0
    5.6469   -2.4373    0.5827 C   0  0  0  0  0  0  0  0  0  0  0  0
    0.0922    2.1282   -0.5874 C   0  0  0  0  0  0  0  0  0  0  0  0
    1.2755    2.7615   -0.8954 C   0  0  0  0  0  0  0  0  0  0  0  0
    1.1907    4.0297   -1.4352 C   0  0  0  0  0  0  0  0  0  0  0  0
   -0.0288    4.6345   -1.6557 C   0  0  0  0  0  0  0  0  0  0  0  0
   -1.1947    3.9734   -1.3364 C   0  0  0  0  0  0  0  0  0  0  0  0
   -1.1419    2.7025   -0.7944 C   0  0  0  0  0  0  0  0  0  0  0  0
   -2.2746    2.0259   -0.4694 N   0  0  0  0  0  0  0  0  0  0  0  0
   -3.5069   -1.1643    0.9339 C   0  0  0  0  0  0  0  0  0  0  0  0
   -2.2673   -1.7425    1.1424 O   0  0  0  0  0  0  0  0  0  0  0  0
   -2.1170   -3.0384    1.6920 C   0  0  0  0  0  0  0  0  0  0  0  0
   -4.7000   -1.8215    1.2525 C   0  0  0  0  0  0  0  0  0  0  0  0
  1  2  1  0
  2  3  1  0
  3  4  2  0
  4  5  1  0
  5  6  2  0
  6  7  1  0
  7  8  2  0
  8  9  1  0
  9 10  1  0
 10 11  2  0
 10 12  1  0
 12 13  1  0
 13 14  1  0
 14 15  1  0
 15 16  2  0
 16 17  1  0
 17 18  2  0
 18 19  1  0
 19 20  2  0
  9 21  2  0
 21 22  1  0
 22 23  2  0
 23 24  1  0
 24 25  2  0
 25 26  1  0
 26 27  2  0
  6 28  1  0
 28 29  1  0
 29 30  1  0
 28 31  2  0
 31  3  1  0
 27  7  1  0
 20 15  1  0
 26 21  1  0
M  END
>  <zinc_id>  (1) 
ZINC000002741361

>  <smiles>  (1) 
COc1ccc(-c2cc(C(=O)NCCc3ccccc3)c3ccccc3n2)c(OC)c1

$$$$
