
     RDKit          3D

 21 23  0  0  0  0  0  0  0  0999 V2000
    5.8990   -0.4926    1.1607 N   0  0  0  0  0  0  0  0  0  0  0  0
    4.4783   -0.2573    1.0869 C   0  0  0  0  0  0  0  0  0  0  0  0
    3.6073   -1.3301    0.9738 C   0  0  0  0  0  0  0  0  0  0  0  0
    2.2863   -1.1109    0.8388 C   0  0  0  0  0  0  0  0  0  0  0  0
    1.7989    0.2175    0.8192 C   0  0  0  0  0  0  0  0  0  0  0  0
    0.4509    0.4001    0.7043 O   0  0  0  0  0  0  0  0  0  0  0  0
   -0.0574    0.4043   -0.6448 C   0  0  0  0  0  0  0  0  0  0  0  0
    0.7845    0.3529   -1.6809 C   0  0  0  0  0  0  0  0  0  0  0  0
    0.2081    0.3773   -2.9296 C   0  0  0  0  0  0  0  0  0  0  0  0
   -1.1720    0.4384   -3.1330 C   0  0  0  0  0  0  0  0  0  0  0  0
   -1.8690    0.3716   -4.7352 Cl  0  0  0  0  0  0  0  0  0  0  0  0
   -2.0006    0.4929   -1.9949 C   0  0  0  0  0  0  0  0  0  0  0  0
   -1.4665    0.4732   -0.7461 C   0  0  0  0  0  0  0  0  0  0  0  0
   -2.1104    0.2755    0.5522 C   0  0  0  0  0  0  0  0  0  0  0  0
   -3.0311    1.4535    0.9554 C   0  0  0  0  0  0  0  0  0  0  0  0
   -3.0849    1.2099    2.5197 C   0  0  0  0  0  0  0  0  0  0  0  0
   -3.8728   -0.1150    2.6275 C   0  0  0  0  0  0  0  0  0  0  0  0
   -4.3501   -0.5011    1.2305 C   0  0  0  0  0  0  0  0  0  0  0  0
   -3.1301   -0.9395    0.3978 C   0  0  0  0  0  0  0  0  0  0  0  0
    2.6465    1.2300    0.9290 N   0  0  0  0  0  0  0  0  0  0  0  0
    3.9849    1.0323    1.0684 C   0  0  0  0  0  0  0  0  0  0  0  0
  1  2  1  0
  2  3  2  0
  3  4  1  0
  4  5  2  0
  5  6  1  0
  6  7  1  0
  7  8  2  0
  8  9  1  0
  9 10  2  0
 10 11  1  0
 10 12  1  0
 12 13  2  0
 13 14  1  0
 14 15  1  0
 15 16  1  0
 16 17  1  0
 17 18  1  0
 18 19  1  0
  5 20  1  0
 20 21  2  0
 21  2  1  0
 13  7  1  0
 19 14  1  0
M  END
>  <zinc_id>  (1) 
ZINC000000092695

>  <smiles>  (1) 
Nc1ccc(Oc2ccc(Cl)cc2C2CCCCC2)nc1

$$$$
