
     RDKit          3D

 30 33  0  0  0  0  0  0  0  0999 V2000
   -1.9557   -0.2048   -2.4118 C   0  0  0  0  0  0  0  0  0  0  0  0
   -2.8846    1.1823   -2.4464 C   0  0  2  0  0  0  0  0  0  0  0  0
   -2.8866    1.4816   -0.8859 N   0  0  0  0  0  0  0  0  0  0  0  0
   -1.7816    1.1805   -0.1430 C   0  0  0  0  0  0  0  0  0  0  0  0
   -0.8148    0.6763   -0.7604 O   0  0  0  0  0  0  0  0  0  0  0  0
   -1.7568    1.4446    1.3008 C   0  0  0  0  0  0  0  0  0  0  0  0
   -2.8911    2.0032    1.8496 C   0  0  0  0  0  0  0  0  0  0  0  0
   -2.8990    2.2623    3.1977 C   0  0  0  0  0  0  0  0  0  0  0  0
   -1.7900    1.9605    3.9476 C   0  0  0  0  0  0  0  0  0  0  0  0
   -0.6719    1.4069    3.3910 C   0  0  0  0  0  0  0  0  0  0  0  0
   -0.6484    1.1436    2.0539 C   0  0  0  0  0  0  0  0  0  0  0  0
    0.5015    0.5588    1.4054 N   0  0  0  0  0  0  0  0  0  0  0  0
    1.6710    0.2281    2.1228 C   0  0  0  0  0  0  0  0  0  0  0  0
    1.6891    0.4583    3.3564 O   0  0  0  0  0  0  0  0  0  0  0  0
    2.8615   -0.3729    1.4776 C   0  0  0  0  0  0  0  0  0  0  0  0
    3.0248   -0.6929    0.1614 C   0  0  0  0  0  0  0  0  0  0  0  0
    4.1857   -1.2310   -0.2179 C   0  0  0  0  0  0  0  0  0  0  0  0
    5.1308   -1.4198    0.7617 C   0  0  0  0  0  0  0  0  0  0  0  0
    4.3503   -0.8365    2.1624 S   0  0  0  0  0  0  0  0  0  0  0  0
    6.5268   -1.9952    0.6764 C   0  0  0  0  0  0  0  0  0  0  0  0
    6.7146   -2.5268   -0.7258 C   0  0  0  0  0  0  0  0  0  0  0  0
    6.9536   -1.3833   -1.6897 C   0  0  0  0  0  0  0  0  0  0  0  0
    5.6311   -0.8383   -2.2137 C   0  0  0  0  0  0  0  0  0  0  0  0
    4.4574   -1.6196   -1.6673 C   0  0  0  0  0  0  0  0  0  0  0  0
   -4.2935    0.3732   -2.4234 C   0  0  0  0  0  0  0  0  0  0  0  0
   -5.1729    0.7132   -3.4227 C   0  0  0  0  0  0  0  0  0  0  0  0
   -6.3868    0.0439   -3.4364 C   0  0  0  0  0  0  0  0  0  0  0  0
   -6.6563   -0.9174   -2.4649 C   0  0  0  0  0  0  0  0  0  0  0  0
   -5.7188   -1.2054   -1.4894 C   0  0  0  0  0  0  0  0  0  0  0  0
   -4.4894   -0.5355   -1.4657 C   0  0  0  0  0  0  0  0  0  0  0  0
  2  1  1  1
  2  3  1  0
  3  4  1  0
  4  5  2  0
  4  6  1  0
  6  7  2  0
  7  8  1  0
  8  9  2  0
  9 10  1  0
 10 11  2  0
 11 12  1  0
 12 13  1  0
 13 14  2  0
 13 15  1  0
 15 16  2  0
 16 17  1  0
 17 18  2  0
 18 19  1  0
 18 20  1  0
 20 21  1  0
 21 22  1  0
 22 23  1  0
 23 24  1  0
  2 25  1  0
 25 26  2  0
 26 27  1  0
 27 28  2  0
 28 29  1  0
 29 30  2  0
 11  6  1  0
 19 15  1  0
 30 25  1  0
 24 17  1  0
M  END
>  <zinc_id>  (1) 
ZINC000003372386

>  <smiles>  (1) 
C[C@H](NC(=O)c1ccccc1NC(=O)c1cc2c(s1)CCCCC2)c1ccccc1

$$$$
