
     RDKit          3D

 29 31  0  0  0  0  0  0  0  0999 V2000
    7.7721    2.3780   -1.4682 C   0  0  0  0  0  0  0  0  0  0  0  0
    8.0835    1.5042   -0.2548 C   0  0  0  0  0  0  0  0  0  0  0  0
    6.7952    0.7943    0.1087 C   0  0  0  0  0  0  0  0  0  0  0  0
    5.7683    1.8574    0.4293 C   0  0  0  0  0  0  0  0  0  0  0  0
    4.4920    1.2910    0.7920 N   0  0  0  0  0  0  0  0  0  0  0  0
    3.7342    0.4549   -0.0796 C   0  0  0  0  0  0  0  0  0  0  0  0
    4.2327    0.2226   -1.2076 O   0  0  0  0  0  0  0  0  0  0  0  0
    2.4491   -0.1086    0.3004 C   0  0  0  0  0  0  0  0  0  0  0  0
    1.6967   -0.9182   -0.5202 C   0  0  0  0  0  0  0  0  0  0  0  0
    0.5437   -1.2740    0.1463 C   0  0  0  0  0  0  0  0  0  0  0  0
    0.6464   -0.6424    1.3914 C   0  0  0  0  0  0  0  0  0  0  0  0
   -0.3826   -0.7588    2.4295 C   0  0  0  0  0  0  0  0  0  0  0  0
   -1.7097   -0.6922    1.9789 N   0  0  0  0  0  0  0  0  0  0  0  0
   -2.1172    0.5342    1.4424 C   0  0  0  0  0  0  0  0  0  0  0  0
   -1.4779    1.0558    0.2347 C   0  0  0  0  0  0  0  0  0  0  0  0
   -0.4437    1.9663    0.2436 C   0  0  0  0  0  0  0  0  0  0  0  0
    0.0911    2.4215   -0.9365 C   0  0  0  0  0  0  0  0  0  0  0  0
   -0.4249    1.9514   -2.1361 C   0  0  0  0  0  0  0  0  0  0  0  0
   -1.4569    1.0424   -2.1781 C   0  0  0  0  0  0  0  0  0  0  0  0
   -1.9798    0.5978   -0.9871 C   0  0  0  0  0  0  0  0  0  0  0  0
   -2.0309   -1.7956    1.1025 C   0  0  0  0  0  0  0  0  0  0  0  0
   -3.4389   -1.7335    0.6381 C   0  0  0  0  0  0  0  0  0  0  0  0
   -3.9034   -2.6667   -0.2503 C   0  0  0  0  0  0  0  0  0  0  0  0
   -5.2164   -2.6583   -0.7188 C   0  0  0  0  0  0  0  0  0  0  0  0
   -6.0776   -1.6889   -0.2820 C   0  0  0  0  0  0  0  0  0  0  0  0
   -7.4998   -1.6558   -0.7708 C   0  0  0  0  0  0  0  0  0  0  0  0
   -5.6249   -0.7424    0.6124 C   0  0  0  0  0  0  0  0  0  0  0  0
   -4.3051   -0.7623    1.0744 C   0  0  0  0  0  0  0  0  0  0  0  0
    1.7847    0.0258    1.4225 O   0  0  0  0  0  0  0  0  0  0  0  0
  1  2  1  0
  2  3  1  0
  3  4  1  0
  4  5  1  0
  5  6  1  0
  6  7  2  0
  6  8  1  0
  8  9  2  0
  9 10  1  0
 10 11  2  0
 11 12  1  0
 12 13  1  0
 13 14  1  0
 14 15  1  0
 15 16  2  0
 16 17  1  0
 17 18  2  0
 18 19  1  0
 19 20  2  0
 13 21  1  0
 21 22  1  0
 22 23  2  0
 23 24  1  0
 24 25  2  0
 25 26  1  0
 25 27  1  0
 27 28  2  0
 11 29  1  0
 29  8  1  0
 20 15  1  0
 28 22  1  0
M  END
>  <zinc_id>  (1) 
ZINC000004457331

>  <smiles>  (1) 
CCCCNC(=O)c1ccc(CN(Cc2ccccc2)Cc2ccc(C)cc2)o1

$$$$
