
     RDKit          3D

 19 21  0  0  0  0  0  0  0  0999 V2000
    4.9874    1.8185   -0.8046 C   0  0  0  0  0  0  0  0  0  0  0  0
    5.0912    0.4571   -0.1992 C   0  0  0  0  0  0  0  0  0  0  0  0
    5.8050    0.4465    1.1349 C   0  0  0  0  0  0  0  0  0  0  0  0
    3.7620   -0.1982   -0.1158 C   0  0  0  0  0  0  0  0  0  0  0  0
    2.6640    0.6250   -0.1566 C   0  0  0  0  0  0  0  0  0  0  0  0
    1.3965    0.0530   -0.0813 C   0  0  0  0  0  0  0  0  0  0  0  0
    1.2128   -1.2998    0.0316 C   0  0  0  0  0  0  0  0  0  0  0  0
   -0.0965   -1.8261    0.1042 N   0  0  0  0  0  0  0  0  0  0  0  0
   -1.2406   -0.9411    0.0595 C   0  0  0  0  0  0  0  0  0  0  0  0
   -2.5208   -1.2341    0.1126 N   0  0  0  0  0  0  0  0  0  0  0  0
   -3.4080   -0.2885    0.0571 C   0  0  0  0  0  0  0  0  0  0  0  0
   -4.8139   -0.4368    0.1015 C   0  0  0  0  0  0  0  0  0  0  0  0
   -5.5884    0.6671    0.0307 C   0  0  0  0  0  0  0  0  0  0  0  0
   -5.1441    1.9672   -0.0840 C   0  0  0  0  0  0  0  0  0  0  0  0
   -3.7891    2.0891   -0.1251 N   0  0  0  0  0  0  0  0  0  0  0  0
   -2.9645    1.0000   -0.0566 C   0  0  0  0  0  0  0  0  0  0  0  0
   -1.2682    0.7705   -0.0774 S   0  0  0  0  0  0  0  0  0  0  0  0
    2.3131   -2.1105    0.0713 C   0  0  0  0  0  0  0  0  0  0  0  0
    3.6022   -1.5588   -0.0028 C   0  0  0  0  0  0  0  0  0  0  0  0
  1  2  1  0
  2  3  1  0
  2  4  1  0
  4  5  2  0
  5  6  1  0
  6  7  2  0
  7  8  1  0
  8  9  1  0
  9 10  2  0
 10 11  1  0
 11 12  2  0
 12 13  1  0
 13 14  2  0
 14 15  1  0
 15 16  2  0
 16 17  1  0
  7 18  1  0
 18 19  2  0
 19  4  1  0
 17  9  1  0
 16 11  1  0
M  END
>  <zinc_id>  (1) 
ZINC000000128817

>  <smiles>  (1) 
CC(C)c1ccc(Nc2nc3cccnc3s2)cc1

$$$$
