
     RDKit          3D

 20 22  0  0  0  0  0  0  0  0999 V2000
    3.8768   -1.1050    0.8612 C   0  0  0  0  0  0  0  0  0  0  0  0
    4.0399   -0.3325   -0.4120 C   0  0  0  0  0  0  0  0  0  0  0  0
    4.4701   -1.1885   -1.5777 C   0  0  0  0  0  0  0  0  0  0  0  0
    2.8760    0.5230   -0.6969 C   0  0  0  0  0  0  0  0  0  0  0  0
    1.5433   -0.3948   -0.8510 C   0  0  1  0  0  0  0  0  0  0  0  0
    1.6170   -0.9964    0.6773 C   0  0  0  0  0  0  0  0  0  0  0  0
    0.4888    0.7291   -0.5077 C   0  0  0  0  0  0  0  0  0  0  0  0
    0.7841    2.0372   -0.5987 C   0  0  0  0  0  0  0  0  0  0  0  0
   -0.1806    2.9918   -0.2891 C   0  0  0  0  0  0  0  0  0  0  0  0
    0.1340    4.3948   -0.3860 N   0  0  0  0  0  0  0  0  0  0  0  0
   -1.3778    2.5777    0.0915 N   0  0  0  0  0  0  0  0  0  0  0  0
   -1.6732    1.2710    0.1824 C   0  0  0  0  0  0  0  0  0  0  0  0
   -2.8054    0.6748    0.5396 N   0  0  0  0  0  0  0  0  0  0  0  0
   -2.6385   -0.6384    0.4815 C   0  0  0  0  0  0  0  0  0  0  0  0
   -3.4739   -1.6972    0.7414 C   0  0  0  0  0  0  0  0  0  0  0  0
   -2.9966   -2.9833    0.5835 C   0  0  0  0  0  0  0  0  0  0  0  0
   -1.7074   -3.2266    0.1731 C   0  0  0  0  0  0  0  0  0  0  0  0
   -0.9063   -2.1297   -0.0756 C   0  0  0  0  0  0  0  0  0  0  0  0
   -1.3463   -0.8427    0.0705 C   0  0  0  0  0  0  0  0  0  0  0  0
   -0.7238    0.3357   -0.1224 N   0  0  0  0  0  0  0  0  0  0  0  0
  1  2  1  0
  2  3  1  0
  2  4  1  0
  4  5  1  0
  5  6  1  1
  5  7  1  0
  7  8  2  0
  8  9  1  0
  9 10  1  0
  9 11  2  0
 11 12  1  0
 12 13  2  0
 13 14  1  0
 14 15  2  0
 15 16  1  0
 16 17  2  0
 17 18  1  0
 18 19  2  0
 19 20  1  0
 20  7  1  0
 20 12  1  0
 19 14  1  0
M  END
>  <zinc_id>  (1) 
ZINC000000134776

>  <smiles>  (1) 
CC(C)C[C@@H](C)c1cc(N)nc2nc3ccccc3n12

$$$$
