
     RDKit          3D

 20 22  0  0  0  0  0  0  0  0999 V2000
   -2.8180    2.0400   -2.3076 C   0  0  0  0  0  0  0  0  0  0  0  0
   -3.4659    1.0970   -1.3524 C   0  0  0  0  0  0  0  0  0  0  0  0
   -2.5845   -0.0916   -1.0598 C   0  0  0  0  0  0  0  0  0  0  0  0
   -1.3792   -0.3952   -1.5166 N   0  0  0  0  0  0  0  0  0  0  0  0
   -0.7861   -1.4483   -1.1526 N   0  0  0  0  0  4  0  0  0  0  0  0
    0.5431   -1.8442   -1.6548 C   0  0  0  0  0  0  0  0  0  0  0  0
    1.6614   -1.4387   -0.8359 C   0  0  0  0  0  0  0  0  0  0  0  0
    2.8113   -1.9202   -1.1619 O   0  0  0  0  0  0  0  0  0  0  0  0
    1.6539   -0.5546    0.3144 C   0  0  0  0  0  0  0  0  0  0  0  0
    1.9793   -0.9269    1.6246 C   0  0  0  0  0  0  0  0  0  0  0  0
    1.7981    0.1450    2.4065 N   0  0  0  0  0  0  0  0  0  0  0  0
    1.3756    1.1899    1.6800 C   0  0  0  0  0  0  0  0  0  0  0  0
    1.0647    2.5127    2.0180 C   0  0  0  0  0  0  0  0  0  0  0  0
    0.6635    3.3987    1.0403 C   0  0  0  0  0  0  0  0  0  0  0  0
    0.5715    2.9795   -0.2590 C   0  0  0  0  0  0  0  0  0  0  0  0
    0.8746    1.6689   -0.6239 C   0  0  0  0  0  0  0  0  0  0  0  0
    1.2802    0.7747    0.3746 C   0  0  0  0  0  0  0  0  0  0  0  0
   -1.4217   -2.2630   -0.2748 C   0  0  0  0  0  0  0  0  0  0  0  0
   -0.9359   -3.5048    0.2755 N   0  0  0  0  0  0  0  0  0  0  0  0
   -2.8860   -1.4187   -0.0305 S   0  0  0  0  0  0  0  0  0  0  0  0
  1  2  1  0
  2  3  1  0
  3  4  2  0
  4  5  1  0
  5  6  1  0
  6  7  1  0
  7  8  2  0
  7  9  1  0
  9 10  2  0
 10 11  1  0
 11 12  1  0
 12 13  2  0
 13 14  1  0
 14 15  2  0
 15 16  1  0
 16 17  2  0
  5 18  2  0
 18 19  1  0
 18 20  1  0
 20  3  1  0
 17  9  1  0
 17 12  1  0
M  CHG  1   5   1
M  END
>  <zinc_id>  (1) 
ZINC000003300932

>  <smiles>  (1) 
CCc1n[n+](CC(=O)c2c[nH]c3ccccc23)c(N)s1

$$$$
