
     RDKit          3D

 30 32  0  0  0  0  0  0  0  0999 V2000
   -4.1310   -2.0421   -1.5766 C   0  0  0  0  0  0  0  0  0  0  0  0
   -4.7314   -1.3393   -0.3851 C   0  0  0  0  0  0  0  0  0  0  0  0
   -5.7406   -1.8916    0.3453 C   0  0  0  0  0  0  0  0  0  0  0  0
   -6.2941   -1.2327    1.4472 C   0  0  0  0  0  0  0  0  0  0  0  0
   -5.7848    0.0024    1.7779 C   0  0  0  0  0  0  0  0  0  0  0  0
   -4.7782    0.5615    1.0567 C   0  0  0  0  0  0  0  0  0  0  0  0
   -4.2345   -0.0786   -0.0212 C   0  0  0  0  0  0  0  0  0  0  0  0
   -3.1215    0.4534   -0.8144 C   0  0  0  0  0  0  0  0  0  0  0  0
   -2.6075    1.7275   -0.5246 N   0  0  0  0  0  0  0  0  0  0  0  0
   -1.3361    1.8524   -1.2939 C   0  0  0  0  0  0  0  0  0  0  0  0
   -0.4369    0.7693   -0.7967 C   0  0  0  0  0  0  0  0  0  0  0  0
   -0.7820   -0.2980    0.0408 C   0  0  0  0  0  0  0  0  0  0  0  0
    0.4106   -0.9843    0.1829 C   0  0  0  0  0  0  0  0  0  0  0  0
    1.3888   -0.3402   -0.5378 C   0  0  0  0  0  0  0  0  0  0  0  0
    2.8195   -0.6852   -0.6978 C   0  0  0  0  0  0  0  0  0  0  0  0
    3.5651    0.0442   -1.4010 O   0  0  0  0  0  0  0  0  0  0  0  0
    3.4129   -1.7890   -0.1064 N   0  0  0  0  0  0  0  0  0  0  0  0
    4.9158   -2.1095   -0.2955 C   0  0  1  0  0  0  0  0  0  0  0  0
    5.2190   -1.1279   -1.5780 C   0  0  0  0  0  0  0  0  0  0  0  0
    5.4718   -1.0922    0.8310 C   0  0  0  0  0  0  0  0  0  0  0  0
    6.4546   -1.6048    1.6425 C   0  0  0  0  0  0  0  0  0  0  0  0
    6.9616   -0.7621    2.6347 C   0  0  0  0  0  0  0  0  0  0  0  0
    6.4527    0.5095    2.7357 C   0  0  0  0  0  0  0  0  0  0  0  0
    5.4725    0.9830    1.9071 C   0  0  0  0  0  0  0  0  0  0  0  0
    4.9851    0.1402    0.9353 C   0  0  0  0  0  0  0  0  0  0  0  0
    0.8150    0.6957   -1.0966 O   0  0  0  0  0  0  0  0  0  0  0  0
   -3.4153    2.8653   -0.9513 C   0  0  0  0  0  0  0  0  0  0  0  0
   -3.5303    2.8244   -2.4753 C   0  0  0  0  0  0  0  0  0  0  0  0
   -4.7575    2.9024   -0.3352 C   0  0  0  0  0  0  0  0  0  0  0  0
   -2.6632    4.1630   -0.6495 C   0  0  0  0  0  0  0  0  0  0  0  0
  1  2  1  0
  2  3  2  0
  3  4  1  0
  4  5  2  0
  5  6  1  0
  6  7  2  0
  7  8  1  0
  8  9  1  0
  9 10  1  0
 10 11  1  0
 11 12  2  0
 12 13  1  0
 13 14  2  0
 14 15  1  0
 15 16  2  0
 15 17  1  0
 17 18  1  0
 18 19  1  6
 18 20  1  0
 20 21  2  0
 21 22  1  0
 22 23  2  0
 23 24  1  0
 24 25  2  0
 14 26  1  0
  9 27  1  0
 27 28  1  0
 27 29  1  0
 27 30  1  0
  7  2  1  0
 26 11  1  0
 25 20  1  0
M  END
>  <zinc_id>  (1) 
ZINC000004456911

>  <smiles>  (1) 
Cc1ccccc1CN(Cc1ccc(C(=O)N[C@@H](C)c2ccccc2)o1)C(C)(C)C

$$$$
