
     RDKit          3D

 20 21  0  0  0  0  0  0  0  0999 V2000
    6.2101    1.5949   -0.3936 C   0  0  0  0  0  0  0  0  0  0  0  0
    5.1133    1.2400    0.4259 O   0  0  0  0  0  0  0  0  0  0  0  0
    3.9486    0.6733   -0.0765 C   0  0  0  0  0  0  0  0  0  0  0  0
    3.8390    0.4570   -1.3015 O   0  0  0  0  0  0  0  0  0  0  0  0
    2.8436    0.3167    0.7563 N   0  0  0  0  0  0  0  0  0  0  0  0
    1.6499   -0.2704    0.1961 C   0  0  0  0  0  0  0  0  0  0  0  0
    1.3939   -1.6110    0.0137 C   0  0  0  0  0  0  0  0  0  0  0  0
    2.3365   -2.7122    0.3759 C   0  0  0  0  0  0  0  0  0  0  0  0
    0.1704   -1.6894   -0.5337 N   0  0  0  0  0  0  0  0  0  0  0  0
   -0.3598   -0.4926   -0.7078 N   0  0  0  0  0  0  0  0  0  0  0  0
   -1.6597   -0.1513   -1.2677 C   0  0  0  0  0  0  0  0  0  0  0  0
   -2.7064   -0.0859   -0.2318 C   0  0  0  0  0  0  0  0  0  0  0  0
   -2.4050   -0.3317    1.0794 C   0  0  0  0  0  0  0  0  0  0  0  0
   -3.3615   -0.2784    2.0716 C   0  0  0  0  0  0  0  0  0  0  0  0
   -4.6602    0.0341    1.7164 C   0  0  0  0  0  0  0  0  0  0  0  0
   -4.9600    0.2824    0.3857 C   0  0  0  0  0  0  0  0  0  0  0  0
   -3.9947    0.2269   -0.6037 C   0  0  0  0  0  0  0  0  0  0  0  0
   -4.3659    0.5027   -2.0278 C   0  0  0  0  0  0  0  0  0  0  0  0
    0.5391    0.3983   -0.2630 C   0  0  0  0  0  0  0  0  0  0  0  0
    0.4286    1.8967   -0.2353 C   0  0  0  0  0  0  0  0  0  0  0  0
  1  2  1  0
  2  3  1  0
  3  4  2  0
  3  5  1  0
  5  6  1  0
  6  7  1  0
  7  8  1  0
  7  9  2  0
  9 10  1  0
 10 11  1  0
 11 12  1  0
 12 13  2  0
 13 14  1  0
 14 15  2  0
 15 16  1  0
 16 17  2  0
 17 18  1  0
 10 19  1  0
 19 20  1  0
 19  6  2  0
 17 12  1  0
M  END
>  <zinc_id>  (1) 
ZINC000001053687

>  <smiles>  (1) 
COC(=O)Nc1c(C)nn(Cc2ccccc2C)c1C

$$$$
