
     RDKit          3D

 22 25  0  0  0  0  0  0  0  0999 V2000
   -0.1390    1.5212   -0.5714 O   0  0  0  0  0  0  0  0  0  0  0  0
    0.6597    0.6335   -0.0330 C   0  0  0  0  0  0  0  0  0  0  0  0
    0.0410   -0.5372    0.3922 N   0  0  0  0  0  0  0  0  0  0  0  0
   -1.3080   -0.9262    0.3346 C   0  0  0  0  0  0  0  0  0  0  0  0
   -1.8950   -1.0940   -1.0209 C   0  0  0  0  0  0  0  0  0  0  0  0
   -2.4508    0.2377   -1.4668 C   0  0  0  0  0  0  0  0  0  0  0  0
   -3.4377    0.7598   -0.4520 C   0  0  0  0  0  0  0  0  0  0  0  0
   -4.6265   -0.1842   -0.3359 C   0  0  0  0  0  0  0  0  0  0  0  0
   -4.0634   -1.5185    0.1478 C   0  0  0  0  0  0  0  0  0  0  0  0
   -3.0991   -2.0091   -0.8844 C   0  0  0  0  0  0  0  0  0  0  0  0
   -3.3751   -1.3381    1.5110 C   0  0  0  0  0  0  0  0  0  0  0  0
   -2.2003   -0.3859    1.3964 C   0  0  0  0  0  0  0  0  0  0  0  0
   -2.7632    0.9448    0.8860 C   0  0  0  0  0  0  0  0  0  0  0  0
    2.0370    1.0507    0.0259 C   0  0  0  0  0  0  0  0  0  0  0  0
    2.3586    2.4256    0.1296 C   0  0  0  0  0  0  0  0  0  0  0  0
    3.6692    2.8414    0.2423 C   0  0  0  0  0  0  0  0  0  0  0  0
    4.6872    1.9235    0.2539 C   0  0  0  0  0  0  0  0  0  0  0  0
    4.3964    0.5700    0.1510 C   0  0  0  0  0  0  0  0  0  0  0  0
    3.0668    0.1612    0.0378 C   0  0  0  0  0  0  0  0  0  0  0  0
    2.8182   -1.2274   -0.0991 N   0  0  0  0  0  4  0  0  0  0  0  0
    1.9367   -1.7489   -0.7522 O   0  0  0  0  0  0  0  0  0  0  0  0
    3.6873   -2.1000    0.5637 O   0  0  0  0  0  1  0  0  0  0  0  0
  1  2  2  0
  2  3  1  0
  3  4  1  0
  4  5  1  0
  5  6  1  0
  6  7  1  0
  7  8  1  0
  8  9  1  0
  9 10  1  0
  9 11  1  0
 11 12  1  0
 12 13  1  0
  2 14  1  0
 14 15  2  0
 15 16  1  0
 16 17  2  0
 17 18  1  0
 18 19  2  0
 19 20  1  0
 20 21  2  0
 20 22  1  0
 12  4  1  0
 19 14  1  0
 10  5  1  0
 13  7  1  0
M  CHG  2  20   1  22  -1
M  END
>  <zinc_id>  (1) 
ZINC000000569081

>  <smiles>  (1) 
O=C(NC1C2CC3CC(C2)CC1C3)c1ccccc1[N+](=O)[O-]

$$$$
