
     RDKit          3D

 33 37  0  0  0  0  0  0  0  0999 V2000
    6.3473   -3.0142   -0.1890 C   0  0  0  0  0  0  0  0  0  0  0  0
    6.1737   -2.3654    1.0130 C   0  0  0  0  0  0  0  0  0  0  0  0
    5.1091   -1.5186    1.1835 C   0  0  0  0  0  0  0  0  0  0  0  0
    4.2050   -1.3112    0.1577 C   0  0  0  0  0  0  0  0  0  0  0  0
    3.0475   -0.4307    0.3025 C   0  0  0  0  0  0  0  0  0  0  0  0
    1.8810   -0.9380    1.0073 C   0  0  0  0  0  0  0  0  0  0  0  0
    0.7374    0.0310    1.1231 C   0  0  0  0  0  0  0  0  0  0  0  0
   -0.3318   -0.7289    1.8368 N   0  0  0  0  0  0  0  0  0  0  0  0
   -0.6940   -1.7515    0.8217 C   0  0  0  0  0  0  0  0  0  0  0  0
   -1.4370   -1.0381   -0.2635 C   0  0  0  0  0  0  0  0  0  0  0  0
   -2.7117   -0.4473    0.2979 C   0  0  0  0  0  0  0  0  0  0  0  0
   -2.9424   -0.3313    1.6606 C   0  0  0  0  0  0  0  0  0  0  0  0
   -4.1365    0.1906    2.1152 C   0  0  0  0  0  0  0  0  0  0  0  0
   -5.1473    0.6156    1.2962 C   0  0  0  0  0  0  0  0  0  0  0  0
   -4.9171    0.4998   -0.0868 C   0  0  0  0  0  0  0  0  0  0  0  0
   -3.7215   -0.0219   -0.5322 C   0  0  0  0  0  0  0  0  0  0  0  0
   -5.9201    0.9251   -0.9267 O   0  0  0  0  0  0  0  0  0  0  0  0
   -7.0083    1.7235   -0.5774 C   0  0  0  0  0  0  0  0  0  0  0  0
   -7.3036    1.7596    0.8881 C   0  0  0  0  0  0  0  0  0  0  0  0
   -6.3398    1.1386    1.6878 O   0  0  0  0  0  0  0  0  0  0  0  0
   -0.5714    0.1150   -0.7523 C   0  0  0  0  0  0  0  0  0  0  0  0
   -1.2242    0.8486   -1.8901 C   0  0  0  0  0  0  0  0  0  0  0  0
   -2.0481    0.0752   -2.6767 O   0  0  0  0  0  0  0  0  0  0  0  0
   -1.6957   -1.2466   -2.7298 C   0  0  0  0  0  0  0  0  0  0  0  0
   -1.8204   -1.9526   -1.3811 C   0  0  0  0  0  0  0  0  0  0  0  0
    3.4115    0.9634    0.4152 C   0  0  0  0  0  0  0  0  0  0  0  0
    3.5176    1.7178   -0.7481 C   0  0  0  0  0  0  0  0  0  0  0  0
    3.8669    3.0368   -0.7338 C   0  0  0  0  0  0  0  0  0  0  0  0
    4.1336    3.6759    0.4579 C   0  0  0  0  0  0  0  0  0  0  0  0
    4.0333    2.9392    1.6321 C   0  0  0  0  0  0  0  0  0  0  0  0
    3.6799    1.6193    1.6008 C   0  0  0  0  0  0  0  0  0  0  0  0
    4.3820   -1.9650   -1.0465 C   0  0  0  0  0  0  0  0  0  0  0  0
    5.4451   -2.8139   -1.2299 C   0  0  0  0  0  0  0  0  0  0  0  0
  1  2  2  0
  2  3  1  0
  3  4  2  0
  4  5  1  0
  5  6  1  0
  6  7  1  0
  7  8  1  0
  8  9  1  0
  9 10  1  0
 10 11  1  0
 11 12  2  0
 12 13  1  0
 13 14  2  0
 14 15  1  0
 15 16  2  0
 15 17  1  0
 17 18  1  0
 18 19  1  0
 19 20  1  0
 10 21  1  0
 21 22  1  0
 22 23  1  0
 23 24  1  0
 24 25  1  0
  5 26  1  0
 26 27  2  0
 27 28  1  0
 28 29  2  0
 29 30  1  0
 30 31  2  0
  4 32  1  0
 32 33  2  0
 33  1  1  0
 25 10  1  0
 31 26  1  0
 16 11  1  0
 20 14  1  0
M  END
>  <zinc_id>  (1) 
ZINC000002116009

>  <smiles>  (1) 
c1ccc(C(CCNCC2(c3ccc4c(c3)OCCO4)CCOCC2)c2ccccc2)cc1

$$$$
