
     RDKit          3D

 31 34  0  0  0  0  0  0  0  0999 V2000
    5.8061   -3.3192   -0.5700 C   0  0  0  0  0  0  0  0  0  0  0  0
    6.6307   -3.0332    0.6797 C   0  0  0  0  0  0  0  0  0  0  0  0
    6.7840   -1.5421    0.8211 C   0  0  0  0  0  0  0  0  0  0  0  0
    5.4073   -0.9300    0.9451 C   0  0  0  0  0  0  0  0  0  0  0  0
    4.6098   -1.2588   -0.2988 C   0  0  0  0  0  0  0  0  0  0  0  0
    3.2870   -0.6730   -0.1849 N   0  0  0  0  0  0  0  0  0  0  0  0
    2.4019   -1.0187    0.8649 C   0  0  0  0  0  0  0  0  0  0  0  0
    2.7722   -1.8536    1.7182 O   0  0  0  0  0  0  0  0  0  0  0  0
    1.0780   -0.4273    0.9726 C   0  0  0  0  0  0  0  0  0  0  0  0
    0.1315   -0.6803    1.9405 C   0  0  0  0  0  0  0  0  0  0  0  0
    0.3394   -1.5962    3.0081 N   0  0  0  0  0  0  0  0  0  0  0  0
   -0.9677    0.0673    1.6924 N   0  0  0  0  0  0  0  0  0  0  0  0
   -2.1202    0.0100    2.5503 C   0  0  0  0  0  0  0  0  0  0  0  0
   -3.0374   -1.0801    2.0523 C   0  0  0  0  0  0  0  0  0  0  0  0
   -3.4592   -0.7595    0.6730 C   0  0  0  0  0  0  0  0  0  0  0  0
   -2.9063   -1.4018   -0.3986 C   0  0  0  0  0  0  0  0  0  0  0  0
   -3.3348   -1.0669   -1.6744 C   0  0  0  0  0  0  0  0  0  0  0  0
   -4.2993   -0.1087   -1.9030 C   0  0  0  0  0  0  0  0  0  0  0  0
   -4.8494    0.5323   -0.8134 C   0  0  0  0  0  0  0  0  0  0  0  0
   -4.4317    0.2090    0.4717 C   0  0  0  0  0  0  0  0  0  0  0  0
   -4.9518    0.8189    1.5533 F   0  0  0  0  0  0  0  0  0  0  0  0
   -0.7877    0.8182    0.5824 C   0  0  0  0  0  0  0  0  0  0  0  0
   -1.5657    1.7060   -0.0627 N   0  0  0  0  0  0  0  0  0  0  0  0
   -1.1182    2.3225   -1.1721 C   0  0  0  0  0  0  0  0  0  0  0  0
   -1.9325    3.2464   -1.8403 C   0  0  0  0  0  0  0  0  0  0  0  0
   -1.4650    3.8722   -2.9753 C   0  0  0  0  0  0  0  0  0  0  0  0
   -0.1961    3.5655   -3.4223 C   0  0  0  0  0  0  0  0  0  0  0  0
    0.6063    2.6558   -2.7649 C   0  0  0  0  0  0  0  0  0  0  0  0
    0.1507    2.0140   -1.6169 C   0  0  0  0  0  0  0  0  0  0  0  0
    0.9282    1.1244   -0.9689 N   0  0  0  0  0  0  0  0  0  0  0  0
    0.4897    0.5033    0.1408 C   0  0  0  0  0  0  0  0  0  0  0  0
  1  2  1  0
  2  3  1  0
  3  4  1  0
  4  5  1  0
  5  6  1  0
  6  7  1  0
  7  8  2  0
  7  9  1  0
  9 10  2  0
 10 11  1  0
 10 12  1  0
 12 13  1  0
 13 14  1  0
 14 15  1  0
 15 16  2  0
 16 17  1  0
 17 18  2  0
 18 19  1  0
 19 20  2  0
 20 21  1  0
 12 22  1  0
 22 23  2  0
 23 24  1  0
 24 25  2  0
 25 26  1  0
 26 27  2  0
 27 28  1  0
 28 29  2  0
 29 30  1  0
 30 31  2  0
 31  9  1  0
 20 15  1  0
 31 22  1  0
 29 24  1  0
M  END
>  <zinc_id>  (1) 
ZINC000002348957

>  <smiles>  (1) 
CCCCCNC(=O)c1c(N)n(CCc2ccccc2F)c2nc3ccccc3nc12

$$$$
