
     RDKit          3D

 19 20  0  0  0  0  0  0  0  0999 V2000
   -4.4828    0.1828    0.8024 C   0  0  0  0  0  0  0  0  0  0  0  0
   -3.3862   -0.8412    0.7827 C   0  0  0  0  0  0  0  0  0  0  0  0
   -3.7975   -1.9225   -0.2052 C   0  0  0  0  0  0  0  0  0  0  0  0
   -3.1646   -1.4842    2.1409 C   0  0  0  0  0  0  0  0  0  0  0  0
   -2.1273   -0.3048    0.3109 N   0  0  0  0  0  0  0  0  0  0  0  0
   -0.9392   -0.7684    0.6276 N   0  0  0  0  0  0  0  0  0  0  0  0
    0.0155   -0.0407    0.0177 C   0  0  0  0  0  0  0  0  0  0  0  0
    1.4536   -0.1961    0.0823 C   0  0  0  0  0  0  0  0  0  0  0  0
    2.2788   -0.1469   -1.0221 C   0  0  0  0  0  0  0  0  0  0  0  0
    3.6454   -0.3013   -0.9049 C   0  0  0  0  0  0  0  0  0  0  0  0
    4.2415   -0.5128    0.3340 C   0  0  0  0  0  0  0  0  0  0  0  0
    5.9738   -0.7049    0.4524 Cl  0  0  0  0  0  0  0  0  0  0  0  0
    3.4288   -0.5640    1.4444 C   0  0  0  0  0  0  0  0  0  0  0  0
    2.0593   -0.4062    1.3022 C   0  0  0  0  0  0  0  0  0  0  0  0
   -0.6213    0.9481   -0.7335 C   0  0  0  0  0  0  0  0  0  0  0  0
   -0.0373    1.9633   -1.5544 C   0  0  0  0  0  0  0  0  0  0  0  0
    0.4241    2.7866   -2.2316 N   0  0  0  0  0  0  0  0  0  0  0  0
   -1.9711    0.7529   -0.5262 C   0  0  0  0  0  0  0  0  0  0  0  0
   -2.9935    1.5604   -1.1196 N   0  0  0  0  0  0  0  0  0  0  0  0
  1  2  1  0
  2  3  1  0
  2  4  1  0
  2  5  1  0
  5  6  1  0
  6  7  2  0
  7  8  1  0
  8  9  2  0
  9 10  1  0
 10 11  2  0
 11 12  1  0
 11 13  1  0
 13 14  2  0
  7 15  1  0
 15 16  1  0
 16 17  3  0
 15 18  2  0
 18 19  1  0
 18  5  1  0
 14  8  1  0
M  END
>  <zinc_id>  (1) 
ZINC000000128602

>  <smiles>  (1) 
CC(C)(C)n1nc(-c2ccc(Cl)cc2)c(C#N)c1N

$$$$
