
     RDKit          3D

 21 23  0  0  0  0  0  0  0  0999 V2000
    5.3804    0.2936    0.0658 C   0  0  0  0  0  0  0  0  0  0  0  0
    4.3431    0.7694   -0.9283 C   0  0  0  0  0  0  0  0  0  0  0  0
    3.0606    0.8956   -0.3551 O   0  0  0  0  0  0  0  0  0  0  0  0
    2.4826   -0.2617    0.1941 C   0  0  0  0  0  0  0  0  0  0  0  0
    3.1617   -1.4438    0.1578 C   0  0  0  0  0  0  0  0  0  0  0  0
    2.6284   -2.5881    0.6828 C   0  0  0  0  0  0  0  0  0  0  0  0
    1.3623   -2.5312    1.2648 C   0  0  0  0  0  0  0  0  0  0  0  0
    0.6897   -1.3452    1.2972 C   0  0  0  0  0  0  0  0  0  0  0  0
    1.2132   -0.2033    0.7774 C   0  0  0  0  0  0  0  0  0  0  0  0
    0.6078    1.1102    0.7861 C   0  0  0  0  0  0  0  0  0  0  0  0
   -0.6317    1.3674    0.4818 C   0  0  0  0  0  0  0  0  0  0  0  0
   -1.3222    2.6661    0.4686 C   0  0  0  0  0  0  0  0  0  0  0  0
   -0.8390    3.7781    0.7699 O   0  0  0  0  0  0  0  0  0  0  0  0
   -2.6623    2.4672    0.0498 N   0  0  0  0  0  0  0  0  0  0  0  0
   -2.8221    1.0598   -0.2003 C   0  0  0  0  0  0  0  0  0  0  0  0
   -3.9681    0.4245   -0.6311 C   0  0  0  0  0  0  0  0  0  0  0  0
   -3.9193   -0.9247   -0.8183 C   0  0  0  0  0  0  0  0  0  0  0  0
   -2.7382   -1.6187   -0.5757 C   0  0  0  0  0  0  0  0  0  0  0  0
   -2.7870   -3.3480   -0.8485 Cl  0  0  0  0  0  0  0  0  0  0  0  0
   -1.6150   -0.9606   -0.1479 C   0  0  0  0  0  0  0  0  0  0  0  0
   -1.6250    0.3935    0.0516 C   0  0  0  0  0  0  0  0  0  0  0  0
  1  2  1  0
  2  3  1  0
  3  4  1  0
  4  5  2  0
  5  6  1  0
  6  7  2  0
  7  8  1  0
  8  9  2  0
  9 10  1  0
 10 11  2  0
 11 12  1  0
 12 13  2  0
 12 14  1  0
 14 15  1  0
 15 16  2  0
 16 17  1  0
 17 18  2  0
 18 19  1  0
 18 20  1  0
 20 21  2  0
  9  4  1  0
 21 11  1  0
 21 15  1  0
M  END
>  <zinc_id>  (1) 
ZINC000000213463

>  <smiles>  (1) 
CCOc1ccccc1/C=C1/C(=O)Nc2ccc(Cl)cc21

$$$$
