
     RDKit          3D

 21 24  0  0  0  0  0  0  0  0999 V2000
   -0.7115   -2.0201   -1.5277 N   0  0  0  0  0  0  0  0  0  0  0  0
   -0.0925   -1.2802   -0.4853 N   0  0  0  0  0  0  0  0  0  0  0  0
   -0.8265   -1.0367    0.5937 C   0  0  0  0  0  0  0  0  0  0  0  0
   -2.2160   -1.5174    0.6913 C   0  0  0  0  0  0  0  0  0  0  0  0
   -3.1886   -0.5470    0.1695 C   0  0  0  0  0  0  0  0  0  0  0  0
   -3.6171   -0.4972   -1.1410 C   0  0  0  0  0  0  0  0  0  0  0  0
   -4.5476    0.4578   -1.5639 C   0  0  0  0  0  0  0  0  0  0  0  0
   -5.0446    1.3649   -0.6542 C   0  0  0  0  0  0  0  0  0  0  0  0
   -4.6314    1.3351    0.6616 C   0  0  0  0  0  0  0  0  0  0  0  0
   -3.7157    0.3828    1.0422 C   0  0  0  0  0  0  0  0  0  0  0  0
   -0.2306   -0.3364    1.5723 N   0  0  0  0  0  0  0  0  0  0  0  0
    1.0686    0.0954    1.4445 C   0  0  0  0  0  0  0  0  0  0  0  0
    2.1252    0.9843    2.4512 S   0  0  0  0  0  0  0  0  0  0  0  0
    3.4995    1.0247    1.4561 C   0  0  0  0  0  0  0  0  0  0  0  0
    3.1040    0.3388    0.3500 C   0  0  0  0  0  0  0  0  0  0  0  0
    1.8320   -0.1507    0.3373 C   0  0  0  0  0  0  0  0  0  0  0  0
    1.1784   -0.8901   -0.6770 C   0  0  0  0  0  0  0  0  0  0  0  0
    1.7606   -1.1931   -1.7597 O   0  0  0  0  0  0  0  0  0  0  0  0
    4.3166    0.3460   -0.5861 C   0  0  0  0  0  0  0  0  0  0  0  0
    5.0110    1.6319   -0.1944 C   0  0  0  0  0  0  0  0  0  0  0  0
    4.9262    1.5074    1.3328 C   0  0  0  0  0  0  0  0  0  0  0  0
  1  2  1  0
  2  3  1  0
  3  4  1  0
  4  5  1  0
  5  6  2  0
  6  7  1  0
  7  8  2  0
  8  9  1  0
  9 10  2  0
  3 11  2  0
 11 12  1  0
 12 13  1  0
 13 14  1  0
 14 15  2  0
 15 16  1  0
 16 17  1  0
 17 18  2  0
 15 19  1  0
 19 20  1  0
 20 21  1  0
 17  2  1  0
 10  5  1  0
 16 12  2  0
 21 14  1  0
M  END
>  <zinc_id>  (1) 
ZINC000000501945

>  <smiles>  (1) 
Nn1c(Cc2ccccc2)nc2sc3c(c2c1=O)CCC3

$$$$
