
     RDKit          3D

 20 22  0  0  0  0  0  0  0  0999 V2000
   -3.7032   -1.4502    0.9702 C   0  0  0  0  0  0  0  0  0  0  0  0
   -3.0619   -0.1811    0.5001 C   0  0  1  0  0  0  0  0  0  0  0  0
   -2.8568    0.7490    1.6689 C   0  0  0  0  0  0  0  0  0  0  0  0
   -1.3742    0.9079    1.8321 C   0  0  0  0  0  0  0  0  0  0  0  0
   -0.8129   -0.3070    1.1534 C   0  0  2  0  0  0  0  0  0  0  0  0
   -0.9852   -1.4685    1.9071 O   0  0  0  0  0  0  0  0  0  0  0  0
    0.5702   -0.1521    0.7352 C   0  0  0  0  0  0  0  0  0  0  0  0
    1.7269   -0.0313    0.4058 C   0  0  0  0  0  0  0  0  0  0  0  0
    3.1132    0.1040    0.0351 C   0  0  0  0  0  0  0  0  0  0  0  0
    3.6496   -0.6801   -0.9449 C   0  0  0  0  0  0  0  0  0  0  0  0
    4.9718   -0.5668   -1.3142 C   0  0  0  0  0  0  0  0  0  0  0  0
    5.8093    0.3429   -0.7099 C   0  0  0  0  0  0  0  0  0  0  0  0
    5.2837    1.1445    0.2837 C   0  0  0  0  0  0  0  0  0  0  0  0
    3.9516    1.0267    0.6520 C   0  0  0  0  0  0  0  0  0  0  0  0
   -1.6642   -0.4300   -0.0721 C   0  0  1  0  0  0  0  0  0  0  0  0
   -1.6070   -1.7826   -0.7038 C   0  0  0  0  0  0  0  0  0  0  0  0
   -1.4516    0.6599   -1.0769 C   0  0  0  0  0  0  0  0  0  0  0  0
   -2.7912    1.3081   -1.3353 C   0  0  0  0  0  0  0  0  0  0  0  0
   -3.7870    0.4799   -0.6033 C   0  0  0  0  0  0  0  0  0  0  0  0
   -4.9813    0.3269   -0.8133 O   0  0  0  0  0  0  0  0  0  0  0  0
  2  1  1  1
  2  3  1  0
  3  4  1  0
  4  5  1  0
  5  6  1  1
  5  7  1  0
  7  8  3  0
  8  9  1  0
  9 10  2  0
 10 11  1  0
 11 12  2  0
 12 13  1  0
 13 14  2  0
  5 15  1  0
 15 16  1  6
 15 17  1  0
 17 18  1  0
 18 19  1  0
 19 20  2  0
 15  2  1  0
 19  2  1  0
 14  9  1  0
M  END
>  <zinc_id>  (1) 
ZINC000002535865

>  <smiles>  (1) 
C[C@@]12CC[C@](O)(C#Cc3ccccc3)[C@]1(C)CCC2=O

$$$$
