
     RDKit          3D

 30 32  0  0  0  0  0  0  0  0999 V2000
   -5.9062    4.1562   -0.3117 C   0  0  0  0  0  0  0  0  0  0  0  0
   -5.2399    2.8344   -0.1900 C   0  0  0  0  0  0  0  0  0  0  0  0
   -6.1555    1.7058    0.3150 C   0  0  0  0  0  0  0  0  0  0  0  0
   -7.3070    1.5825   -0.6861 C   0  0  0  0  0  0  0  0  0  0  0  0
   -6.5898    2.0093    1.6921 C   0  0  0  0  0  0  0  0  0  0  0  0
   -5.3310    0.4365    0.2341 C   0  0  0  0  0  0  0  0  0  0  0  0
   -5.8074   -0.7627   -0.1815 C   0  0  0  0  0  0  0  0  0  0  0  0
   -4.9554   -1.8703   -0.3472 C   0  0  0  0  0  0  0  0  0  0  0  0
   -3.6237   -1.7698   -0.1011 C   0  0  0  0  0  0  0  0  0  0  0  0
   -2.6956   -2.8293   -0.2552 O   0  0  0  0  0  0  0  0  0  0  0  0
   -1.3622   -2.3320   -0.3296 C   0  0  0  0  0  0  0  0  0  0  0  0
   -0.7701   -1.8273   -1.4272 C   0  0  0  0  0  0  0  0  0  0  0  0
    0.5354   -1.3455   -1.3482 C   0  0  0  0  0  0  0  0  0  0  0  0
    1.2265   -1.3661   -0.2189 C   0  0  0  0  0  0  0  0  0  0  0  0
    2.5587   -0.8688    0.0394 N   0  0  0  0  0  0  0  0  0  0  0  0
    3.4102   -1.8398    0.7813 C   0  0  0  0  0  0  0  0  0  0  0  0
    2.8126   -2.9289    1.0070 O   0  0  0  0  0  0  0  0  0  0  0  0
    4.7425   -1.6582    1.2042 C   0  0  0  0  0  0  0  0  0  0  0  0
    5.5944   -0.2044    1.4551 S   0  0  0  0  0  0  0  0  0  0  0  0
    5.9510    0.9214    0.1423 C   0  0  0  0  0  0  0  0  0  0  0  0
    6.9690    0.5981   -0.7455 C   0  0  0  0  0  0  0  0  0  0  0  0
    7.3223    1.4749   -1.7177 C   0  0  0  0  0  0  0  0  0  0  0  0
    6.6120    2.6656   -1.7604 C   0  0  0  0  0  0  0  0  0  0  0  0
    5.5887    3.0019   -0.8875 C   0  0  0  0  0  0  0  0  0  0  0  0
    5.2989    2.1173    0.0352 N   0  0  0  0  0  4  0  0  0  0  0  0
    4.2963    2.3521    0.9823 O   0  0  0  0  0  1  0  0  0  0  0  0
    0.5996   -1.8992    0.9427 C   0  0  0  0  0  0  0  0  0  0  0  0
   -0.6778   -2.3689    0.8481 C   0  0  0  0  0  0  0  0  0  0  0  0
   -3.1318   -0.5320    0.3310 C   0  0  0  0  0  0  0  0  0  0  0  0
   -3.9645    0.5475    0.4980 C   0  0  0  0  0  0  0  0  0  0  0  0
  1  2  1  0
  2  3  1  0
  3  4  1  0
  3  5  1  0
  3  6  1  0
  6  7  2  0
  7  8  1  0
  8  9  2  0
  9 10  1  0
 10 11  1  0
 11 12  2  0
 12 13  1  0
 13 14  2  0
 14 15  1  0
 15 16  1  0
 16 17  2  0
 16 18  1  0
 18 19  1  0
 19 20  1  0
 20 21  2  0
 21 22  1  0
 22 23  2  0
 23 24  1  0
 24 25  2  0
 25 26  1  0
 14 27  1  0
 27 28  2  0
  9 29  1  0
 29 30  2  0
 30  6  1  0
 28 11  1  0
 25 20  1  0
M  CHG  2  25   1  26  -1
M  END
>  <zinc_id>  (1) 
ZINC000003222926

>  <smiles>  (1) 
CCC(C)(C)c1ccc(Oc2ccc(NC(=O)CSc3cccc[n+]3[O-])cc2)cc1

$$$$
