
     RDKit          3D

 19 21  0  0  0  0  0  0  0  0999 V2000
   -6.2677    0.1511   -0.5973 C   0  0  0  0  0  0  0  0  0  0  0  0
   -4.7963   -0.1332   -0.4848 C   0  0  0  0  0  0  0  0  0  0  0  0
   -3.7996    0.8347   -0.3850 C   0  0  0  0  0  0  0  0  0  0  0  0
   -2.5944    0.1746   -0.3016 C   0  0  0  0  0  0  0  0  0  0  0  0
   -1.2455    0.7909   -0.1806 C   0  0  0  0  0  0  0  0  0  0  0  0
   -1.0921    2.1554   -0.1404 C   0  0  0  0  0  0  0  0  0  0  0  0
    0.6011    2.3162   -0.0010 S   0  0  0  0  0  0  0  0  0  0  0  0
    1.0060    0.6603   -0.0023 C   0  0  0  0  0  0  0  0  0  0  0  0
    2.3203    0.0312    0.0905 C   0  0  0  0  0  0  0  0  0  0  0  0
    2.4571   -1.3359    0.0736 C   0  0  0  0  0  0  0  0  0  0  0  0
    3.7213   -1.9317    0.1631 C   0  0  0  0  0  0  0  0  0  0  0  0
    4.8344   -1.1312    0.2689 C   0  0  0  0  0  0  0  0  0  0  0  0
    4.7125    0.2348    0.2870 C   0  0  0  0  0  0  0  0  0  0  0  0
    5.8759    1.0565    0.3973 N   0  0  0  0  0  0  0  0  0  0  0  0
    3.4585    0.7884    0.1975 C   0  0  0  0  0  0  0  0  0  0  0  0
   -0.1720    0.0688   -0.1090 N   0  0  0  0  0  0  0  0  0  0  0  0
   -2.9127   -1.1705   -0.3546 C   0  0  0  0  0  0  0  0  0  0  0  0
   -1.8943   -2.2514   -0.2947 C   0  0  0  0  0  0  0  0  0  0  0  0
   -4.2124   -1.3089   -0.4618 O   0  0  0  0  0  0  0  0  0  0  0  0
  1  2  1  0
  2  3  2  0
  3  4  1  0
  4  5  1  0
  5  6  2  0
  6  7  1  0
  7  8  1  0
  8  9  1  0
  9 10  2  0
 10 11  1  0
 11 12  2  0
 12 13  1  0
 13 14  1  0
 13 15  2  0
  8 16  2  0
  4 17  2  0
 17 18  1  0
 17 19  1  0
 19  2  1  0
 16  5  1  0
 15  9  1  0
M  END
>  <zinc_id>  (1) 
ZINC000004245307

>  <smiles>  (1) 
Cc1cc(-c2csc(-c3cccc(N)c3)n2)c(C)o1

$$$$
