
     RDKit          3D

 19 21  0  0  0  0  0  0  0  0999 V2000
    1.5115   -1.0969    2.3261 C   0  0  0  0  0  0  0  0  0  0  0  0
    1.6093   -0.3709    1.0248 N   0  0  0  0  0  0  0  0  0  0  0  0
    0.5523    0.3103    0.6068 C   0  0  0  0  0  0  0  0  0  0  0  0
   -0.6209    0.4563    1.1792 N   0  0  0  0  0  0  0  0  0  0  0  0
   -1.5277    1.2466    0.4710 N   0  0  0  0  0  0  0  0  0  0  0  0
   -2.6155    0.7435   -0.2604 C   0  0  0  0  0  0  0  0  0  0  0  0
   -3.1650    1.5226   -1.2062 C   0  0  0  0  0  0  0  0  0  0  0  0
   -4.3229    0.8920   -1.9317 C   0  0  0  0  0  0  0  0  0  0  0  0
   -5.2546    0.2170   -0.9456 C   0  0  0  0  0  0  0  0  0  0  0  0
   -4.5763   -0.9461   -0.2784 C   0  0  0  0  0  0  0  0  0  0  0  0
   -3.1695   -0.5881   -0.0332 C   0  0  0  0  0  0  0  0  0  0  0  0
   -2.3897   -1.4721    0.3972 O   0  0  0  0  0  0  0  0  0  0  0  0
    1.0677    0.9688   -0.8720 S   0  0  0  0  0  0  0  0  0  0  0  0
    2.6543    0.3297   -0.8960 C   0  0  0  0  0  0  0  0  0  0  0  0
    3.7356    0.4078   -1.7846 C   0  0  0  0  0  0  0  0  0  0  0  0
    4.9386   -0.2507   -1.5073 C   0  0  0  0  0  0  0  0  0  0  0  0
    4.9548   -0.9485   -0.3335 C   0  0  0  0  0  0  0  0  0  0  0  0
    3.9214   -1.0446    0.5522 C   0  0  0  0  0  0  0  0  0  0  0  0
    2.6965   -0.3766    0.2742 C   0  0  0  0  0  0  0  0  0  0  0  0
  1  2  1  0
  2  3  1  0
  3  4  2  0
  4  5  1  0
  5  6  1  0
  6  7  2  0
  7  8  1  0
  8  9  1  0
  9 10  1  0
 10 11  1  0
 11 12  2  0
  3 13  1  0
 13 14  1  0
 14 15  2  0
 15 16  1  0
 16 17  2  0
 17 18  1  0
 18 19  2  0
 19  2  1  0
 11  6  1  0
 19 14  1  0
M  END
>  <zinc_id>  (1) 
ZINC000004467865

>  <smiles>  (1) 
Cn1/c(=N/NC2=CCCCC2=O)sc2ccccc21

$$$$
