
     RDKit          3D

 31 34  0  0  0  0  0  0  0  0999 V2000
   -8.8890   -1.3072    1.7784 C   0  0  0  0  0  0  0  0  0  0  0  0
   -9.0471   -0.5390    0.4751 C   0  0  0  0  0  0  0  0  0  0  0  0
   -8.6156    0.9628    0.9373 C   0  0  2  0  0  0  0  0  0  0  0  0
   -8.8484    1.5949   -0.5524 C   0  0  0  0  0  0  0  0  0  0  0  0
   -7.0721    0.7770    0.7431 C   0  0  0  0  0  0  0  0  0  0  0  0
   -6.3286    1.4033    1.6921 C   0  0  0  0  0  0  0  0  0  0  0  0
   -4.9258    1.3221    1.6433 C   0  0  0  0  0  0  0  0  0  0  0  0
   -4.3143    0.6081    0.6337 C   0  0  0  0  0  0  0  0  0  0  0  0
   -2.8998    0.5657    0.6420 N   0  0  0  0  0  0  0  0  0  0  0  0
   -2.2066   -0.1611   -0.3824 C   0  0  0  0  0  0  0  0  0  0  0  0
   -2.8928   -0.7265   -1.2401 O   0  0  0  0  0  0  0  0  0  0  0  0
   -0.7392   -0.1976   -0.3630 C   0  0  0  0  0  0  0  0  0  0  0  0
    0.3200    0.5236    0.7401 S   0  0  0  0  0  0  0  0  0  0  0  0
    1.8133    0.0141    0.0719 C   0  0  0  0  0  0  0  0  0  0  0  0
    3.1299    0.1936    0.3985 N   0  0  0  0  0  0  0  0  0  0  0  0
    4.1449   -0.3238   -0.3050 C   0  0  0  0  0  0  0  0  0  0  0  0
    5.5433   -0.1267    0.0515 C   0  0  0  0  0  0  0  0  0  0  0  0
    5.9168    0.6146    1.1497 C   0  0  0  0  0  0  0  0  0  0  0  0
    7.2560    0.8000    1.4861 C   0  0  0  0  0  0  0  0  0  0  0  0
    8.2632    0.2450    0.7279 C   0  0  0  0  0  0  0  0  0  0  0  0
    9.6140    0.4304    1.0649 O   0  0  0  0  0  0  0  0  0  0  0  0
   10.6639   -0.1106    0.3291 C   0  0  0  0  0  0  0  0  0  0  0  0
    7.8961   -0.4982   -0.3729 C   0  0  0  0  0  0  0  0  0  0  0  0
    6.5640   -0.6739   -0.6949 C   0  0  0  0  0  0  0  0  0  0  0  0
    3.7778   -1.0645   -1.4021 C   0  0  0  0  0  0  0  0  0  0  0  0
    2.4787   -1.2760   -1.7745 C   0  0  0  0  0  0  0  0  0  0  0  0
    1.4292   -0.7153   -1.0097 C   0  0  0  0  0  0  0  0  0  0  0  0
    0.0927   -0.8276   -1.2394 C   0  0  0  0  0  0  0  0  0  0  0  0
   -0.4669   -1.5867   -2.3730 N   0  0  0  0  0  0  0  0  0  0  0  0
   -5.1388    0.0046   -0.2862 C   0  0  0  0  0  0  0  0  0  0  0  0
   -6.5189    0.0749   -0.2520 C   0  0  0  0  0  0  0  0  0  0  0  0
  1  2  1  0
  2  3  1  0
  3  4  1  6
  3  5  1  0
  5  6  2  0
  6  7  1  0
  7  8  2  0
  8  9  1  0
  9 10  1  0
 10 11  2  0
 10 12  1  0
 12 13  1  0
 13 14  1  0
 14 15  2  0
 15 16  1  0
 16 17  1  0
 17 18  2  0
 18 19  1  0
 19 20  2  0
 20 21  1  0
 21 22  1  0
 20 23  1  0
 23 24  2  0
 16 25  2  0
 25 26  1  0
 26 27  2  0
 27 28  1  0
 28 29  1  0
  8 30  1  0
 30 31  2  0
 31  5  1  0
 28 12  2  0
 27 14  1  0
 24 17  1  0
M  END
>  <zinc_id>  (1) 
ZINC000000661532

>  <smiles>  (1) 
CC[C@H](C)c1ccc(NC(=O)c2sc3nc(-c4ccc(OC)cc4)ccc3c2N)cc1

$$$$
