
     RDKit          3D

 29 32  0  0  0  0  0  0  0  0999 V2000
    2.1505    3.1761    0.1581 O   0  0  0  0  0  0  0  0  0  0  0  0
    2.1986    2.0337   -0.3934 C   0  0  0  0  0  0  0  0  0  0  0  0
    3.4114    1.3836   -0.4023 O   0  0  0  0  0  0  0  0  0  0  0  0
    4.5303    2.0092    0.1944 C   0  0  0  0  0  0  0  0  0  0  0  0
    5.7088    1.0723    0.0352 C   0  0  0  0  0  0  0  0  0  0  0  0
    5.4773   -0.2001    0.6725 N   0  0  0  0  0  0  0  0  0  0  0  0
    6.6700   -1.0067    0.4524 C   0  0  0  0  0  0  0  0  0  0  0  0
    6.5632   -2.3729    1.0449 C   0  0  0  0  0  0  0  0  0  0  0  0
    6.3644   -2.2205    2.5372 C   0  0  0  0  0  0  0  0  0  0  0  0
    5.1661   -1.3567    2.8086 C   0  0  0  0  0  0  0  0  0  0  0  0
    5.1830   -0.0468    2.0900 C   0  0  0  0  0  0  0  0  0  0  0  0
    0.9905    1.4790   -0.9780 C   0  0  0  0  0  0  0  0  0  0  0  0
    1.0015    0.2436   -1.5851 C   0  0  0  0  0  0  0  0  0  0  0  0
   -0.1702   -0.2438   -2.1271 C   0  0  0  0  0  0  0  0  0  0  0  0
   -1.3432    0.4801   -2.0716 C   0  0  0  0  0  0  0  0  0  0  0  0
   -1.3759    1.7067   -1.4745 C   0  0  0  0  0  0  0  0  0  0  0  0
   -2.5515    2.5765   -1.3474 C   0  0  0  0  0  0  0  0  0  0  0  0
   -3.7418    2.0094   -1.8502 O   0  0  0  0  0  0  0  0  0  0  0  0
   -4.2202    0.8202   -1.2949 C   0  0  0  0  0  0  0  0  0  0  0  0
   -5.3827    0.2259   -1.7563 C   0  0  0  0  0  0  0  0  0  0  0  0
   -5.8402   -0.9464   -1.1970 C   0  0  0  0  0  0  0  0  0  0  0  0
   -5.1833   -1.5867   -0.1660 C   0  0  0  0  0  0  0  0  0  0  0  0
   -5.6477   -2.7617    0.3899 C   0  0  0  0  0  0  0  0  0  0  0  0
   -4.9893   -3.3997    1.4204 C   0  0  0  0  0  0  0  0  0  0  0  0
   -3.8317   -2.8070    1.8791 C   0  0  0  0  0  0  0  0  0  0  0  0
   -3.3607   -1.6314    1.3282 C   0  0  0  0  0  0  0  0  0  0  0  0
   -4.0206   -0.9960    0.2984 C   0  0  0  0  0  0  0  0  0  0  0  0
   -3.5648    0.1790   -0.2642 C   0  0  0  0  0  0  0  0  0  0  0  0
   -0.1915    2.1814   -0.9354 C   0  0  0  0  0  0  0  0  0  0  0  0
  1  2  2  0
  2  3  1  0
  3  4  1  0
  4  5  1  0
  5  6  1  0
  6  7  1  0
  7  8  1  0
  8  9  1  0
  9 10  1  0
 10 11  1  0
  2 12  1  0
 12 13  2  0
 13 14  1  0
 14 15  2  0
 15 16  1  0
 16 17  1  0
 17 18  1  0
 18 19  1  0
 19 20  2  0
 20 21  1  0
 21 22  2  0
 22 23  1  0
 23 24  2  0
 24 25  1  0
 25 26  2  0
 26 27  1  0
 27 28  2  0
 16 29  2  0
 11  6  1  0
 29 12  1  0
 28 19  1  0
 27 22  1  0
M  END
>  <zinc_id>  (1) 
ZINC000003638881

>  <smiles>  (1) 
O=C(OCCN1CCCCC1)c1cccc(COc2ccc3ccccc3c2)c1

$$$$
