
     RDKit          3D

 31 34  0  0  0  0  0  0  0  0999 V2000
   -7.3056    0.5508   -0.0622 C   0  0  0  0  0  0  0  0  0  0  0  0
   -7.3279    0.4340    1.3424 O   0  0  0  0  0  0  0  0  0  0  0  0
   -6.1313    0.2944    2.0705 C   0  0  0  0  0  0  0  0  0  0  0  0
   -6.1905    0.1842    3.4259 C   0  0  0  0  0  0  0  0  0  0  0  0
   -5.0189    0.0454    4.1625 C   0  0  0  0  0  0  0  0  0  0  0  0
   -3.8097    0.0220    3.4999 C   0  0  0  0  0  0  0  0  0  0  0  0
   -3.7385    0.1320    2.1370 C   0  0  0  0  0  0  0  0  0  0  0  0
   -2.4066    0.1025    1.4502 C   0  0  0  0  0  0  0  0  0  0  0  0
   -1.4184   -0.0082    2.2034 O   0  0  0  0  0  0  0  0  0  0  0  0
   -2.2220    0.1829    0.1542 N   0  0  0  0  0  0  0  0  0  0  0  0
   -1.4571    0.2172   -0.9650 C   0  0  0  0  0  0  0  0  0  0  0  0
   -2.2843    0.3615   -2.5183 S   0  0  0  0  0  0  0  0  0  0  0  0
   -0.9543    0.3560   -3.5452 C   0  0  0  0  0  0  0  0  0  0  0  0
    0.0919    0.2456   -2.6980 C   0  0  0  0  0  0  0  0  0  0  0  0
   -0.1520    0.1730   -1.3597 C   0  0  0  0  0  0  0  0  0  0  0  0
    0.9442    0.0551   -0.3552 C   0  0  0  0  0  0  0  0  0  0  0  0
    0.7743   -0.0058    0.8457 O   0  0  0  0  0  0  0  0  0  0  0  0
    2.3016    0.0074   -0.7936 N   0  0  0  0  0  0  0  0  0  0  0  0
    3.3966   -0.1090    0.1857 C   0  0  0  0  0  0  0  0  0  0  0  0
    4.7177   -0.1377   -0.5467 C   0  0  0  0  0  0  0  0  0  0  0  0
    5.7855   -0.2553    0.4779 C   0  0  0  0  0  0  0  0  0  0  0  0
    6.1811   -1.5229    0.8498 C   0  0  0  0  0  0  0  0  0  0  0  0
    7.1665   -1.7136    1.7947 C   0  0  0  0  0  0  0  0  0  0  0  0
    7.7551   -0.5829    2.3672 C   0  0  0  0  0  0  0  0  0  0  0  0
    7.3483    0.6618    1.9845 C   0  0  0  0  0  0  0  0  0  0  0  0
    6.3637    0.8789    1.0403 C   0  0  0  0  0  0  0  0  0  0  0  0
    1.5010    0.2028   -3.3398 C   0  0  0  0  0  0  0  0  0  0  0  0
    1.3424   -0.4845   -4.6773 C   0  0  0  0  0  0  0  0  0  0  0  0
    0.5261    0.5092   -5.5159 C   0  0  0  0  0  0  0  0  0  0  0  0
   -0.8694    0.4432   -5.0429 C   0  0  0  0  0  0  0  0  0  0  0  0
   -4.9096    0.2684    1.4280 C   0  0  0  0  0  0  0  0  0  0  0  0
  1  2  1  0
  2  3  1  0
  3  4  2  0
  4  5  1  0
  5  6  2  0
  6  7  1  0
  7  8  1  0
  8  9  2  0
  8 10  1  0
 10 11  1  0
 11 12  1  0
 12 13  1  0
 13 14  2  0
 14 15  1  0
 15 16  1  0
 16 17  2  0
 16 18  1  0
 18 19  1  0
 19 20  1  0
 20 21  1  0
 21 22  2  0
 22 23  1  0
 23 24  2  0
 24 25  1  0
 25 26  2  0
 14 27  1  0
 27 28  1  0
 28 29  1  0
 29 30  1  0
  7 31  2  0
 31  3  1  0
 15 11  2  0
 26 21  1  0
 30 13  1  0
M  END
>  <zinc_id>  (1) 
ZINC000000702506

>  <smiles>  (1) 
COc1cccc(C(=O)Nc2sc3c(c2C(=O)NCCc2ccccc2)CCCC3)c1

$$$$
