
     RDKit          3D

 17 18  0  0  0  0  0  0  0  0999 V2000
    6.1210    0.7449    0.0784 C   0  0  0  0  0  0  0  0  0  0  0  0
    4.7655    1.0310   -0.5329 C   0  0  0  0  0  0  0  0  0  0  0  0
    4.1863   -0.2054   -1.1879 C   0  0  0  0  0  0  0  0  0  0  0  0
    4.0438   -1.2888   -0.1117 C   0  0  0  0  0  0  0  0  0  0  0  0
    3.1649   -0.8004    0.9222 N   0  0  0  0  0  0  0  0  0  0  0  0
    1.7940   -0.6135    0.6436 C   0  0  0  0  0  0  0  0  0  0  0  0
    1.2095   -0.9625   -0.8458 S   0  0  0  0  0  0  0  0  0  0  0  0
    0.8828   -0.1260    1.6386 N   0  0  0  0  0  0  0  0  0  0  0  0
   -0.5097    0.0409    1.2889 C   0  0  0  0  0  0  0  0  0  0  0  0
   -1.1073   -0.1755    0.1377 N   0  0  0  0  0  0  0  0  0  0  0  0
   -2.4006    0.0359    0.0140 C   0  0  0  0  0  0  0  0  0  0  0  0
   -3.1606   -0.1475   -1.1610 C   0  0  0  0  0  0  0  0  0  0  0  0
   -4.4847    0.1113   -1.1634 C   0  0  0  0  0  0  0  0  0  0  0  0
   -5.1941    0.5645   -0.0519 C   0  0  0  0  0  0  0  0  0  0  0  0
   -4.4406    0.7406    1.0924 C   0  0  0  0  0  0  0  0  0  0  0  0
   -3.0628    0.4800    1.1244 C   0  0  0  0  0  0  0  0  0  0  0  0
   -1.8073    0.5704    2.2742 S   0  0  0  0  0  0  0  0  0  0  0  0
  1  2  1  0
  2  3  1  0
  3  4  1  0
  4  5  1  0
  5  6  1  0
  6  7  2  0
  6  8  1  0
  8  9  1  0
  9 10  2  0
 10 11  1  0
 11 12  2  0
 12 13  1  0
 13 14  2  0
 14 15  1  0
 15 16  2  0
 16 17  1  0
 17  9  1  0
 16 11  1  0
M  END
>  <zinc_id>  (1) 
ZINC000003124536

>  <smiles>  (1) 
CCCCNC(=S)Nc1nc2ccccc2s1

$$$$
