
     RDKit          3D

 21 24  0  0  0  0  0  0  0  0999 V2000
    1.6658    1.2926   -0.0549 O   0  0  0  0  0  0  0  0  0  0  0  0
    2.5072    0.4218    0.2825 C   0  0  0  0  0  0  0  0  0  0  0  0
    2.0403   -0.9087    0.4439 N   0  0  0  0  0  0  0  0  0  0  0  0
    0.6598   -1.2006    0.2211 C   0  0  0  0  0  0  0  0  0  0  0  0
    0.1638   -2.4792    0.3667 C   0  0  0  0  0  0  0  0  0  0  0  0
   -1.1642   -2.7885    0.1579 C   0  0  0  0  0  0  0  0  0  0  0  0
   -2.0640   -1.8109   -0.2117 C   0  0  0  0  0  0  0  0  0  0  0  0
   -3.3920   -1.8092   -0.4802 N   0  0  0  0  0  0  0  0  0  0  0  0
   -3.8016   -0.5696   -0.8012 C   0  0  0  0  0  0  0  0  0  0  0  0
   -2.6875    0.2343   -0.7307 C   0  0  0  0  0  0  0  0  0  0  0  0
   -1.5884   -0.5259   -0.3626 C   0  0  0  0  0  0  0  0  0  0  0  0
   -0.2458   -0.2276   -0.1488 C   0  0  0  0  0  0  0  0  0  0  0  0
   -2.7356    1.7071   -1.0235 C   0  0  0  0  0  0  0  0  0  0  0  0
   -4.1799    2.1390   -0.8852 C   0  0  0  0  0  0  0  0  0  0  0  0
   -4.9972    1.2653   -1.8467 C   0  0  0  0  0  0  0  0  0  0  0  0
   -5.1553   -0.0698   -1.1706 C   0  0  0  0  0  0  0  0  0  0  0  0
    3.8941    0.7995    0.4900 C   0  0  0  0  0  0  0  0  0  0  0  0
    4.4578    2.0393    0.3657 C   0  0  0  0  0  0  0  0  0  0  0  0
    5.8043    1.9321    0.6582 C   0  0  0  0  0  0  0  0  0  0  0  0
    5.9803    0.5883    0.9520 C   0  0  0  0  0  0  0  0  0  0  0  0
    4.8381   -0.0293    0.8399 O   0  0  0  0  0  0  0  0  0  0  0  0
  1  2  2  0
  2  3  1  0
  3  4  1  0
  4  5  2  0
  5  6  1  0
  6  7  2  0
  7  8  1  0
  8  9  1  0
  9 10  2  0
 10 11  1  0
 11 12  2  0
 10 13  1  0
 13 14  1  0
 14 15  1  0
 15 16  1  0
  2 17  1  0
 17 18  2  0
 18 19  1  0
 19 20  2  0
 20 21  1  0
 12  4  1  0
 21 17  1  0
 11  7  1  0
 16  9  1  0
M  END
>  <zinc_id>  (1) 
ZINC000000387281

>  <smiles>  (1) 
O=C(Nc1ccc2[nH]c3c(c2c1)CCCC3)c1ccco1

$$$$
