
     RDKit          3D

 19 20  0  0  0  0  0  0  0  0999 V2000
    6.1372   -0.6926   -0.5500 C   0  0  0  0  0  0  0  0  0  0  0  0
    4.6770   -0.6302   -0.3532 C   0  0  0  0  0  0  0  0  0  0  0  0
    3.9500    0.4656   -0.7680 C   0  0  0  0  0  0  0  0  0  0  0  0
    2.5881    0.4449   -0.5464 C   0  0  0  0  0  0  0  0  0  0  0  0
    1.9352   -0.6078    0.0619 C   0  0  0  0  0  0  0  0  0  0  0  0
    0.5076   -0.5550    0.2584 N   0  0  0  0  0  0  0  0  0  0  0  0
   -0.2208    0.5844   -0.1774 C   0  0  0  0  0  0  0  0  0  0  0  0
    0.4313    1.4948   -0.7173 O   0  0  0  0  0  0  0  0  0  0  0  0
   -1.6521    0.7247   -0.0225 C   0  0  0  0  0  0  0  0  0  0  0  0
   -2.2756    1.8605   -0.4738 C   0  0  0  0  0  0  0  0  0  0  0  0
   -3.6345    2.0555   -0.3566 C   0  0  0  0  0  0  0  0  0  0  0  0
   -4.4001    1.0775    0.2345 C   0  0  0  0  0  0  0  0  0  0  0  0
   -5.8648    1.3436    0.3339 C   0  0  0  0  0  0  0  0  0  0  0  0
   -3.8102   -0.0584    0.6910 C   0  0  0  0  0  0  0  0  0  0  0  0
   -4.6369   -1.0550    1.3006 N   0  0  0  0  0  0  0  0  0  0  0  0
   -2.4281   -0.2467    0.5670 C   0  0  0  0  0  0  0  0  0  0  0  0
    2.6813   -1.6812    0.4630 C   0  0  0  0  0  0  0  0  0  0  0  0
    1.9645   -2.8142    1.1200 C   0  0  0  0  0  0  0  0  0  0  0  0
    4.0508   -1.7106    0.2644 C   0  0  0  0  0  0  0  0  0  0  0  0
  1  2  1  0
  2  3  2  0
  3  4  1  0
  4  5  2  0
  5  6  1  0
  6  7  1  0
  7  8  2  0
  7  9  1  0
  9 10  2  0
 10 11  1  0
 11 12  2  0
 12 13  1  0
 12 14  1  0
 14 15  1  0
 14 16  2  0
  5 17  1  0
 17 18  1  0
 17 19  2  0
 19  2  1  0
 16  9  1  0
M  END
>  <zinc_id>  (1) 
ZINC000000393543

>  <smiles>  (1) 
Cc1ccc(NC(=O)c2ccc(C)c(N)c2)c(C)c1

$$$$
