
     RDKit          3D

 31 33  0  0  0  0  0  0  0  0999 V2000
   -5.0923   -3.5431   -1.7354 C   0  0  0  0  0  0  0  0  0  0  0  0
   -4.2632   -2.2550   -1.7138 C   0  0  0  0  0  0  0  0  0  0  0  0
   -2.9021   -2.6012   -1.1061 C   0  0  0  0  0  0  0  0  0  0  0  0
   -4.8986   -1.2612   -0.8201 C   0  0  0  0  0  0  0  0  0  0  0  0
   -5.9797   -1.6589   -0.0259 C   0  0  0  0  0  0  0  0  0  0  0  0
   -6.6096   -0.7811    0.8189 C   0  0  0  0  0  0  0  0  0  0  0  0
   -6.1526    0.5046    0.8676 C   0  0  0  0  0  0  0  0  0  0  0  0
   -5.0933    0.8910    0.0880 C   0  0  0  0  0  0  0  0  0  0  0  0
   -4.5888    2.2884    0.1328 C   0  0  0  0  0  0  0  0  0  0  0  0
   -5.3719    3.1485    1.0749 C   0  0  0  0  0  0  0  0  0  0  0  0
   -4.4462    2.8783   -1.2426 C   0  0  0  0  0  0  0  0  0  0  0  0
   -4.4250    0.0253   -0.7853 C   0  0  0  0  0  0  0  0  0  0  0  0
   -3.3367    0.4830   -1.5626 N   0  0  0  0  0  0  0  0  0  0  0  0
   -1.9838    0.5386   -1.1513 C   0  0  0  0  0  0  0  0  0  0  0  0
   -1.7047    0.1530    0.0125 O   0  0  0  0  0  0  0  0  0  0  0  0
   -0.8915    1.0224   -2.0127 C   0  0  0  0  0  0  0  0  0  0  0  0
    0.3676    1.0189   -1.4379 O   0  0  0  0  0  0  0  0  0  0  0  0
    0.9536   -0.1415   -0.9775 C   0  0  0  0  0  0  0  0  0  0  0  0
    0.3002   -1.2064   -1.0958 O   0  0  0  0  0  0  0  0  0  0  0  0
    2.3028   -0.1391   -0.3660 C   0  0  0  0  0  0  0  0  0  0  0  0
    2.9861    1.0507   -0.2571 C   0  0  0  0  0  0  0  0  0  0  0  0
    4.2567    1.1494    0.2999 C   0  0  0  0  0  0  0  0  0  0  0  0
    4.8585   -0.0140    0.7668 C   0  0  0  0  0  0  0  0  0  0  0  0
    6.1877    0.1115    1.3496 C   0  0  0  0  0  0  0  0  0  0  0  0
    6.5457   -0.7629    2.3538 C   0  0  0  0  0  0  0  0  0  0  0  0
    7.7715   -0.7514    2.9923 C   0  0  0  0  0  0  0  0  0  0  0  0
    8.6950    0.2014    2.5937 C   0  0  0  0  0  0  0  0  0  0  0  0
    8.3456    1.0878    1.5828 C   0  0  0  0  0  0  0  0  0  0  0  0
    7.1113    1.0394    0.9743 C   0  0  0  0  0  0  0  0  0  0  0  0
    4.1659   -1.1969    0.6526 C   0  0  0  0  0  0  0  0  0  0  0  0
    2.8917   -1.2792    0.0911 C   0  0  0  0  0  0  0  0  0  0  0  0
  1  2  1  0
  2  3  1  0
  2  4  1  0
  4  5  2  0
  5  6  1  0
  6  7  2  0
  7  8  1  0
  8  9  1  0
  9 10  1  0
  9 11  1  0
  8 12  2  0
 12 13  1  0
 13 14  1  0
 14 15  2  0
 14 16  1  0
 16 17  1  0
 17 18  1  0
 18 19  2  0
 18 20  1  0
 20 21  2  0
 21 22  1  0
 22 23  2  0
 23 24  1  0
 24 25  2  0
 25 26  1  0
 26 27  2  0
 27 28  1  0
 28 29  2  0
 23 30  1  0
 30 31  2  0
 12  4  1  0
 31 20  1  0
 29 24  1  0
M  END
>  <zinc_id>  (1) 
ZINC000001939440

>  <smiles>  (1) 
CC(C)c1cccc(C(C)C)c1NC(=O)COC(=O)c1ccc(-c2ccccc2)cc1

$$$$
