
     RDKit          3D

 19 20  0  0  0  0  0  0  0  0999 V2000
    4.5032    0.6931   -1.7932 C   0  0  0  0  0  0  0  0  0  0  0  0
    4.3772    0.5135   -0.3112 C   0  0  0  0  0  0  0  0  0  0  0  0
    4.7115   -0.8998    0.1283 C   0  0  0  0  0  0  0  0  0  0  0  0
    5.4339    1.4157    0.3359 C   0  0  0  0  0  0  0  0  0  0  0  0
    3.1240    0.8560    0.2050 O   0  0  0  0  0  0  0  0  0  0  0  0
    1.9711    0.2097   -0.2201 C   0  0  0  0  0  0  0  0  0  0  0  0
    2.1210   -0.6934   -1.0889 O   0  0  0  0  0  0  0  0  0  0  0  0
    0.6921    0.5532    0.3012 N   0  0  0  0  0  0  0  0  0  0  0  0
   -0.4847   -0.1283   -0.1531 C   0  0  0  0  0  0  0  0  0  0  0  0
   -0.4579   -1.1266   -1.0916 C   0  0  0  0  0  0  0  0  0  0  0  0
   -1.6278   -1.7535   -1.4958 C   0  0  0  0  0  0  0  0  0  0  0  0
   -2.8559   -1.3928   -0.9666 C   0  0  0  0  0  0  0  0  0  0  0  0
   -4.0419   -1.9971   -1.3471 O   0  0  0  0  0  0  0  0  0  0  0  0
   -2.8677   -0.3828   -0.0195 C   0  0  0  0  0  0  0  0  0  0  0  0
   -4.0716    0.0129    0.5388 C   0  0  0  0  0  0  0  0  0  0  0  0
   -4.1196    1.0179    1.4869 C   0  0  0  0  0  0  0  0  0  0  0  0
   -2.9540    1.6277    1.8758 C   0  0  0  0  0  0  0  0  0  0  0  0
   -1.7497    1.2363    1.3215 C   0  0  0  0  0  0  0  0  0  0  0  0
   -1.7032    0.2381    0.3800 C   0  0  0  0  0  0  0  0  0  0  0  0
  1  2  1  0
  2  3  1  0
  2  4  1  0
  2  5  1  0
  5  6  1  0
  6  7  2  0
  6  8  1  0
  8  9  1  0
  9 10  2  0
 10 11  1  0
 11 12  2  0
 12 13  1  0
 12 14  1  0
 14 15  2  0
 15 16  1  0
 16 17  2  0
 17 18  1  0
 18 19  2  0
 19  9  1  0
 19 14  1  0
M  END
>  <zinc_id>  (1) 
ZINC000002527121

>  <smiles>  (1) 
CC(C)(C)OC(=O)Nc1ccc(O)c2ccccc12

$$$$
