
     RDKit          3D

 30 32  0  0  0  0  0  0  0  0999 V2000
    7.8234    0.9124    0.1833 C   0  0  0  0  0  0  0  0  0  0  0  0
    6.4101    0.4656    0.2129 C   0  0  0  0  0  0  0  0  0  0  0  0
    5.6069    0.6796   -0.8711 C   0  0  0  0  0  0  0  0  0  0  0  0
    4.2894    0.2765   -0.8740 C   0  0  0  0  0  0  0  0  0  0  0  0
    3.4927    0.5573   -2.1091 C   0  0  0  0  0  0  0  0  0  0  0  0
    3.7409   -0.3565    0.2188 C   0  0  0  0  0  0  0  0  0  0  0  0
    2.3711   -0.7629    0.1796 N   0  0  0  0  0  0  0  0  0  0  0  0
    1.9481   -2.0170   -0.2784 C   0  0  0  0  0  0  0  0  0  0  0  0
    2.7808   -2.8560   -0.6844 O   0  0  0  0  0  0  0  0  0  0  0  0
    0.5063   -2.3613   -0.2855 C   0  0  0  0  0  0  0  0  0  0  0  0
   -0.3037   -1.3276    0.1876 O   0  0  0  0  0  0  0  0  0  0  0  0
   -0.3638   -0.0650   -0.4097 C   0  0  0  0  0  0  0  0  0  0  0  0
    0.3372    0.1718   -1.4242 O   0  0  0  0  0  0  0  0  0  0  0  0
   -1.2724    0.9518    0.1992 C   0  0  0  0  0  0  0  0  0  0  0  0
   -2.5668    0.9251   -0.5852 C   0  0  0  0  0  0  0  0  0  0  0  0
   -3.5451    1.9089   -0.0564 C   0  0  0  0  0  0  0  0  0  0  0  0
   -3.6411    2.2473    1.2716 C   0  0  0  0  0  0  0  0  0  0  0  0
   -4.5664    3.1649    1.7181 C   0  0  0  0  0  0  0  0  0  0  0  0
   -5.4071    3.7425    0.7749 C   0  0  0  0  0  0  0  0  0  0  0  0
   -5.3456    3.4336   -0.5604 C   0  0  0  0  0  0  0  0  0  0  0  0
   -4.4010    2.5089   -0.9536 C   0  0  0  0  0  0  0  0  0  0  0  0
   -3.1418   -0.4460   -0.6337 C   0  0  0  0  0  0  0  0  0  0  0  0
   -3.7833   -0.8241   -1.7928 C   0  0  0  0  0  0  0  0  0  0  0  0
   -4.3567   -2.0565   -1.9710 C   0  0  0  0  0  0  0  0  0  0  0  0
   -4.2743   -2.9520   -0.9152 C   0  0  0  0  0  0  0  0  0  0  0  0
   -3.6244   -2.5800    0.2689 C   0  0  0  0  0  0  0  0  0  0  0  0
   -3.0560   -1.3278    0.4162 C   0  0  0  0  0  0  0  0  0  0  0  0
    4.5422   -0.5755    1.3128 C   0  0  0  0  0  0  0  0  0  0  0  0
    3.9547   -1.2652    2.5116 C   0  0  0  0  0  0  0  0  0  0  0  0
    5.8459   -0.1727    1.3074 C   0  0  0  0  0  0  0  0  0  0  0  0
  1  2  1  0
  2  3  2  0
  3  4  1  0
  4  5  1  0
  4  6  2  0
  6  7  1  0
  7  8  1  0
  8  9  2  0
  8 10  1  0
 10 11  1  0
 11 12  1  0
 12 13  2  0
 12 14  1  0
 14 15  1  0
 15 16  1  0
 16 17  2  0
 17 18  1  0
 18 19  2  0
 19 20  1  0
 20 21  2  0
 15 22  1  0
 22 23  2  0
 23 24  1  0
 24 25  2  0
 25 26  1  0
 26 27  2  0
  6 28  1  0
 28 29  1  0
 28 30  2  0
 30  2  1  0
 21 16  1  0
 27 22  1  0
M  END
>  <zinc_id>  (1) 
ZINC000003236999

>  <smiles>  (1) 
Cc1cc(C)c(NC(=O)COC(=O)CC(c2ccccc2)c2ccccc2)c(C)c1

$$$$
