
     RDKit          3D

 33 37  0  0  0  0  0  0  0  0999 V2000
   -1.7004    4.1115   -0.1188 N   0  0  0  0  0  0  0  0  0  0  0  0
   -1.3141    3.0183   -0.2762 C   0  0  0  0  0  0  0  0  0  0  0  0
   -0.8555    1.6744   -0.4786 C   0  0  0  0  0  0  0  0  0  0  0  0
   -1.7042    0.5880   -0.4967 C   0  0  0  0  0  0  0  0  0  0  0  0
   -3.0888    0.8456   -0.3032 N   0  0  0  0  0  0  0  0  0  0  0  0
   -3.9901   -0.2880   -0.3201 C   0  0  0  0  0  0  0  0  0  0  0  0
   -5.3735    0.1906   -0.1024 C   0  0  0  0  0  0  0  0  0  0  0  0
   -5.7228    1.4923    0.0821 C   0  0  0  0  0  0  0  0  0  0  0  0
   -7.0037    1.9256    0.2826 C   0  0  0  0  0  0  0  0  0  0  0  0
   -8.0076    0.9591    0.2965 C   0  0  0  0  0  0  0  0  0  0  0  0
   -7.6830   -0.3669    0.1123 C   0  0  0  0  0  0  0  0  0  0  0  0
   -6.3801   -0.7689   -0.0874 C   0  0  0  0  0  0  0  0  0  0  0  0
   -1.2150   -0.6441   -0.6905 N   0  0  0  0  0  0  0  0  0  0  0  0
    0.1205   -0.8661   -0.8744 C   0  0  0  0  0  0  0  0  0  0  0  0
    0.6162   -2.1814   -1.0781 N   0  0  0  0  0  0  0  0  0  0  0  0
   -0.2777   -3.3066   -1.0952 C   0  0  0  0  0  0  0  0  0  0  0  0
    0.5079   -4.5289   -0.6680 C   0  0  0  0  0  0  0  0  0  0  0  0
    1.5475   -4.1706    0.3833 C   0  0  0  0  0  0  0  0  0  0  0  0
    2.5839   -3.2243   -0.1316 C   0  0  0  0  0  0  0  0  0  0  0  0
    2.0318   -2.3880   -1.2697 C   0  0  0  0  0  0  0  0  0  0  0  0
    1.0018    0.2086   -0.8614 C   0  0  0  0  0  0  0  0  0  0  0  0
    0.5013    1.4709   -0.6629 C   0  0  0  0  0  0  0  0  0  0  0  0
    1.4390    2.6403   -0.6463 C   0  0  0  0  0  0  0  0  0  0  0  0
    2.7751    2.1166   -0.1683 C   0  0  0  0  0  0  0  0  0  0  0  0
    3.2342    1.0990   -1.0749 N   0  0  0  0  0  0  0  0  0  0  0  0
    4.6329    0.8290   -0.9572 C   0  0  0  0  0  0  0  0  0  0  0  0
    4.8939    0.3696    0.4444 C   0  0  0  0  0  0  0  0  0  0  0  0
    6.1892    0.0440    0.8071 C   0  0  0  0  0  0  0  0  0  0  0  0
    6.4087   -0.3780    2.1060 C   0  0  0  0  0  0  0  0  0  0  0  0
    5.4015   -0.4860    3.0423 C   0  0  0  0  0  0  0  0  0  0  0  0
    4.1049   -0.1601    2.6792 C   0  0  0  0  0  0  0  0  0  0  0  0
    3.8888    0.2607    1.3825 C   0  0  0  0  0  0  0  0  0  0  0  0
    2.4375   -0.0862   -1.0652 C   0  0  0  0  0  0  0  0  0  0  0  0
  1  2  3  0
  2  3  1  0
  3  4  2  0
  4  5  1  0
  5  6  1  0
  6  7  1  0
  7  8  2  0
  8  9  1  0
  9 10  2  0
 10 11  1  0
 11 12  2  0
  4 13  1  0
 13 14  2  0
 14 15  1  0
 15 16  1  0
 16 17  1  0
 17 18  1  0
 18 19  1  0
 19 20  1  0
 14 21  1  0
 21 22  2  0
 22 23  1  0
 23 24  1  0
 24 25  1  0
 25 26  1  0
 26 27  1  0
 27 28  2  0
 28 29  1  0
 29 30  2  0
 30 31  1  0
 31 32  2  0
 25 33  1  0
 22  3  1  0
 32 27  1  0
 12  7  1  0
 20 15  1  0
 33 21  1  0
M  END
>  <zinc_id>  (1) 
ZINC000002226419

>  <smiles>  (1) 
N#Cc1c(NCc2ccccc2)nc(N2CCCCC2)c2c1CCN(Cc1ccccc1)C2

$$$$
