
     RDKit          3D

 20 21  0  0  0  0  0  0  0  0999 V2000
   -1.8158    3.3238   -1.6167 C   0  0  0  0  0  0  0  0  0  0  0  0
   -1.6559    1.9163   -1.1326 C   0  0  0  0  0  0  0  0  0  0  0  0
   -2.5641    0.9785   -0.9945 C   0  0  0  0  0  0  0  0  0  0  0  0
   -1.9596   -0.2720   -0.4775 C   0  0  2  0  0  0  0  0  0  0  0  0
   -2.2168   -1.2679   -1.4013 O   0  0  0  0  0  0  0  0  0  0  0  0
   -2.6423   -0.5674    0.8450 C   0  0  0  0  0  0  0  0  0  0  0  0
   -2.1408   -1.8190    1.5032 C   0  0  0  0  0  0  0  0  0  0  0  0
   -4.1271   -0.6780    0.6706 C   0  0  0  0  0  0  0  0  0  0  0  0
   -2.3943    0.5769    1.8222 C   0  0  0  0  0  0  0  0  0  0  0  0
   -0.5657    0.0181   -0.3617 N   0  0  0  0  0  0  0  0  0  0  0  0
    0.5166   -0.8210    0.0424 C   0  0  0  0  0  0  0  0  0  0  0  0
    0.3271   -2.0316    0.3676 O   0  0  0  0  0  0  0  0  0  0  0  0
    1.8618   -0.2693    0.0794 C   0  0  0  0  0  0  0  0  0  0  0  0
    2.0805    1.0442   -0.2716 C   0  0  0  0  0  0  0  0  0  0  0  0
    3.3580    1.5913   -0.2431 C   0  0  0  0  0  0  0  0  0  0  0  0
    4.4072    0.8021    0.1415 C   0  0  0  0  0  0  0  0  0  0  0  0
    4.2323   -0.5189    0.5011 C   0  0  0  0  0  0  0  0  0  0  0  0
    2.9524   -1.0245    0.4602 C   0  0  0  0  0  0  0  0  0  0  0  0
    2.7581   -2.3534    0.8193 O   0  0  0  0  0  0  0  0  0  0  0  0
   -0.4115    1.3717   -0.7535 N   0  0  0  0  0  0  0  0  0  0  0  0
  1  2  1  0
  2  3  2  0
  3  4  1  0
  4  5  1  6
  4  6  1  0
  6  7  1  0
  6  8  1  0
  6  9  1  0
  4 10  1  0
 10 11  1  0
 11 12  2  0
 11 13  1  0
 13 14  2  0
 14 15  1  0
 15 16  2  0
 16 17  1  0
 17 18  2  0
 18 19  1  0
 10 20  1  0
 20  2  1  0
 18 13  1  0
M  END
>  <zinc_id>  (1) 
ZINC000003061497

>  <smiles>  (1) 
CC1=C[C@](O)(C(C)(C)C)N(C(=O)c2ccccc2O)N1

$$$$
