
     RDKit          3D

 35 39  0  0  0  0  0  0  0  0999 V2000
   -0.7464   -5.7968   -2.9040 C   0  0  0  0  0  0  0  0  0  0  0  0
    0.0151   -4.8265   -2.2205 O   0  0  0  0  0  0  0  0  0  0  0  0
   -0.6192   -3.8513   -1.4680 C   0  0  0  0  0  0  0  0  0  0  0  0
   -1.9959   -3.8252   -1.3883 C   0  0  0  0  0  0  0  0  0  0  0  0
   -2.5729   -2.8332   -0.6275 C   0  0  0  0  0  0  0  0  0  0  0  0
   -1.8113   -1.8723    0.0504 C   0  0  0  0  0  0  0  0  0  0  0  0
   -0.4433   -1.9193   -0.0459 C   0  0  0  0  0  0  0  0  0  0  0  0
    0.1386   -2.9099   -0.8043 C   0  0  0  0  0  0  0  0  0  0  0  0
    0.1050   -0.8883    0.6885 C   0  0  0  0  0  0  0  0  0  0  0  0
    1.5457   -0.5973    0.8412 C   0  0  0  0  0  0  0  0  0  0  0  0
    1.8943    0.3990    1.5018 O   0  0  0  0  0  0  0  0  0  0  0  0
    2.4967   -1.4188    0.2580 N   0  0  0  0  0  0  0  0  0  0  0  0
    4.0153   -1.1655    0.3792 C   0  0  1  0  0  0  0  0  0  0  0  0
    3.9535    0.2126   -0.5595 C   0  0  0  0  0  0  0  0  0  0  0  0
    3.9549   -0.3930    1.8085 C   0  0  0  0  0  0  0  0  0  0  0  0
    5.2839   -0.0139    2.2746 C   0  0  0  0  0  0  0  0  0  0  0  0
    5.8990    0.8790    1.2653 C   0  0  0  0  0  0  0  0  0  0  0  0
    6.6653    0.3799    0.2407 C   0  0  0  0  0  0  0  0  0  0  0  0
    7.2409    1.2055   -0.6935 C   0  0  0  0  0  0  0  0  0  0  0  0
    7.0893    2.5551   -0.6631 C   0  0  0  0  0  0  0  0  0  0  0  0
    6.3225    3.0653    0.3607 C   0  0  0  0  0  0  0  0  0  0  0  0
    5.7283    2.2483    1.3212 C   0  0  0  0  0  0  0  0  0  0  0  0
   -0.9725   -0.2365    1.2188 C   0  0  0  0  0  0  0  0  0  0  0  0
   -0.8064    0.9769    2.1012 C   0  0  0  0  0  0  0  0  0  0  0  0
   -2.1085   -0.8257    0.8369 N   0  0  0  0  0  0  0  0  0  0  0  0
   -3.4108   -0.4358    1.2048 C   0  0  0  0  0  0  0  0  0  0  0  0
   -4.1144    0.5487    0.4045 C   0  0  0  0  0  0  0  0  0  0  0  0
   -4.5613    0.3560   -0.8964 C   0  0  0  0  0  0  0  0  0  0  0  0
   -5.2629    1.3612   -1.5247 C   0  0  0  0  0  0  0  0  0  0  0  0
   -5.5611    2.5697   -0.9424 C   0  0  0  0  0  0  0  0  0  0  0  0
   -5.1243    2.7753    0.3465 C   0  0  0  0  0  0  0  0  0  0  0  0
   -4.4095    1.7573    0.9899 C   0  0  0  0  0  0  0  0  0  0  0  0
   -5.5283    4.0437    0.7357 O   0  0  0  0  0  0  0  0  0  0  0  0
   -6.0743    4.7538   -0.3626 C   0  0  0  0  0  0  0  0  0  0  0  0
   -6.2251    3.7218   -1.3172 O   0  0  0  0  0  0  0  0  0  0  0  0
  1  2  1  0
  2  3  1  0
  3  4  2  0
  4  5  1  0
  5  6  2  0
  6  7  1  0
  7  8  2  0
  7  9  1  0
  9 10  1  0
 10 11  2  0
 10 12  1  0
 12 13  1  0
 13 14  1  6
 13 15  1  0
 15 16  1  0
 16 17  1  0
 17 18  2  0
 18 19  1  0
 19 20  2  0
 20 21  1  0
 21 22  2  0
  9 23  2  0
 23 24  1  0
 23 25  1  0
 25 26  1  0
 26 27  1  0
 27 28  2  0
 28 29  1  0
 29 30  2  0
 30 31  1  0
 31 32  2  0
 31 33  1  0
 33 34  1  0
 34 35  1  0
  8  3  1  0
 22 17  1  0
 32 27  1  0
 25  6  1  0
 35 30  1  0
M  END
>  <zinc_id>  (1) 
ZINC000000763756

>  <smiles>  (1) 
COc1ccc2c(c1)c(C(=O)N[C@@H](C)CCc1ccccc1)c(C)n2Cc1ccc2c(c1)OCO2

$$$$
