
     RDKit          3D

 19 21  0  0  0  0  0  0  0  0999 V2000
    5.1969    1.6511   -0.4501 C   0  0  0  0  0  0  0  0  0  0  0  0
    4.8066    1.3418    0.9866 C   0  0  0  0  0  0  0  0  0  0  0  0
    4.8994   -0.1686    1.1745 C   0  0  0  0  0  0  0  0  0  0  0  0
    3.9397   -0.8049    0.1922 C   0  0  0  0  0  0  0  0  0  0  0  0
    2.6013   -0.3334    0.4730 N   0  0  0  0  0  0  0  0  0  0  0  0
    1.4885   -0.7701   -0.3002 C   0  0  0  0  0  0  0  0  0  0  0  0
    1.5804   -1.6228   -1.3158 N   0  0  0  0  0  0  0  0  0  0  0  0
    0.5048   -2.0123   -2.0235 C   0  0  0  0  0  0  0  0  0  0  0  0
   -0.7164   -1.5398   -1.7159 N   0  0  0  0  0  0  0  0  0  0  0  0
   -0.8663   -0.6812   -0.7057 C   0  0  0  0  0  0  0  0  0  0  0  0
    0.2318   -0.2813    0.0194 C   0  0  0  0  0  0  0  0  0  0  0  0
   -0.2097    0.5748    0.9630 N   0  0  0  0  0  0  0  0  0  0  0  0
   -1.5434    0.7201    0.8486 C   0  0  0  0  0  0  0  0  0  0  0  0
   -2.4936    1.4600    1.5401 C   0  0  0  0  0  0  0  0  0  0  0  0
   -3.8221    1.4085    1.1878 C   0  0  0  0  0  0  0  0  0  0  0  0
   -4.2726    0.6286    0.1423 C   0  0  0  0  0  0  0  0  0  0  0  0
   -5.9813    0.5958   -0.2702 Cl  0  0  0  0  0  0  0  0  0  0  0  0
   -3.3376   -0.1104   -0.5515 C   0  0  0  0  0  0  0  0  0  0  0  0
   -2.0062   -0.0557   -0.1947 C   0  0  0  0  0  0  0  0  0  0  0  0
  1  2  1  0
  2  3  1  0
  3  4  1  0
  4  5  1  0
  5  6  1  0
  6  7  2  0
  7  8  1  0
  8  9  2  0
  9 10  1  0
 10 11  2  0
 11 12  1  0
 12 13  1  0
 13 14  2  0
 14 15  1  0
 15 16  2  0
 16 17  1  0
 16 18  1  0
 18 19  2  0
 11  6  1  0
 19 13  1  0
 19 10  1  0
M  END
>  <zinc_id>  (1) 
ZINC000002333569

>  <smiles>  (1) 
CCCCNc1ncnc2c1[nH]c1ccc(Cl)cc12

$$$$
