
     RDKit          3D

 20 22  0  0  0  0  0  0  0  0999 V2000
   -4.8052    1.7094   -0.4907 C   0  0  0  0  0  0  0  0  0  0  0  0
   -4.1062    0.3105   -1.0467 C   0  0  1  0  0  0  0  0  0  0  0  0
   -2.6213    0.9717   -1.1204 C   0  0  0  0  0  0  0  0  0  0  0  0
   -1.9180    0.8732    0.1671 C   0  0  0  0  0  0  0  0  0  0  0  0
   -1.6589   -0.5974    0.3284 C   0  0  0  0  0  0  0  0  0  0  0  0
   -2.8530   -1.2515    0.4778 C   0  0  0  0  0  0  0  0  0  0  0  0
   -2.3812   -2.8779    0.6418 S   0  0  0  0  0  0  0  0  0  0  0  0
   -0.6895   -2.6885    0.5175 C   0  0  0  0  0  0  0  0  0  0  0  0
    0.3157   -3.7005    0.5767 N   0  0  0  0  0  0  0  0  0  0  0  0
   -0.5450   -1.3318    0.3482 C   0  0  0  0  0  0  0  0  0  0  0  0
    0.8121   -0.7421    0.1968 C   0  0  0  0  0  0  0  0  0  0  0  0
    1.8504   -1.4413    0.2170 O   0  0  0  0  0  0  0  0  0  0  0  0
    1.0060    0.6553    0.0198 N   0  0  0  0  0  0  0  0  0  0  0  0
    2.3144    1.2055   -0.1241 C   0  0  0  0  0  0  0  0  0  0  0  0
    3.4368    0.4104   -0.0976 C   0  0  0  0  0  0  0  0  0  0  0  0
    4.7032    0.9303   -0.2353 C   0  0  0  0  0  0  0  0  0  0  0  0
    4.8997    2.2846   -0.4074 C   0  0  0  0  0  0  0  0  0  0  0  0
    3.7722    3.0778   -0.4334 C   0  0  0  0  0  0  0  0  0  0  0  0
    2.5049    2.5573   -0.2955 C   0  0  0  0  0  0  0  0  0  0  0  0
   -4.0371   -0.3552    0.4451 C   0  0  0  0  0  0  0  0  0  0  0  0
  2  1  1  1
  2  3  1  0
  3  4  1  0
  4  5  1  0
  5  6  2  0
  6  7  1  0
  7  8  1  0
  8  9  1  0
  8 10  2  0
 10 11  1  0
 11 12  2  0
 11 13  1  0
 13 14  1  0
 14 15  2  0
 15 16  1  0
 16 17  2  0
 17 18  1  0
 18 19  2  0
  6 20  1  0
 20  2  1  0
 10  5  1  0
 19 14  1  0
M  END
>  <zinc_id>  (1) 
ZINC000000341187

>  <smiles>  (1) 
C[C@H]1CCc2c(sc(N)c2C(=O)Nc2ccccc2)C1

$$$$
