
     RDKit          3D

 21 23  0  0  0  0  0  0  0  0999 V2000
    0.6728   -0.8837   -0.3797 O   0  0  0  0  0  0  0  0  0  0  0  0
    0.9814    0.3026   -0.6592 C   0  0  0  0  0  0  0  0  0  0  0  0
   -0.0579    1.2638   -0.7141 N   0  0  0  0  0  0  0  0  0  0  0  0
   -1.3860    0.9740   -0.4792 N   0  0  0  0  0  0  0  0  0  0  0  0
   -1.8684    0.5091    0.6133 C   0  0  0  0  0  0  0  0  0  0  0  0
   -3.3112    0.2599    0.6846 C   0  0  0  0  0  0  0  0  0  0  0  0
   -4.1396    0.5142   -0.3873 C   0  0  0  0  0  0  0  0  0  0  0  0
   -5.4964    0.2768   -0.3114 C   0  0  0  0  0  0  0  0  0  0  0  0
   -6.0844   -0.2230    0.8333 C   0  0  0  0  0  0  0  0  0  0  0  0
   -7.4623   -0.4617    0.9036 O   0  0  0  0  0  0  0  0  0  0  0  0
   -5.2590   -0.4788    1.9080 C   0  0  0  0  0  0  0  0  0  0  0  0
   -3.9023   -0.2412    1.8316 C   0  0  0  0  0  0  0  0  0  0  0  0
    2.3940    0.6946   -0.9259 C   0  0  0  0  0  0  0  0  0  0  0  0
    2.6584    1.6279   -1.8860 C   0  0  0  0  0  0  0  0  0  0  0  0
    4.3553    1.7586   -1.8457 S   0  0  0  0  0  0  0  0  0  0  0  0
    4.6871    0.6296   -0.6157 C   0  0  0  0  0  0  0  0  0  0  0  0
    3.4465    0.1740   -0.2641 C   0  0  0  0  0  0  0  0  0  0  0  0
    3.4625   -0.8721    0.8448 C   0  0  0  0  0  0  0  0  0  0  0  0
    4.4968   -1.8946    0.4108 C   0  0  0  0  0  0  0  0  0  0  0  0
    5.8710   -1.3168    0.3942 C   0  0  0  0  0  0  0  0  0  0  0  0
    5.9418    0.1309    0.0443 C   0  0  0  0  0  0  0  0  0  0  0  0
  1  2  2  0
  2  3  1  0
  3  4  1  0
  4  5  2  0
  5  6  1  0
  6  7  2  0
  7  8  1  0
  8  9  2  0
  9 10  1  0
  9 11  1  0
 11 12  2  0
  2 13  1  0
 13 14  2  0
 14 15  1  0
 15 16  1  0
 16 17  2  0
 17 18  1  0
 18 19  1  0
 19 20  1  0
 20 21  1  0
 12  6  1  0
 17 13  1  0
 21 16  1  0
M  END
>  <zinc_id>  (1) 
ZINC000000510393

>  <smiles>  (1) 
O=C(N/N=C/c1ccc(O)cc1)c1csc2c1CCCC2

$$$$
