
     RDKit          3D

 31 34  0  0  0  0  0  0  0  0999 V2000
    9.2505    1.7567    0.0496 C   0  0  0  0  0  0  0  0  0  0  0  0
    8.4403    0.6853   -0.3272 O   0  0  0  0  0  0  0  0  0  0  0  0
    7.0700    0.6530   -0.1568 C   0  0  0  0  0  0  0  0  0  0  0  0
    6.3621   -0.4563   -0.5646 C   0  0  0  0  0  0  0  0  0  0  0  0
    4.9931   -0.4979   -0.3986 C   0  0  0  0  0  0  0  0  0  0  0  0
    4.2876    0.5621    0.1776 C   0  0  0  0  0  0  0  0  0  0  0  0
    2.8153    0.4412    0.3216 C   0  0  0  0  0  0  0  0  0  0  0  0
    2.1115    0.9802   -0.9101 C   0  0  0  0  0  0  0  0  0  0  0  0
    0.6803    0.8139   -0.6640 N   0  0  0  0  0  0  0  0  0  0  0  0
    0.1238   -0.4722   -0.4369 C   0  0  0  0  0  0  0  0  0  0  0  0
    0.8609   -1.4586   -0.4482 O   0  0  0  0  0  0  0  0  0  0  0  0
   -1.2984   -0.5808   -0.1985 C   0  0  0  0  0  0  0  0  0  0  0  0
   -2.1211    0.5257   -0.1864 C   0  0  0  0  0  0  0  0  0  0  0  0
   -1.5382    1.8797   -0.4250 C   0  0  0  0  0  0  0  0  0  0  0  0
   -3.4819    0.4025    0.0437 C   0  0  0  0  0  0  0  0  0  0  0  0
   -4.3577    1.5657    0.0582 C   0  0  0  0  0  0  0  0  0  0  0  0
   -5.5667    1.5539   -0.5942 C   0  0  0  0  0  0  0  0  0  0  0  0
   -6.4082    2.6716   -0.5802 C   0  0  0  0  0  0  0  0  0  0  0  0
   -6.0307    3.8106    0.0954 C   0  0  0  0  0  0  0  0  0  0  0  0
   -4.8342    3.8271    0.7429 C   0  0  0  0  0  0  0  0  0  0  0  0
   -3.9956    2.7083    0.7270 C   0  0  0  0  0  0  0  0  0  0  0  0
   -3.9589   -0.8380    0.2532 N   0  0  0  0  0  0  0  0  0  0  0  0
   -3.1773   -1.9528    0.2486 C   0  0  0  0  0  0  0  0  0  0  0  0
   -3.7142   -3.2021    0.4686 C   0  0  0  0  0  0  0  0  0  0  0  0
   -2.8808   -4.2961    0.4535 C   0  0  0  0  0  0  0  0  0  0  0  0
   -1.5187   -4.1970    0.2257 C   0  0  0  0  0  0  0  0  0  0  0  0
   -0.6940   -5.4336    0.2274 C   0  0  0  0  0  0  0  0  0  0  0  0
   -0.9654   -2.9470    0.0030 C   0  0  0  0  0  0  0  0  0  0  0  0
   -1.8241   -1.8577    0.0227 C   0  0  0  0  0  0  0  0  0  0  0  0
    5.0018    1.6566    0.5778 C   0  0  0  0  0  0  0  0  0  0  0  0
    6.3691    1.6960    0.4111 C   0  0  0  0  0  0  0  0  0  0  0  0
  1  2  1  0
  2  3  1  0
  3  4  2  0
  4  5  1  0
  5  6  2  0
  6  7  1  0
  7  8  1  0
  8  9  1  0
  9 10  1  0
 10 11  2  0
 10 12  1  0
 12 13  2  0
 13 14  1  0
 13 15  1  0
 15 16  1  0
 16 17  2  0
 17 18  1  0
 18 19  2  0
 19 20  1  0
 20 21  2  0
 15 22  2  0
 22 23  1  0
 23 24  2  0
 24 25  1  0
 25 26  2  0
 26 27  1  0
 26 28  1  0
 28 29  2  0
  6 30  1  0
 30 31  2  0
 31  3  1  0
 29 12  1  0
 21 16  1  0
 29 23  1  0
M  END
>  <zinc_id>  (1) 
ZINC000002867866

>  <smiles>  (1) 
COc1ccc(CCNC(=O)c2c(C)c(-c3ccccc3)nc3ccc(C)cc23)cc1

$$$$
