
     RDKit          3D

 21 22  0  0  0  0  0  0  0  0999 V2000
    5.3646    1.7269   -0.0675 C   0  0  0  0  0  0  0  0  0  0  0  0
    4.5772    0.4664    0.1078 C   0  0  0  0  0  0  0  0  0  0  0  0
    5.1458   -0.7545    0.2889 C   0  0  0  0  0  0  0  0  0  0  0  0
    4.3865   -1.9036    0.4481 C   0  0  0  0  0  0  0  0  0  0  0  0
    3.0146   -1.7906    0.4197 C   0  0  0  0  0  0  0  0  0  0  0  0
    2.1353   -2.9690    0.5837 C   0  0  0  0  0  0  0  0  0  0  0  0
    2.4057   -0.5453    0.2346 C   0  0  0  0  0  0  0  0  0  0  0  0
    0.9912   -0.4485    0.2070 N   0  0  0  0  0  0  0  0  0  0  0  0
    0.4128    0.8264    0.0169 C   0  0  0  0  0  0  0  0  0  0  0  0
    1.1534    1.8220   -0.1196 O   0  0  0  0  0  0  0  0  0  0  0  0
   -1.0496    0.9578   -0.0173 C   0  0  0  0  0  0  0  0  0  0  0  0
   -1.6116    2.2124   -0.2005 C   0  0  0  0  0  0  0  0  0  0  0  0
   -2.9824    2.3000   -0.2284 C   0  0  0  0  0  0  0  0  0  0  0  0
   -3.7867    1.1937   -0.0814 C   0  0  0  0  0  0  0  0  0  0  0  0
   -5.1364    1.2548   -0.1060 F   0  0  0  0  0  0  0  0  0  0  0  0
   -3.2355   -0.0728    0.1036 C   0  0  0  0  0  0  0  0  0  0  0  0
   -4.0730   -1.2194    0.2554 N   0  0  0  0  0  4  0  0  0  0  0  0
   -3.6942   -2.2221    0.8941 O   0  0  0  0  0  0  0  0  0  0  0  0
   -5.3433   -1.2500   -0.3088 O   0  0  0  0  0  1  0  0  0  0  0  0
   -1.8614   -0.1523    0.1301 C   0  0  0  0  0  0  0  0  0  0  0  0
    3.1870    0.5676    0.0809 C   0  0  0  0  0  0  0  0  0  0  0  0
  1  2  1  0
  2  3  2  0
  3  4  1  0
  4  5  2  0
  5  6  1  0
  5  7  1  0
  7  8  1  0
  8  9  1  0
  9 10  2  0
  9 11  1  0
 11 12  2  0
 12 13  1  0
 13 14  2  0
 14 15  1  0
 14 16  1  0
 16 17  1  0
 17 18  2  0
 17 19  1  0
 16 20  2  0
  7 21  2  0
 21  2  1  0
 20 11  1  0
M  CHG  2  17   1  19  -1
M  END
>  <zinc_id>  (1) 
ZINC000000258382

>  <smiles>  (1) 
Cc1ccc(C)c(NC(=O)c2ccc(F)c([N+](=O)[O-])c2)c1

$$$$
