
     RDKit          3D

 19 20  0  0  0  0  0  0  0  0999 V2000
   -2.0428   -2.0738   -2.0143 O   0  0  0  0  0  0  0  0  0  0  0  0
   -1.6643   -1.4442   -0.6830 S   0  0  0  0  0  0  0  0  0  0  0  0
   -1.8522   -2.4930    0.3885 O   0  0  0  0  0  0  0  0  0  0  0  0
   -0.0392   -0.9396   -0.8075 N   0  0  0  0  0  0  0  0  0  0  0  0
    0.7645   -0.9038    0.3091 N   0  0  0  0  0  0  0  0  0  0  0  0
    2.0567   -0.7209    0.2496 C   0  0  0  0  0  0  0  0  0  0  0  0
    2.6044   -0.7384    1.6310 C   0  0  0  0  0  0  0  0  0  0  0  0
    2.3912    0.6299    2.2402 C   0  0  0  0  0  0  0  0  0  0  0  0
    3.2688    1.6003    1.4652 C   0  0  0  0  0  0  0  0  0  0  0  0
    4.4523    0.8711    0.8338 C   0  0  0  0  0  0  0  0  0  0  0  0
    4.3847    0.9955   -0.6894 C   0  0  0  0  0  0  0  0  0  0  0  0
    3.9660   -0.3315   -1.2592 C   0  0  0  0  0  0  0  0  0  0  0  0
    2.4750   -0.5687   -1.1466 C   0  0  0  0  0  0  0  0  0  0  0  0
   -2.6680   -0.0680   -0.3608 C   0  0  0  0  0  0  0  0  0  0  0  0
   -3.2089    0.6487   -1.3884 C   0  0  0  0  0  0  0  0  0  0  0  0
   -4.0193    1.7596   -1.1342 C   0  0  0  0  0  0  0  0  0  0  0  0
   -4.2462    2.0969    0.1939 C   0  0  0  0  0  0  0  0  0  0  0  0
   -3.7064    1.3821    1.2419 C   0  0  0  0  0  0  0  0  0  0  0  0
   -2.9165    0.2978    0.9303 C   0  0  0  0  0  0  0  0  0  0  0  0
  1  2  2  0
  2  3  2  0
  2  4  1  0
  4  5  1  0
  5  6  2  3
  6  7  1  0
  7  8  1  0
  8  9  1  0
  9 10  1  0
 10 11  1  0
 11 12  1  0
 12 13  1  0
  2 14  1  0
 14 15  2  0
 15 16  1  0
 16 17  2  0
 17 18  1  0
 18 19  2  0
 13  6  1  0
 19 14  1  0
M  END
>  <zinc_id>  (1) 
ZINC000000452607

>  <smiles>  (1) 
O=S(=O)(NN=C1CCCCCCC1)c1ccccc1

$$$$
