
     RDKit          3D

 19 20  0  0  0  0  0  0  0  0999 V2000
   -6.5899    0.9611    0.7404 C   0  0  0  0  0  0  0  0  0  0  0  0
   -5.2377    0.6691    0.1802 C   0  0  0  0  0  0  0  0  0  0  0  0
   -4.6774    1.1352   -1.0012 C   0  0  0  0  0  0  0  0  0  0  0  0
   -3.4132    0.5808   -1.0695 C   0  0  0  0  0  0  0  0  0  0  0  0
   -2.3700    0.7405   -2.1127 C   0  0  0  0  0  0  0  0  0  0  0  0
   -3.2403   -0.1993    0.0607 C   0  0  0  0  0  0  0  0  0  0  0  0
   -2.0350   -0.9625    0.3796 C   0  0  0  0  0  0  0  0  0  0  0  0
   -0.9957   -0.9658   -0.3939 N   0  0  0  0  0  0  0  0  0  0  0  0
    0.1311   -1.7426    0.0105 N   0  0  0  0  0  0  0  0  0  0  0  0
    1.4206   -1.1301    0.0364 C   0  0  0  0  0  0  0  0  0  0  0  0
    2.3929   -1.3948   -0.9429 C   0  0  0  0  0  0  0  0  0  0  0  0
    3.6111   -0.7679   -0.8798 C   0  0  0  0  0  0  0  0  0  0  0  0
    3.9378    0.1019    0.0847 C   0  0  0  0  0  0  0  0  0  0  0  0
    5.1684    0.8044    0.2160 N   0  0  0  0  0  4  0  0  0  0  0  0
    5.3428    1.6550    1.1211 O   0  0  0  0  0  0  0  0  0  0  0  0
    6.1655    0.5170   -0.7031 O   0  0  0  0  0  1  0  0  0  0  0  0
    2.9764    0.3829    1.0778 C   0  0  0  0  0  0  0  0  0  0  0  0
    1.7632   -0.2437    1.0127 C   0  0  0  0  0  0  0  0  0  0  0  0
   -4.3505   -0.1412    0.8144 N   0  0  0  0  0  0  0  0  0  0  0  0
  1  2  1  0
  2  3  2  0
  3  4  1  0
  4  5  1  0
  4  6  2  0
  6  7  1  0
  7  8  2  0
  8  9  1  0
  9 10  1  0
 10 11  2  0
 11 12  1  0
 12 13  2  0
 13 14  1  0
 14 15  2  0
 14 16  1  0
 13 17  1  0
 17 18  2  0
  6 19  1  0
 19  2  1  0
 18 10  1  0
M  CHG  2  14   1  16  -1
M  END
>  <zinc_id>  (1) 
ZINC000004390362

>  <smiles>  (1) 
Cc1cc(C)c(/C=N/Nc2ccc([N+](=O)[O-])cc2)[nH]1

$$$$
