
     RDKit          3D

 33 36  0  0  0  0  0  0  0  0999 V2000
   -0.8443    2.9829    3.2859 C   0  0  0  0  0  0  0  0  0  0  0  0
   -0.1009    1.6717    3.1878 C   0  0  0  0  0  0  0  0  0  0  0  0
   -0.4514    0.9273    2.0525 O   0  0  0  0  0  0  0  0  0  0  0  0
   -1.7290    0.4821    1.7864 C   0  0  0  0  0  0  0  0  0  0  0  0
   -2.6212    0.7676    2.6180 O   0  0  0  0  0  0  0  0  0  0  0  0
   -2.0523   -0.3079    0.5630 C   0  0  0  0  0  0  0  0  0  0  0  0
   -1.0514   -0.6046   -0.3299 C   0  0  0  0  0  0  0  0  0  0  0  0
    0.3503   -0.2427   -0.2539 N   0  0  0  0  0  0  0  0  0  0  0  0
    1.2088   -0.6712   -1.3203 C   0  0  0  0  0  0  0  0  0  0  0  0
    0.7386   -1.3264   -2.2591 O   0  0  0  0  0  0  0  0  0  0  0  0
    2.6411   -0.3367   -1.3040 C   0  0  0  0  0  0  0  0  0  0  0  0
    3.2507   -0.8532   -2.4593 O   0  0  0  0  0  0  0  0  0  0  0  0
    2.8992    1.1266   -1.3065 C   0  0  0  0  0  0  0  0  0  0  0  0
    3.7856    1.7401   -2.1639 C   0  0  0  0  0  0  0  0  0  0  0  0
    4.0061    3.1125   -2.1402 C   0  0  0  0  0  0  0  0  0  0  0  0
    3.3075    3.8859   -1.2204 C   0  0  0  0  0  0  0  0  0  0  0  0
    2.4184    3.2993   -0.3548 C   0  0  0  0  0  0  0  0  0  0  0  0
    2.2160    1.9377   -0.3964 C   0  0  0  0  0  0  0  0  0  0  0  0
    3.3056   -1.0010   -0.1328 C   0  0  0  0  0  0  0  0  0  0  0  0
    4.6588   -1.0291   -0.0552 C   0  0  0  0  0  0  0  0  0  0  0  0
    5.2798   -1.6355    1.0125 C   0  0  0  0  0  0  0  0  0  0  0  0
    4.5416   -2.2345    2.0382 C   0  0  0  0  0  0  0  0  0  0  0  0
    3.1685   -2.1822    1.9173 C   0  0  0  0  0  0  0  0  0  0  0  0
    2.5438   -1.5773    0.8525 C   0  0  0  0  0  0  0  0  0  0  0  0
   -1.8564   -1.4957   -1.5395 S   0  0  0  0  0  0  0  0  0  0  0  0
   -3.4233   -1.4737   -0.8972 C   0  0  0  0  0  0  0  0  0  0  0  0
   -3.2878   -0.7691    0.2531 C   0  0  0  0  0  0  0  0  0  0  0  0
   -4.5727   -0.5914    1.0494 C   0  0  0  0  0  0  0  0  0  0  0  0
   -5.6534   -0.4283   -0.0192 C   0  0  0  0  0  0  0  0  0  0  0  0
   -6.9404   -0.0400    0.6305 C   0  0  0  0  0  0  0  0  0  0  0  0
   -5.2183    0.6036   -1.0317 C   0  0  0  0  0  0  0  0  0  0  0  0
   -5.7913   -1.6878   -0.5961 O   0  0  0  0  0  0  0  0  0  0  0  0
   -4.7263   -2.0491   -1.3745 C   0  0  0  0  0  0  0  0  0  0  0  0
  1  2  1  0
  2  3  1  0
  3  4  1  0
  4  5  2  0
  4  6  1  0
  6  7  2  0
  7  8  1  0
  8  9  1  0
  9 10  2  0
  9 11  1  0
 11 12  1  0
 11 13  1  0
 13 14  2  0
 14 15  1  0
 15 16  2  0
 16 17  1  0
 17 18  2  0
 11 19  1  0
 19 20  2  0
 20 21  1  0
 21 22  2  0
 22 23  1  0
 23 24  2  0
  7 25  1  0
 25 26  1  0
 26 27  2  0
 27 28  1  0
 28 29  1  0
 29 30  1  0
 29 31  1  0
 29 32  1  0
 32 33  1  0
 27  6  1  0
 18 13  1  0
 24 19  1  0
 33 26  1  0
M  END
>  <zinc_id>  (1) 
ZINC000002197338

>  <smiles>  (1) 
CCOC(=O)c1c(NC(=O)C(O)(c2ccccc2)c2ccccc2)sc2c1CC(C)(C)OC2

$$$$
