
     RDKit          3D

 31 34  0  0  0  0  0  0  0  0999 V2000
    6.5961   -0.1390   -0.0227 C   0  0  0  0  0  0  0  0  0  0  0  0
    6.2806   -1.4520    0.6761 C   0  0  0  0  0  0  0  0  0  0  0  0
    5.0589   -1.9224    0.1972 O   0  0  0  0  0  0  0  0  0  0  0  0
    3.8632   -1.2160    0.3136 C   0  0  0  0  0  0  0  0  0  0  0  0
    3.7760    0.0212    0.9156 C   0  0  0  0  0  0  0  0  0  0  0  0
    2.5505    0.6900    1.0070 C   0  0  0  0  0  0  0  0  0  0  0  0
    1.3968    0.1392    0.5024 C   0  0  0  0  0  0  0  0  0  0  0  0
    0.1362    0.8172    0.5926 N   0  0  0  0  0  0  0  0  0  0  0  0
   -1.0508    0.2363    0.0714 C   0  0  0  0  0  0  0  0  0  0  0  0
   -1.8186    0.7718   -0.8632 C   0  0  0  0  0  0  0  0  0  0  0  0
   -1.5104    2.3438   -1.6597 S   0  0  0  0  0  0  0  0  0  0  0  0
   -0.0222    3.1068   -1.0422 C   0  0  0  0  0  0  0  0  0  0  0  0
   -0.0436    3.9643    0.0511 C   0  0  0  0  0  0  0  0  0  0  0  0
    1.0859    4.5674    0.5473 C   0  0  0  0  0  0  0  0  0  0  0  0
    2.3132    4.3357   -0.0381 C   0  0  0  0  0  0  0  0  0  0  0  0
    3.5450    4.9893    0.4981 C   0  0  0  0  0  0  0  0  0  0  0  0
    2.3537    3.4871   -1.1240 C   0  0  0  0  0  0  0  0  0  0  0  0
    1.2111    2.8833   -1.6186 C   0  0  0  0  0  0  0  0  0  0  0  0
   -2.9442   -0.1010   -1.1457 C   0  0  0  0  0  0  0  0  0  0  0  0
   -3.8838    0.0515   -1.9605 O   0  0  0  0  0  0  0  0  0  0  0  0
   -2.8166   -1.2435   -0.2990 N   0  0  0  0  0  0  0  0  0  0  0  0
   -3.6857   -2.3731   -0.2186 C   0  0  0  0  0  0  0  0  0  0  0  0
   -3.2155   -3.6543   -0.3823 C   0  0  0  0  0  0  0  0  0  0  0  0
   -4.1304   -4.7084   -0.2899 C   0  0  0  0  0  0  0  0  0  0  0  0
   -5.4706   -4.5038   -0.0430 C   0  0  0  0  0  0  0  0  0  0  0  0
   -5.9185   -3.2164    0.1172 C   0  0  0  0  0  0  0  0  0  0  0  0
   -5.0249   -2.1539    0.0291 C   0  0  0  0  0  0  0  0  0  0  0  0
   -1.6309   -1.0339    0.4646 C   0  0  0  0  0  0  0  0  0  0  0  0
   -1.1798   -1.8369    1.3345 O   0  0  0  0  0  0  0  0  0  0  0  0
    1.4839   -1.0977   -0.0995 C   0  0  0  0  0  0  0  0  0  0  0  0
    2.6953   -1.7528   -0.1871 C   0  0  0  0  0  0  0  0  0  0  0  0
  1  2  1  0
  2  3  1  0
  3  4  1  0
  4  5  2  0
  5  6  1  0
  6  7  2  0
  7  8  1  0
  8  9  1  0
  9 10  2  0
 10 11  1  0
 11 12  1  0
 12 13  2  0
 13 14  1  0
 14 15  2  0
 15 16  1  0
 15 17  1  0
 17 18  2  0
 10 19  1  0
 19 20  2  0
 19 21  1  0
 21 22  1  0
 22 23  2  0
 23 24  1  0
 24 25  2  0
 25 26  1  0
 26 27  2  0
 21 28  1  0
 28 29  2  0
  7 30  1  0
 30 31  2  0
 31  4  1  0
 28  9  1  0
 18 12  1  0
 27 22  1  0
M  END
>  <zinc_id>  (1) 
ZINC000001938175

>  <smiles>  (1) 
CCOc1ccc(NC2=C(Sc3ccc(C)cc3)C(=O)N(c3ccccc3)C2=O)cc1

$$$$
