
     RDKit          3D

 21 23  0  0  0  0  0  0  0  0999 V2000
    4.4497    1.0124    1.7901 C   0  0  0  0  0  0  0  0  0  0  0  0
    3.2932    0.8556    0.8786 C   0  0  0  0  0  0  0  0  0  0  0  0
    2.3392   -0.1101    1.0012 C   0  0  0  0  0  0  0  0  0  0  0  0
    1.2884   -0.2273    0.1471 C   0  0  0  0  0  0  0  0  0  0  0  0
    0.2212   -1.2348    0.2059 C   0  0  0  0  0  0  0  0  0  0  0  0
   -1.1233   -0.6241    0.4135 C   0  0  0  0  0  0  0  0  0  0  0  0
   -2.2464   -1.3905    0.6424 C   0  0  0  0  0  0  0  0  0  0  0  0
   -3.4788   -0.7923    0.8337 C   0  0  0  0  0  0  0  0  0  0  0  0
   -3.6220    0.5772    0.8013 C   0  0  0  0  0  0  0  0  0  0  0  0
   -4.8776    1.0961    0.9998 O   0  0  0  0  0  0  0  0  0  0  0  0
   -2.4888    1.3689    0.5692 C   0  0  0  0  0  0  0  0  0  0  0  0
   -2.7174    2.8273    0.5469 C   0  0  0  0  0  0  0  0  0  0  0  0
   -1.3009    0.7427    0.3871 C   0  0  0  0  0  0  0  0  0  0  0  0
    0.5123   -2.3107    1.2496 C   0  0  0  0  0  0  0  0  0  0  0  0
   -0.5593   -3.3256    0.8689 C   0  0  0  0  0  0  0  0  0  0  0  0
   -0.5143   -3.3154   -0.6560 C   0  0  0  0  0  0  0  0  0  0  0  0
    0.1945   -2.0656   -1.0530 C   0  0  0  0  0  0  0  0  0  0  0  0
    1.2013    0.6964   -0.8978 C   0  0  0  0  0  0  0  0  0  0  0  0
    2.1240    1.6966   -1.0850 C   0  0  0  0  0  0  0  0  0  0  0  0
    3.1797    1.7591   -0.1699 C   0  0  0  0  0  0  0  0  0  0  0  0
    4.1251    2.7642   -0.3415 O   0  0  0  0  0  0  0  0  0  0  0  0
  1  2  1  0
  2  3  2  0
  3  4  1  0
  4  5  1  0
  5  6  1  0
  6  7  2  0
  7  8  1  0
  8  9  2  0
  9 10  1  0
  9 11  1  0
 11 12  1  0
 11 13  2  0
  5 14  1  0
 14 15  1  0
 15 16  1  0
 16 17  1  0
  4 18  2  0
 18 19  1  0
 19 20  2  0
 20 21  1  0
 20  2  1  0
 17  5  1  0
 13  6  1  0
M  END
>  <zinc_id>  (1) 
ZINC000001690791

>  <smiles>  (1) 
Cc1cc(C2(c3ccc(O)c(C)c3)CCCC2)ccc1O

$$$$
