
     RDKit          3D

 19 20  0  0  0  0  0  0  0  0999 V2000
    5.4401    0.8453   -0.3966 C   0  0  0  0  0  0  0  0  0  0  0  0
    4.8924   -0.1675   -1.3845 C   0  0  0  0  0  0  0  0  0  0  0  0
    4.1730   -1.2722   -0.3880 C   0  0  2  0  0  0  0  0  0  0  0  0
    3.6765   -2.2257   -1.6440 C   0  0  0  0  0  0  0  0  0  0  0  0
    2.7923   -0.4546   -0.2756 C   0  0  0  0  0  0  0  0  0  0  0  0
    2.2022    0.0073   -1.3781 C   0  0  0  0  0  0  0  0  0  0  0  0
    1.0172    0.7059   -1.2534 C   0  0  0  0  0  0  0  0  0  0  0  0
    0.4612    0.9178   -0.0125 C   0  0  0  0  0  0  0  0  0  0  0  0
   -0.7464    1.6272    0.1389 O   0  0  0  0  0  0  0  0  0  0  0  0
   -1.9292    0.8722    0.1014 C   0  0  0  0  0  0  0  0  0  0  0  0
   -1.9195   -0.4969   -0.0746 C   0  0  0  0  0  0  0  0  0  0  0  0
   -3.1257   -1.1899   -0.1030 C   0  0  0  0  0  0  0  0  0  0  0  0
   -3.0984   -2.5350   -0.2767 F   0  0  0  0  0  0  0  0  0  0  0  0
   -4.2909   -0.5236    0.0407 N   0  0  0  0  0  0  0  0  0  0  0  0
   -4.2945    0.8104    0.2119 C   0  0  0  0  0  0  0  0  0  0  0  0
   -5.5510    1.4835    0.3610 N   0  0  0  0  0  0  0  0  0  0  0  0
   -3.1270    1.4698    0.2379 N   0  0  0  0  0  0  0  0  0  0  0  0
    1.1179    0.4158    1.0912 C   0  0  0  0  0  0  0  0  0  0  0  0
    2.3097   -0.2896    0.9957 C   0  0  0  0  0  0  0  0  0  0  0  0
  1  2  1  0
  2  3  1  0
  3  4  1  6
  3  5  1  0
  5  6  2  0
  6  7  1  0
  7  8  2  0
  8  9  1  0
  9 10  1  0
 10 11  2  0
 11 12  1  0
 12 13  1  0
 12 14  2  0
 14 15  1  0
 15 16  1  0
 15 17  2  0
  8 18  1  0
 18 19  2  0
 19  5  1  0
 17 10  1  0
M  END
>  <zinc_id>  (1) 
ZINC000001100920

>  <smiles>  (1) 
CC[C@H](C)c1ccc(Oc2cc(F)nc(N)n2)cc1

$$$$
