
     RDKit          3D

 22 24  0  0  0  0  0  0  0  0999 V2000
    5.9455   -0.4386    0.2232 C   0  0  0  0  0  0  0  0  0  0  0  0
    5.0173    0.5003   -0.4952 C   0  0  0  0  0  0  0  0  0  0  0  0
    4.6729    0.0860   -1.8852 C   0  0  0  0  0  0  0  0  0  0  0  0
    3.8375    0.7901    0.3848 C   0  0  0  0  0  0  0  0  0  0  0  0
    3.1194   -0.6816    0.6691 C   0  0  2  0  0  0  0  0  0  0  0  0
    2.8574   -0.9175   -0.8817 N   0  0  0  0  0  0  0  0  0  0  0  0
    1.5257   -1.3522   -0.9285 C   0  0  0  0  0  0  0  0  0  0  0  0
    1.0726   -2.0849   -1.8488 O   0  0  0  0  0  0  0  0  0  0  0  0
    0.8170   -0.8496    0.1817 N   0  0  0  0  0  0  0  0  0  0  0  0
   -0.5878   -1.0518    0.5264 C   0  0  0  0  0  0  0  0  0  0  0  0
   -1.4135    0.0365   -0.1039 C   0  0  0  0  0  0  0  0  0  0  0  0
   -0.7853    1.0000   -0.8606 C   0  0  0  0  0  0  0  0  0  0  0  0
   -1.5870    1.9786   -1.4189 C   0  0  0  0  0  0  0  0  0  0  0  0
   -2.9592    2.0123   -1.2418 C   0  0  0  0  0  0  0  0  0  0  0  0
   -3.5697    1.0476   -0.4869 C   0  0  0  0  0  0  0  0  0  0  0  0
   -4.9320    1.0007   -0.2557 C   0  0  0  0  0  0  0  0  0  0  0  0
   -5.4716    0.0012    0.5129 C   0  0  0  0  0  0  0  0  0  0  0  0
   -4.6837   -0.9750    1.0716 C   0  0  0  0  0  0  0  0  0  0  0  0
   -3.3403   -0.9410    0.8520 C   0  0  0  0  0  0  0  0  0  0  0  0
   -2.7721    0.0611    0.0775 C   0  0  0  0  0  0  0  0  0  0  0  0
    1.6785   -0.0786    0.9689 C   0  0  0  0  0  0  0  0  0  0  0  0
    1.5584    0.8563    1.7512 O   0  0  0  0  0  0  0  0  0  0  0  0
  1  2  1  0
  2  3  1  0
  2  4  1  0
  5  4  1  6
  5  6  1  0
  6  7  1  0
  7  8  2  0
  7  9  1  0
  9 10  1  0
 10 11  1  0
 11 12  2  0
 12 13  1  0
 13 14  2  0
 14 15  1  0
 15 16  2  0
 16 17  1  0
 17 18  2  0
 18 19  1  0
 19 20  2  0
  9 21  1  0
 21 22  2  0
 21  5  1  0
 20 11  1  0
 20 15  1  0
M  END
>  <zinc_id>  (1) 
ZINC000003597007

>  <smiles>  (1) 
CC(C)C[C@@H]1NC(=O)N(Cc2cccc3ccccc23)C1=O

$$$$
