
     RDKit          3D

 30 34  0  0  0  0  0  0  0  0999 V2000
   -9.2392    1.9615    0.9182 C   0  0  0  0  0  0  0  0  0  0  0  0
   -8.9828    0.7235    0.3611 C   0  0  0  0  0  0  0  0  0  0  0  0
   -7.7159    0.3449   -0.0269 C   0  0  0  0  0  0  0  0  0  0  0  0
   -6.6894    1.2245    0.1470 C   0  0  0  0  0  0  0  0  0  0  0  0
   -5.2681    0.9602   -0.2236 C   0  0  0  0  0  0  0  0  0  0  0  0
   -4.5833    0.2397    0.7789 O   0  0  0  0  0  0  0  0  0  0  0  0
   -3.2494   -0.0766    0.6080 C   0  0  0  0  0  0  0  0  0  0  0  0
   -2.5246   -0.7826    1.5506 C   0  0  0  0  0  0  0  0  0  0  0  0
   -1.1789   -1.0593    1.3003 C   0  0  0  0  0  0  0  0  0  0  0  0
   -0.5297   -0.6682    0.1643 C   0  0  0  0  0  0  0  0  0  0  0  0
    0.8525   -0.9649   -0.0586 N   0  0  0  0  0  0  0  0  0  0  0  0
    1.8277   -0.1187   -0.3351 N   0  0  0  0  0  0  0  0  0  0  0  0
    3.0047   -0.7888   -0.4784 C   0  0  0  0  0  0  0  0  0  0  0  0
    4.2615   -0.0857   -0.7886 C   0  0  0  0  0  0  0  0  0  0  0  0
    5.1594    0.0639    0.4131 C   0  0  0  0  0  0  0  0  0  0  0  0
    6.3810    0.7412    0.1557 N   0  0  0  0  0  0  0  0  0  0  0  0
    7.3351    0.1068   -0.6515 C   0  0  0  0  0  0  0  0  0  0  0  0
    7.5642    0.9037   -1.9133 C   0  0  0  0  0  0  0  0  0  0  0  0
    8.2139    2.2034   -1.4917 C   0  0  0  0  0  0  0  0  0  0  0  0
    7.4608    2.8949   -0.3968 C   0  0  0  0  0  0  0  0  0  0  0  0
    6.3413    2.1493    0.1858 C   0  0  0  0  0  0  0  0  0  0  0  0
    2.6994   -2.1047   -0.2732 C   0  0  0  0  0  0  0  0  0  0  0  0
    1.3586   -2.2101   -0.0125 C   0  0  0  0  0  0  0  0  0  0  0  0
    0.9984   -3.5561    0.2032 N   0  0  0  0  0  0  0  0  0  0  0  0
    2.2103   -4.3234    0.3291 C   0  0  0  0  0  0  0  0  0  0  0  0
    3.2955   -3.4455   -0.2329 C   0  0  0  0  0  0  0  0  0  0  0  0
   -1.2570    0.0421   -0.7852 C   0  0  0  0  0  0  0  0  0  0  0  0
   -2.5986    0.3117   -0.5242 C   0  0  0  0  0  0  0  0  0  0  0  0
   -6.9479    2.4625    0.7045 C   0  0  0  0  0  0  0  0  0  0  0  0
   -8.1995    2.8507    1.0938 C   0  0  0  0  0  0  0  0  0  0  0  0
  1  2  2  0
  2  3  1  0
  3  4  2  0
  4  5  1  0
  5  6  1  0
  6  7  1  0
  7  8  2  0
  8  9  1  0
  9 10  2  0
 10 11  1  0
 11 12  1  0
 12 13  2  0
 13 14  1  0
 14 15  1  0
 15 16  1  0
 16 17  1  0
 17 18  1  0
 18 19  1  0
 19 20  1  0
 20 21  1  0
 13 22  1  0
 22 23  2  0
 23 24  1  0
 24 25  1  0
 25 26  1  0
 10 27  1  0
 27 28  2  0
  4 29  1  0
 29 30  2  0
 30  1  1  0
 28  7  1  0
 23 11  1  0
 21 16  1  0
 26 22  1  0
M  END
>  <zinc_id>  (1) 
ZINC000003707552

>  <smiles>  (1) 
c1ccc(COc2ccc(-n3nc(CCN4CCCCC4)c4c3NCC4)cc2)cc1

$$$$
