
     RDKit          3D

 20 22  0  0  0  0  0  0  0  0999 V2000
    5.6013    1.1801    0.5606 C   0  0  0  0  0  0  0  0  0  0  0  0
    4.2774    0.5908    0.3023 C   0  0  0  0  0  0  0  0  0  0  0  0
    3.4782   -0.1232    1.1268 N   0  0  0  0  0  0  0  0  0  0  0  0
    2.3495   -0.4612    0.4377 C   0  0  0  0  0  0  0  0  0  0  0  0
    1.2105   -1.1588    0.8454 C   0  0  0  0  0  0  0  0  0  0  0  0
    0.1918   -1.3271   -0.0399 C   0  0  0  0  0  0  0  0  0  0  0  0
   -1.0044   -1.9179    0.1812 N   0  0  0  0  0  0  0  0  0  0  0  0
   -2.2733   -1.6081    0.6240 C   0  0  0  0  0  0  0  0  0  0  0  0
   -2.8988   -0.3161    0.3692 C   0  0  0  0  0  0  0  0  0  0  0  0
   -2.8582    0.7683    1.2180 C   0  0  0  0  0  0  0  0  0  0  0  0
   -3.6750    1.9189    1.0860 C   0  0  0  0  0  0  0  0  0  0  0  0
   -4.5551    1.9237    0.0066 C   0  0  0  0  0  0  0  0  0  0  0  0
   -4.6162    0.8184   -0.8771 C   0  0  0  0  0  0  0  0  0  0  0  0
   -3.8269   -0.2409   -0.7099 C   0  0  0  0  0  0  0  0  0  0  0  0
   -3.8177   -1.3532   -1.5321 O   0  0  0  0  0  0  0  0  0  0  0  0
    0.3920   -0.7542   -1.3413 C   0  0  0  0  0  0  0  0  0  0  0  0
    1.5078   -0.0714   -1.7423 C   0  0  0  0  0  0  0  0  0  0  0  0
    2.5452    0.0916   -0.8230 C   0  0  0  0  0  0  0  0  0  0  0  0
    3.7035    0.7252   -0.9270 N   0  0  0  0  0  0  0  0  0  0  0  0
    4.2683    1.3152   -2.1576 C   0  0  0  0  0  0  0  0  0  0  0  0
  1  2  1  0
  2  3  2  0
  3  4  1  0
  4  5  2  0
  5  6  1  0
  6  7  1  0
  7  8  1  0
  8  9  1  0
  9 10  2  0
 10 11  1  0
 11 12  2  0
 12 13  1  0
 13 14  2  0
 14 15  1  0
  6 16  2  0
 16 17  1  0
 17 18  2  0
 18 19  1  0
 19 20  1  0
 19  2  1  0
 18  4  1  0
 14  9  1  0
M  END
>  <zinc_id>  (1) 
ZINC000000519960

>  <smiles>  (1) 
Cc1nc2cc(NCc3ccccc3O)ccc2n1C

$$$$
