
     RDKit          3D

 19 20  0  0  0  0  0  0  0  0999 V2000
    6.9826    0.2511   -1.5832 C   0  0  0  0  0  0  0  0  0  0  0  0
    6.5984    0.4064   -0.1155 C   0  0  0  0  0  0  0  0  0  0  0  0
    5.1205    0.5613   -0.0097 C   0  0  0  0  0  0  0  0  0  0  0  0
    4.5440    1.8140   -0.0543 C   0  0  0  0  0  0  0  0  0  0  0  0
    3.1717    1.9519    0.0443 C   0  0  0  0  0  0  0  0  0  0  0  0
    2.3283    0.8704    0.1890 C   0  0  0  0  0  0  0  0  0  0  0  0
    0.8669    1.0567    0.2912 C   0  0  0  0  0  0  0  0  0  0  0  0
    0.0558    0.0938    0.4247 N   0  0  0  0  0  0  0  0  0  0  0  0
   -1.3367    0.2318    0.5250 N   0  0  0  0  0  0  0  0  0  0  0  0
   -2.2446   -0.7923    0.2192 C   0  0  0  0  0  0  0  0  0  0  0  0
   -1.7922   -1.8996   -0.1672 O   0  0  0  0  0  0  0  0  0  0  0  0
   -3.7049   -0.6197    0.3336 C   0  0  0  0  0  0  0  0  0  0  0  0
   -4.6923   -1.5141    0.0742 C   0  0  0  0  0  0  0  0  0  0  0  0
   -5.9056   -0.9073    0.3235 C   0  0  0  0  0  0  0  0  0  0  0  0
   -7.2809   -1.4591    0.1933 C   0  0  0  0  0  0  0  0  0  0  0  0
   -5.6051    0.3393    0.7271 N   0  0  0  0  0  0  0  0  0  0  0  0
   -4.2998    0.5196    0.7363 N   0  0  0  0  0  0  0  0  0  0  0  0
    2.9118   -0.3785    0.2328 C   0  0  0  0  0  0  0  0  0  0  0  0
    4.2821   -0.5257    0.1350 C   0  0  0  0  0  0  0  0  0  0  0  0
  1  2  1  0
  2  3  1  0
  3  4  2  0
  4  5  1  0
  5  6  2  0
  6  7  1  0
  7  8  2  0
  8  9  1  0
  9 10  1  0
 10 11  2  0
 10 12  1  0
 12 13  2  0
 13 14  1  0
 14 15  1  0
 14 16  2  0
 16 17  1  0
  6 18  1  0
 18 19  2  0
 19  3  1  0
 17 12  1  0
M  END
>  <zinc_id>  (1) 
ZINC000000445513

>  <smiles>  (1) 
CCc1ccc(/C=N/NC(=O)c2cc(C)n[nH]2)cc1

$$$$
