
     RDKit          3D

 29 31  0  0  0  0  0  0  0  0999 V2000
   -8.9047    0.4097   -3.4706 C   0  0  0  0  0  0  0  0  0  0  0  0
   -9.0938   -0.2594   -2.1096 C   0  0  0  0  0  0  0  0  0  0  0  0
   -7.7950   -0.5235   -1.5558 O   0  0  0  0  0  0  0  0  0  0  0  0
   -6.9037    0.4993   -1.3073 C   0  0  0  0  0  0  0  0  0  0  0  0
   -7.2669    1.6694   -1.5813 O   0  0  0  0  0  0  0  0  0  0  0  0
   -5.5861    0.2077   -0.7435 C   0  0  0  0  0  0  0  0  0  0  0  0
   -4.6815    1.2140   -0.4848 C   0  0  0  0  0  0  0  0  0  0  0  0
   -3.4225    0.9370    0.0512 C   0  0  0  0  0  0  0  0  0  0  0  0
   -3.0355   -0.3520    0.3425 C   0  0  0  0  0  0  0  0  0  0  0  0
   -1.7616   -0.6775    0.8879 N   0  0  0  0  0  0  0  0  0  0  0  0
   -0.8202    0.3544    1.1727 C   0  0  0  0  0  0  0  0  0  0  0  0
   -1.1651    1.5195    0.9270 O   0  0  0  0  0  0  0  0  0  0  0  0
    0.4871   -0.0014    1.7319 C   0  0  0  0  0  0  0  0  0  0  0  0
    0.8300   -1.3211    1.9323 C   0  0  0  0  0  0  0  0  0  0  0  0
    2.0596   -1.6715    2.4579 C   0  0  0  0  0  0  0  0  0  0  0  0
    2.9955   -0.7213    2.8044 C   0  0  0  0  0  0  0  0  0  0  0  0
    4.3197   -1.1394    3.3696 C   0  0  0  0  0  0  0  0  0  0  0  0
    5.4334   -1.3374    1.9251 S   0  0  0  0  0  0  0  0  0  0  0  0
    5.6434    0.3385    1.2249 C   0  0  0  0  0  0  0  0  0  0  0  0
    6.5288    0.3200    0.0414 C   0  0  0  0  0  0  0  0  0  0  0  0
    7.8964    0.4780    0.1024 C   0  0  0  0  0  0  0  0  0  0  0  0
    8.6431    0.4466   -1.0612 C   0  0  0  0  0  0  0  0  0  0  0  0
    8.0411    0.2610   -2.2686 C   0  0  0  0  0  0  0  0  0  0  0  0
    6.6776    0.1017   -2.3470 C   0  0  0  0  0  0  0  0  0  0  0  0
    5.9467    0.1335   -1.1977 C   0  0  0  0  0  0  0  0  0  0  0  0
    2.6608    0.6023    2.6072 C   0  0  0  0  0  0  0  0  0  0  0  0
    1.4201    0.9518    2.0771 C   0  0  0  0  0  0  0  0  0  0  0  0
   -3.9417   -1.3588    0.0834 C   0  0  0  0  0  0  0  0  0  0  0  0
   -5.2049   -1.0812   -0.4545 C   0  0  0  0  0  0  0  0  0  0  0  0
  1  2  1  0
  2  3  1  0
  3  4  1  0
  4  5  2  0
  4  6  1  0
  6  7  2  0
  7  8  1  0
  8  9  2  0
  9 10  1  0
 10 11  1  0
 11 12  2  0
 11 13  1  0
 13 14  2  0
 14 15  1  0
 15 16  2  0
 16 17  1  0
 17 18  1  0
 18 19  1  0
 19 20  1  0
 20 21  2  0
 21 22  1  0
 22 23  2  0
 23 24  1  0
 24 25  2  0
 16 26  1  0
 26 27  2  0
  9 28  1  0
 28 29  2  0
 29  6  1  0
 27 13  1  0
 25 20  1  0
M  END
>  <zinc_id>  (1) 
ZINC000001173893

>  <smiles>  (1) 
CCOC(=O)c1ccc(NC(=O)c2ccc(CSCc3ccccc3)cc2)cc1

$$$$
