
     RDKit          3D

 33 37  0  0  0  0  0  0  0  0999 V2000
    5.1014    3.1715   -2.1887 C   0  0  0  0  0  0  0  0  0  0  0  0
    5.9653    1.8875   -2.2317 C   0  0  0  0  0  0  0  0  0  0  0  0
    6.3089    1.5032   -0.8169 N   0  0  0  0  0  0  0  0  0  0  0  0
    7.3638    0.4435   -0.9488 C   0  0  0  0  0  0  0  0  0  0  0  0
    7.6720   -0.0891    0.4686 C   0  0  0  0  0  0  0  0  0  0  0  0
    5.3946    1.2904    0.0377 C   0  0  0  0  0  0  0  0  0  0  0  0
    4.4319    1.0536    0.9298 C   0  0  0  0  0  0  0  0  0  0  0  0
    3.1458    0.7223    0.4439 O   0  0  0  0  0  0  0  0  0  0  0  0
    2.5564   -0.1144   -0.3985 C   0  0  0  0  0  0  0  0  0  0  0  0
    2.7953   -1.0750   -1.3835 C   0  0  0  0  0  0  0  0  0  0  0  0
    1.9841   -1.8129   -2.0137 C   0  0  0  0  0  0  0  0  0  0  0  0
    0.5764   -1.8034   -1.7533 C   0  0  0  0  0  0  0  0  0  0  0  0
    0.1981   -0.8827   -0.7836 C   0  0  0  0  0  0  0  0  0  0  0  0
   -1.1401   -0.9394   -0.1426 C   0  0  0  0  0  0  0  0  0  0  0  0
   -2.2898   -0.4921   -0.6201 C   0  0  0  0  0  0  0  0  0  0  0  0
   -3.3946   -0.3609    0.2993 C   0  0  0  0  0  0  0  0  0  0  0  0
   -3.2899   -0.7221    1.5933 C   0  0  0  0  0  0  0  0  0  0  0  0
   -2.0725   -1.1941    2.0950 C   0  0  0  0  0  0  0  0  0  0  0  0
   -1.9107   -1.4368    3.4254 C   0  0  0  0  0  0  0  0  0  0  0  0
   -0.6765   -1.7469    4.0258 C   0  0  0  0  0  0  0  0  0  0  0  0
    0.4613   -1.7934    3.1742 C   0  0  0  0  0  0  0  0  0  0  0  0
    1.6296   -2.0260    3.7088 O   0  0  0  0  0  0  0  0  0  0  0  0
    0.1576   -1.5493    1.8435 C   0  0  0  0  0  0  0  0  0  0  0  0
   -0.9971   -1.2793    1.2531 C   0  0  0  0  0  0  0  0  0  0  0  0
   -4.4727    0.3947   -0.4527 C   0  0  0  0  0  0  0  0  0  0  0  0
   -5.6188    0.9615    0.1140 C   0  0  0  0  0  0  0  0  0  0  0  0
   -6.3393    1.7265   -0.7331 C   0  0  0  0  0  0  0  0  0  0  0  0
   -6.0459    1.9048   -2.0308 C   0  0  0  0  0  0  0  0  0  0  0  0
   -6.8791    2.5955   -2.8702 O   0  0  0  0  0  0  0  0  0  0  0  0
   -4.8386    1.3177   -2.6083 C   0  0  0  0  0  0  0  0  0  0  0  0
   -4.0954    0.5757   -1.6840 C   0  0  0  0  0  0  0  0  0  0  0  0
   -2.8169   -0.1817   -1.9484 C   0  0  0  0  0  0  0  0  0  0  0  0
    1.1354   -0.0487   -0.1380 C   0  0  0  0  0  0  0  0  0  0  0  0
  1  2  1  0
  2  3  1  0
  3  4  1  0
  4  5  1  0
  3  6  1  0
  6  7  1  0
  7  8  1  0
  8  9  1  0
  9 10  2  0
 10 11  1  0
 11 12  2  0
 12 13  1  0
 13 14  1  0
 14 15  2  0
 15 16  1  0
 16 17  2  0
 17 18  1  0
 18 19  2  0
 19 20  1  0
 20 21  2  0
 21 22  1  0
 21 23  1  0
 23 24  2  0
 16 25  1  0
 25 26  2  0
 26 27  1  0
 27 28  2  0
 28 29  1  0
 28 30  1  0
 30 31  2  0
 31 32  1  0
 13 33  2  0
 33  9  1  0
 24 14  1  0
 31 25  1  0
 32 15  1  0
 24 18  1  0
M  END
>  <zinc_id>  (1) 
ZINC000001910607

>  <smiles>  (1) 
CCN(CC)CCOc1cccc(-c2c3c(cc4ccc(O)cc24)-c2ccc(O)cc2C3)c1

$$$$
