
     RDKit          3D

 19 21  0  0  0  0  0  0  0  0999 V2000
   -1.8418    3.8747    0.1812 C   0  0  0  0  0  0  0  0  0  0  0  0
   -2.8353    2.8730    0.1003 O   0  0  0  0  0  0  0  0  0  0  0  0
   -2.4510    1.5432    0.1297 C   0  0  0  0  0  0  0  0  0  0  0  0
   -3.4356    0.5681    0.0496 C   0  0  0  0  0  0  0  0  0  0  0  0
   -3.0646   -0.7605    0.0779 C   0  0  0  0  0  0  0  0  0  0  0  0
   -1.7353   -1.1124    0.1844 C   0  0  0  0  0  0  0  0  0  0  0  0
   -0.7578   -0.1404    0.2640 C   0  0  0  0  0  0  0  0  0  0  0  0
   -1.1141    1.1704    0.2368 C   0  0  0  0  0  0  0  0  0  0  0  0
    0.4500   -0.7727    0.3604 C   0  0  0  0  0  0  0  0  0  0  0  0
    1.7394   -0.0438    0.4647 C   0  0  0  0  0  0  0  0  0  0  0  0
    2.2430    0.2931    1.6936 C   0  0  0  0  0  0  0  0  0  0  0  0
    3.7062    1.0953    1.2433 S   0  0  0  0  0  0  0  0  0  0  0  0
    3.5594    0.9385   -0.4443 C   0  0  0  0  0  0  0  0  0  0  0  0
    4.4251    1.3779   -1.5086 N   0  0  0  0  0  0  0  0  0  0  0  0
    2.4235    0.2944   -0.5817 N   0  0  0  0  0  0  0  0  0  0  0  0
    0.2244   -2.1218    0.3408 C   0  0  0  0  0  0  0  0  0  0  0  0
    1.2856   -3.1490    0.4249 C   0  0  0  0  0  0  0  0  0  0  0  0
   -1.1048   -2.3143    0.2337 N   0  0  0  0  0  0  0  0  0  0  0  0
   -1.7165   -3.6137    0.1832 C   0  0  0  0  0  0  0  0  0  0  0  0
  1  2  1  0
  2  3  1  0
  3  4  2  0
  4  5  1  0
  5  6  2  0
  6  7  1  0
  7  8  2  0
  7  9  1  0
  9 10  1  0
 10 11  2  0
 11 12  1  0
 12 13  1  0
 13 14  1  0
 13 15  2  0
  9 16  2  0
 16 17  1  0
 16 18  1  0
 18 19  1  0
  8  3  1  0
 15 10  1  0
 18  6  1  0
M  END
>  <zinc_id>  (1) 
ZINC000000314066

>  <smiles>  (1) 
COc1ccc2c(c1)c(-c1csc(N)n1)c(C)n2C

$$$$
