
     RDKit          3D

 19 21  0  0  0  0  0  0  0  0999 V2000
   -1.1738   -3.1377    1.2149 N   0  0  0  0  0  0  0  0  0  0  0  0
   -1.8559   -2.0411    0.5673 C   0  0  0  0  0  0  0  0  0  0  0  0
   -3.3672   -2.0949   -0.2207 S   0  0  0  0  0  0  0  0  0  0  0  0
   -3.4941   -0.4821   -0.7093 C   0  0  0  0  0  0  0  0  0  0  0  0
   -2.3449    0.0789   -0.2458 C   0  0  0  0  0  0  0  0  0  0  0  0
   -1.4749   -0.7301    0.4274 C   0  0  0  0  0  0  0  0  0  0  0  0
   -0.1773   -0.2675    0.9955 C   0  0  0  0  0  0  0  0  0  0  0  0
    0.5293   -1.1091    1.5894 O   0  0  0  0  0  0  0  0  0  0  0  0
    0.2390    1.0827    0.8654 N   0  0  0  0  0  0  0  0  0  0  0  0
    1.5010    1.4815    1.4316 C   0  0  0  0  0  0  0  0  0  0  0  0
    2.6468    1.0066    0.5759 C   0  0  0  0  0  0  0  0  0  0  0  0
    2.6437    1.2168   -0.7848 C   0  0  0  0  0  0  0  0  0  0  0  0
    3.7044    0.7743   -1.5481 C   0  0  0  0  0  0  0  0  0  0  0  0
    4.7706    0.1248   -0.9798 C   0  0  0  0  0  0  0  0  0  0  0  0
    4.7834   -0.0907    0.3826 C   0  0  0  0  0  0  0  0  0  0  0  0
    3.7236    0.3498    1.1548 C   0  0  0  0  0  0  0  0  0  0  0  0
   -2.4134    1.5444   -0.6653 C   0  0  0  0  0  0  0  0  0  0  0  0
   -3.8711    1.8136   -0.9162 C   0  0  0  0  0  0  0  0  0  0  0  0
   -4.3694    0.4797   -1.4255 C   0  0  0  0  0  0  0  0  0  0  0  0
  1  2  1  0
  2  3  1  0
  3  4  1  0
  4  5  2  0
  5  6  1  0
  6  7  1  0
  7  8  2  0
  7  9  1  0
  9 10  1  0
 10 11  1  0
 11 12  2  0
 12 13  1  0
 13 14  2  0
 14 15  1  0
 15 16  2  0
  5 17  1  0
 17 18  1  0
 18 19  1  0
  6  2  2  0
 16 11  1  0
 19  4  1  0
M  END
>  <zinc_id>  (1) 
ZINC000002558495

>  <smiles>  (1) 
Nc1sc2c(c1C(=O)NCc1ccccc1)CCC2

$$$$
