
     RDKit          3D

 19 21  0  0  0  0  0  0  0  0999 V2000
    5.5015    0.7632   -0.5779 C   0  0  0  0  0  0  0  0  0  0  0  0
    4.5927   -0.3505   -0.4143 N   0  0  0  0  0  0  0  0  0  0  0  0
    5.1627   -1.6787   -0.3498 C   0  0  0  0  0  0  0  0  0  0  0  0
    3.1675   -0.1475   -0.3183 C   0  0  0  0  0  0  0  0  0  0  0  0
    2.6144    1.1024   -0.3776 C   0  0  0  0  0  0  0  0  0  0  0  0
    1.2533    1.2966   -0.2860 C   0  0  0  0  0  0  0  0  0  0  0  0
    0.4108    0.2198   -0.1307 C   0  0  0  0  0  0  0  0  0  0  0  0
   -1.0239    0.4917   -0.0397 C   0  0  0  0  0  0  0  0  0  0  0  0
   -1.5176    1.7403   -0.1035 N   0  0  0  0  0  0  0  0  0  0  0  0
   -2.8456    1.9219   -0.0135 C   0  0  0  0  0  0  0  0  0  0  0  0
   -3.4636    3.4319   -0.0891 S   0  0  0  0  0  0  0  0  0  0  0  0
   -3.6820    0.8798    0.1385 N   0  0  0  0  0  0  0  0  0  0  0  0
   -3.2030   -0.3787    0.2043 C   0  0  0  0  0  0  0  0  0  0  0  0
   -1.8500   -0.6015    0.1157 C   0  0  0  0  0  0  0  0  0  0  0  0
   -1.5886   -2.0644    0.2155 C   0  0  0  0  0  0  0  0  0  0  0  0
   -2.9477   -2.7053   -0.0920 C   0  0  0  0  0  0  0  0  0  0  0  0
   -3.8429   -1.6573    0.3603 N   0  0  0  0  0  0  0  0  0  0  0  0
    0.9418   -1.0397   -0.0689 C   0  0  0  0  0  0  0  0  0  0  0  0
    2.3202   -1.2240   -0.1626 C   0  0  0  0  0  0  0  0  0  0  0  0
  1  2  1  0
  2  3  1  0
  2  4  1  0
  4  5  2  0
  5  6  1  0
  6  7  2  0
  7  8  1  0
  8  9  1  0
  9 10  1  0
 10 11  2  0
 10 12  1  0
 12 13  2  0
 13 14  1  0
 14 15  1  0
 15 16  1  0
 16 17  1  0
  7 18  1  0
 18 19  2  0
 19  4  1  0
 14  8  2  0
 17 13  1  0
M  END
>  <zinc_id>  (1) 
ZINC000003705708

>  <smiles>  (1) 
CN(C)c1ccc(-c2[nH]c(=S)nc3c2CCN3)cc1

$$$$
