
     RDKit          3D

 31 35  0  0  0  0  0  0  0  0999 V2000
    9.8033   -0.4437    0.8233 C   0  0  0  0  0  0  0  0  0  0  0  0
    8.6517    0.2170    1.2923 O   0  0  0  0  0  0  0  0  0  0  0  0
    7.4607    0.1211    0.5881 C   0  0  0  0  0  0  0  0  0  0  0  0
    7.3509   -0.6079   -0.5746 C   0  0  0  0  0  0  0  0  0  0  0  0
    6.1479   -0.6830   -1.2526 C   0  0  0  0  0  0  0  0  0  0  0  0
    5.0179   -0.0371   -0.7973 C   0  0  0  0  0  0  0  0  0  0  0  0
    3.7522   -0.1210   -1.5163 C   0  0  0  0  0  0  0  0  0  0  0  0
    2.5637    0.4793   -1.1618 C   0  0  0  0  0  0  0  0  0  0  0  0
    1.5940    0.1484   -2.1185 C   0  0  0  0  0  0  0  0  0  0  0  0
    0.2037    0.6242   -2.0502 C   0  0  0  0  0  0  0  0  0  0  0  0
    0.0819    1.8158   -1.1536 C   0  0  0  0  0  0  0  0  0  0  0  0
   -0.5220    1.5695    0.1683 C   0  0  0  0  0  0  0  0  0  0  0  0
   -1.1690    0.3535    0.3983 N   0  0  0  0  0  0  0  0  0  0  0  0
   -2.4266    0.3655    1.0600 C   0  0  0  0  0  0  0  0  0  0  0  0
   -3.4579    1.0107    0.1507 C   0  0  0  0  0  0  0  0  0  0  0  0
   -4.7540    1.0170    0.8589 C   0  0  0  0  0  0  0  0  0  0  0  0
   -5.2897    2.1441    1.4424 C   0  0  0  0  0  0  0  0  0  0  0  0
   -6.5173    2.0437    2.0881 C   0  0  0  0  0  0  0  0  0  0  0  0
   -7.2047    0.8615    2.1596 C   0  0  0  0  0  0  0  0  0  0  0  0
   -6.6721   -0.2671    1.5774 C   0  0  0  0  0  0  0  0  0  0  0  0
   -7.3589   -1.4744    1.6424 C   0  0  0  0  0  0  0  0  0  0  0  0
   -6.8251   -2.6011    1.0604 C   0  0  0  0  0  0  0  0  0  0  0  0
   -5.6149   -2.4876    0.4272 C   0  0  0  0  0  0  0  0  0  0  0  0
   -4.9178   -1.3044    0.3504 C   0  0  0  0  0  0  0  0  0  0  0  0
   -5.4624   -0.1789    0.9381 C   0  0  0  0  0  0  0  0  0  0  0  0
   -0.8304   -0.7838   -0.3603 C   0  0  0  0  0  0  0  0  0  0  0  0
   -0.8143   -0.4311   -1.8169 C   0  0  0  0  0  0  0  0  0  0  0  0
    2.2232   -0.6262   -2.9989 N   0  0  0  0  0  0  0  0  0  0  0  0
    3.4941   -0.7897   -2.6518 N   0  0  0  0  0  0  0  0  0  0  0  0
    5.1507    0.6859    0.3668 C   0  0  0  0  0  0  0  0  0  0  0  0
    6.3410    0.7748    1.0601 C   0  0  0  0  0  0  0  0  0  0  0  0
  1  2  1  0
  2  3  1  0
  3  4  2  0
  4  5  1  0
  5  6  2  0
  6  7  1  0
  7  8  2  0
  8  9  1  0
  9 10  1  0
 10 11  1  0
 11 12  1  0
 12 13  1  0
 13 14  1  0
 14 15  1  0
 15 16  1  0
 16 17  2  0
 17 18  1  0
 18 19  2  0
 19 20  1  0
 20 21  2  0
 21 22  1  0
 22 23  2  0
 23 24  1  0
 24 25  2  0
 13 26  1  0
 26 27  1  0
  9 28  2  0
 28 29  1  0
  6 30  1  0
 30 31  2  0
 31  3  1  0
 29  7  1  0
 27 10  1  0
 25 16  1  0
 25 20  1  0
M  END
>  <zinc_id>  (1) 
ZINC000000839544

>  <smiles>  (1) 
COc1ccc(-c2cc(C3CCN(CCc4cccc5ccccc45)CC3)n[nH]2)cc1

$$$$
