
     RDKit          3D

 24 26  0  0  0  0  0  0  0  0999 V2000
    3.2949    2.8420   -0.6769 C   0  0  0  0  0  0  0  0  0  0  0  0
    3.1078    1.4835   -0.3384 O   0  0  0  0  0  0  0  0  0  0  0  0
    1.8861    0.8527   -0.4380 C   0  0  0  0  0  0  0  0  0  0  0  0
    0.9382    1.5674   -0.8528 O   0  0  0  0  0  0  0  0  0  0  0  0
    1.6274   -0.5335   -0.1081 C   0  0  0  0  0  0  0  0  0  0  0  0
    2.5492   -1.3311    0.3240 C   0  0  0  0  0  0  0  0  0  0  0  0
    3.9239   -0.6593    0.4216 C   0  0  0  0  0  0  0  0  0  0  0  0
    2.4017   -2.6448    0.8607 N   0  0  0  0  0  0  0  0  0  0  0  0
    1.0372   -3.0651    0.9251 C   0  0  0  0  0  0  0  0  0  0  0  0
    0.7984   -4.2636    1.3896 O   0  0  0  0  0  0  0  0  0  0  0  0
    0.0247   -2.2333    0.5121 N   0  0  0  0  0  0  0  0  0  0  0  0
    0.2391   -1.1588   -0.4686 C   0  0  1  0  0  0  0  0  0  0  0  0
   -0.7652   -0.0428   -0.0125 C   0  0  0  0  0  0  0  0  0  0  0  0
   -0.6583    0.5971    1.1731 C   0  0  0  0  0  0  0  0  0  0  0  0
    0.3558    0.2770    2.0245 O   0  0  0  0  0  0  0  0  0  0  0  0
    0.5149    0.9136    3.2751 C   0  0  0  0  0  0  0  0  0  0  0  0
   -1.5552    1.5860    1.5679 C   0  0  0  0  0  0  0  0  0  0  0  0
   -2.5730    1.9035    0.7074 C   0  0  0  0  0  0  0  0  0  0  0  0
   -2.7104    1.2710   -0.5072 C   0  0  0  0  0  0  0  0  0  0  0  0
   -3.7477    1.6207   -1.3419 C   0  0  0  0  0  0  0  0  0  0  0  0
   -3.9064    1.0113   -2.5478 C   0  0  0  0  0  0  0  0  0  0  0  0
   -3.0229    0.0385   -2.9346 C   0  0  0  0  0  0  0  0  0  0  0  0
   -1.9881   -0.3015   -2.0877 C   0  0  0  0  0  0  0  0  0  0  0  0
   -1.7721    0.2696   -0.8666 C   0  0  0  0  0  0  0  0  0  0  0  0
  1  2  1  0
  2  3  1  0
  3  4  2  0
  3  5  1  0
  5  6  2  0
  6  7  1  0
  6  8  1  0
  8  9  1  0
  9 10  2  0
  9 11  1  0
 11 12  1  0
 12 13  1  1
 13 14  2  0
 14 15  1  0
 15 16  1  0
 14 17  1  0
 17 18  2  0
 18 19  1  0
 19 20  2  0
 20 21  1  0
 21 22  2  0
 22 23  1  0
 23 24  2  0
 12  5  1  0
 24 13  1  0
 24 19  1  0
M  END
>  <zinc_id>  (1) 
ZINC000000974832

>  <smiles>  (1) 
COC(=O)C1=C(C)NC(=O)N[C@H]1c1c(OC)ccc2ccccc12

$$$$
