
     RDKit          3D

 21 22  0  0  0  0  0  0  0  0999 V2000
    3.9985    3.3653    0.8254 C   0  0  0  0  0  0  0  0  0  0  0  0
    2.6878    3.2295    0.0853 C   0  0  0  0  0  0  0  0  0  0  0  0
    2.2730    1.8815    0.0568 O   0  0  0  0  0  0  0  0  0  0  0  0
    1.1247    1.4234   -0.5382 C   0  0  0  0  0  0  0  0  0  0  0  0
    0.3811    2.2668   -1.1033 O   0  0  0  0  0  0  0  0  0  0  0  0
    0.7835   -0.0146   -0.5097 C   0  0  0  0  0  0  0  0  0  0  0  0
    1.5775   -0.8216    0.0790 C   0  0  0  0  0  0  0  0  0  0  0  0
    2.8644   -0.3323    0.7496 C   0  0  0  0  0  0  0  0  0  0  0  0
    1.3849   -2.2259    0.1885 N   0  0  0  0  0  0  0  0  0  0  0  0
    2.3333   -3.0603    0.8711 C   0  0  0  0  0  0  0  0  0  0  0  0
    0.2129   -2.7427   -0.4112 C   0  0  0  0  0  0  0  0  0  0  0  0
    0.0022   -4.0024   -0.3350 O   0  0  0  0  0  0  0  0  0  0  0  0
   -0.6529   -1.9185   -1.0443 N   0  0  0  0  0  0  0  0  0  0  0  0
   -0.5113   -0.4478   -1.1938 C   0  0  1  0  0  0  0  0  0  0  0  0
   -1.6259    0.0044   -0.1197 C   0  0  0  0  0  0  0  0  0  0  0  0
   -1.5006   -0.2244    1.1768 C   0  0  0  0  0  0  0  0  0  0  0  0
   -2.5026    0.1964    2.0285 C   0  0  0  0  0  0  0  0  0  0  0  0
   -3.6138    0.8460    1.5170 C   0  0  0  0  0  0  0  0  0  0  0  0
   -3.7095    1.0654    0.1713 C   0  0  0  0  0  0  0  0  0  0  0  0
   -2.6891    0.6350   -0.6815 C   0  0  0  0  0  0  0  0  0  0  0  0
   -2.8180    0.8765   -2.0636 O   0  0  0  0  0  0  0  0  0  0  0  0
  1  2  1  0
  2  3  1  0
  3  4  1  0
  4  5  2  0
  4  6  1  0
  6  7  2  0
  7  8  1  0
  7  9  1  0
  9 10  1  0
  9 11  1  0
 11 12  2  0
 11 13  1  0
 13 14  1  0
 14 15  1  1
 15 16  2  0
 16 17  1  0
 17 18  2  0
 18 19  1  0
 19 20  2  0
 20 21  1  0
 14  6  1  0
 20 15  1  0
M  END
>  <zinc_id>  (1) 
ZINC000000036815

>  <smiles>  (1) 
CCOC(=O)C1=C(C)N(C)C(=O)N[C@H]1c1ccccc1O

$$$$
