
     RDKit          3D

 20 21  0  0  0  0  0  0  0  0999 V2000
   -0.1585   -1.7320    0.2665 O   0  0  0  0  0  0  0  0  0  0  0  0
   -0.1562   -0.5060    0.0402 C   0  0  0  0  0  0  0  0  0  0  0  0
    1.0519    0.1943    0.0468 N   0  0  0  0  0  0  0  0  0  0  0  0
    2.3630   -0.2583    0.2755 C   0  0  0  0  0  0  0  0  0  0  0  0
    2.6334   -1.7104    0.3392 C   0  0  0  0  0  0  0  0  0  0  0  0
    4.0437   -1.8985    0.9202 C   0  0  0  0  0  0  0  0  0  0  0  0
    5.0613   -1.0232    0.1965 C   0  0  0  0  0  0  0  0  0  0  0  0
    5.5900    0.0788    1.1090 C   0  0  0  0  0  0  0  0  0  0  0  0
    4.5377    1.1534    1.3355 C   0  0  0  0  0  0  0  0  0  0  0  0
    3.9416    1.5989    0.0023 C   0  0  0  0  0  0  0  0  0  0  0  0
    3.3772    0.3899   -0.6716 C   0  0  0  0  0  0  0  0  0  0  0  0
   -1.4602    0.1470   -0.2227 C   0  0  0  0  0  0  0  0  0  0  0  0
   -1.4379    1.3392   -0.9133 C   0  0  0  0  0  0  0  0  0  0  0  0
   -2.6009    2.0056   -1.1579 C   0  0  0  0  0  0  0  0  0  0  0  0
   -3.7895    1.4871   -0.7150 C   0  0  0  0  0  0  0  0  0  0  0  0
   -3.8570    0.2728   -0.0066 C   0  0  0  0  0  0  0  0  0  0  0  0
   -5.1200   -0.2229    0.4419 N   0  0  0  0  0  4  0  0  0  0  0  0
   -6.1355    0.4242    0.2075 O   0  0  0  0  0  0  0  0  0  0  0  0
   -5.2267   -1.3886    1.1279 O   0  0  0  0  0  1  0  0  0  0  0  0
   -2.6575   -0.3511    0.2080 C   0  0  0  0  0  0  0  0  0  0  0  0
  1  2  2  0
  2  3  1  0
  3  4  1  0
  4  5  1  0
  5  6  1  0
  6  7  1  0
  7  8  1  0
  8  9  1  0
  9 10  1  0
 10 11  1  0
  2 12  1  0
 12 13  2  0
 13 14  1  0
 14 15  2  0
 15 16  1  0
 16 17  1  0
 17 18  2  0
 17 19  1  0
 16 20  2  0
 11  4  1  0
 20 12  1  0
M  CHG  2  17   1  19  -1
M  END
>  <zinc_id>  (1) 
ZINC000003093817

>  <smiles>  (1) 
O=C(NC1CCCCCCC1)c1cccc([N+](=O)[O-])c1

$$$$
