
     RDKit          3D

 20 22  0  0  0  0  0  0  0  0999 V2000
   -4.8092   -2.7310   -0.7579 C   0  0  0  0  0  0  0  0  0  0  0  0
   -3.4959   -1.8257   -1.2367 C   0  0  2  0  0  0  0  0  0  0  0  0
   -2.7453   -2.0292    0.2385 C   0  0  0  0  0  0  0  0  0  0  0  0
   -1.4581   -1.3219    0.1079 C   0  0  0  0  0  0  0  0  0  0  0  0
   -1.7218    0.1143   -0.3417 C   0  0  0  0  0  0  0  0  0  0  0  0
   -2.9774    0.4734   -0.7143 C   0  0  0  0  0  0  0  0  0  0  0  0
   -2.8166    2.1117   -1.1255 S   0  0  0  0  0  0  0  0  0  0  0  0
   -1.1563    2.3130   -0.8169 C   0  0  0  0  0  0  0  0  0  0  0  0
   -0.3595    3.5208   -0.9708 N   0  0  0  0  0  0  0  0  0  0  0  0
   -0.7510    1.0782   -0.3918 C   0  0  0  0  0  0  0  0  0  0  0  0
    0.6789    0.8716   -0.0226 C   0  0  0  0  0  0  0  0  0  0  0  0
    1.4603    1.8312   -0.1130 O   0  0  0  0  0  0  0  0  0  0  0  0
    1.1441   -0.3897    0.4228 N   0  0  0  0  0  0  0  0  0  0  0  0
    2.5214   -0.4924    0.7522 C   0  0  0  0  0  0  0  0  0  0  0  0
    3.0271   -1.6904    1.1892 C   0  0  0  0  0  0  0  0  0  0  0  0
    4.3548   -1.7891    1.5067 C   0  0  0  0  0  0  0  0  0  0  0  0
    5.1922   -0.7128    1.3968 C   0  0  0  0  0  0  0  0  0  0  0  0
    4.7156    0.5047    0.9609 C   0  0  0  0  0  0  0  0  0  0  0  0
    3.3748    0.5843    0.6457 C   0  0  0  0  0  0  0  0  0  0  0  0
   -4.1779   -0.4209   -0.7299 C   0  0  0  0  0  0  0  0  0  0  0  0
  2  1  1  1
  2  3  1  0
  3  4  1  0
  4  5  1  0
  5  6  2  0
  6  7  1  0
  7  8  1  0
  8  9  1  0
  8 10  2  0
 10 11  1  0
 11 12  2  0
 11 13  1  0
 13 14  1  0
 14 15  2  0
 15 16  1  0
 16 17  2  0
 17 18  1  0
 18 19  2  0
  6 20  1  0
 20  2  1  0
 10  5  1  0
 19 14  1  0
M  END
>  <zinc_id>  (1) 
ZINC000000341188

>  <smiles>  (1) 
C[C@@H]1CCc2c(sc(N)c2C(=O)Nc2ccccc2)C1

$$$$
