
     RDKit          3D

 20 22  0  0  0  0  0  0  0  0999 V2000
    1.2259    0.2069   -3.2235 O   0  0  0  0  0  0  0  0  0  0  0  0
    1.5839    0.0388   -2.0149 C   0  0  0  0  0  0  0  0  0  0  0  0
    0.6602   -0.2578   -1.0418 C   0  0  0  0  0  0  0  0  0  0  0  0
    1.0633   -0.4364    0.2595 C   0  0  0  0  0  0  0  0  0  0  0  0
    0.1762   -0.7450    1.3272 N   0  0  0  0  0  0  0  0  0  0  0  0
   -1.2323   -0.8781    1.0218 C   0  0  0  0  0  0  0  0  0  0  0  0
   -1.7072    0.4420    0.4474 C   0  0  0  0  0  0  0  0  0  0  0  0
   -3.1562    0.2961    0.1362 C   0  0  0  0  0  0  0  0  0  0  0  0
   -3.6146    0.4515   -1.1007 C   0  0  0  0  0  0  0  0  0  0  0  0
   -5.0949    0.2809   -1.2967 C   0  0  0  0  0  0  0  0  0  0  0  0
   -5.7872    1.1466   -0.2889 C   0  0  0  0  0  0  0  0  0  0  0  0
   -5.2546    0.9749    1.1131 C   0  0  0  0  0  0  0  0  0  0  0  0
   -4.1338   -0.0270    1.1952 C   0  0  0  0  0  0  0  0  0  0  0  0
    2.4043   -0.3108    0.5553 C   0  0  0  0  0  0  0  0  0  0  0  0
    2.8369   -0.4858    1.8578 C   0  0  0  0  0  0  0  0  0  0  0  0
    4.1835   -0.3619    2.1676 C   0  0  0  0  0  0  0  0  0  0  0  0
    5.0896   -0.0613    1.1590 C   0  0  0  0  0  0  0  0  0  0  0  0
    4.6206    0.1071   -0.1342 C   0  0  0  0  0  0  0  0  0  0  0  0
    3.2953   -0.0102   -0.4648 C   0  0  0  0  0  0  0  0  0  0  0  0
    2.8409    0.1453   -1.6746 O   0  0  0  0  0  0  0  0  0  0  0  0
  1  2  2  0
  2  3  1  0
  3  4  2  0
  4  5  1  0
  5  6  1  0
  6  7  1  0
  7  8  1  0
  8  9  2  0
  9 10  1  0
 10 11  1  0
 11 12  1  0
 12 13  1  0
  4 14  1  0
 14 15  2  0
 15 16  1  0
 16 17  2  0
 17 18  1  0
 18 19  2  0
 19 20  1  0
 20  2  1  0
 13  8  1  0
 19 14  1  0
M  END
>  <zinc_id>  (1) 
ZINC000000103432

>  <smiles>  (1) 
O=c1cc(NCCC2=CCCCC2)c2ccccc2o1

$$$$
