
     RDKit          3D

 31 34  0  0  0  0  0  0  0  0999 V2000
    7.5062    1.0721    1.8782 C   0  0  0  0  0  0  0  0  0  0  0  0
    7.2307    0.3516    0.5740 C   0  0  0  0  0  0  0  0  0  0  0  0
    5.8570    0.0601    0.5185 O   0  0  0  0  0  0  0  0  0  0  0  0
    5.2354   -0.5928   -0.5198 C   0  0  0  0  0  0  0  0  0  0  0  0
    5.9052   -0.9636   -1.4892 O   0  0  0  0  0  0  0  0  0  0  0  0
    3.7857   -0.8281   -0.4387 C   0  0  0  0  0  0  0  0  0  0  0  0
    3.0459   -0.4090    0.6465 C   0  0  0  0  0  0  0  0  0  0  0  0
    1.6741   -0.6339    0.7215 C   0  0  0  0  0  0  0  0  0  0  0  0
    1.0069   -1.2777   -0.2755 C   0  0  0  0  0  0  0  0  0  0  0  0
   -0.3890   -1.5580   -0.2967 N   0  0  0  0  0  0  0  0  0  0  0  0
   -1.0991   -1.0120    1.0123 C   0  0  1  0  0  0  0  0  0  0  0  0
   -0.7352    0.5448    0.7620 C   0  0  0  0  0  0  0  0  0  0  0  0
   -0.5255    1.2841    1.8963 C   0  0  0  0  0  0  0  0  0  0  0  0
   -0.2069    2.6295    1.7388 C   0  0  0  0  0  0  0  0  0  0  0  0
   -0.1181    3.1511    0.4607 C   0  0  0  0  0  0  0  0  0  0  0  0
   -0.3370    2.3704   -0.6517 C   0  0  0  0  0  0  0  0  0  0  0  0
   -0.6491    1.0471   -0.4552 C   0  0  0  0  0  0  0  0  0  0  0  0
   -0.8714    0.2550   -1.5740 O   0  0  0  0  0  0  0  0  0  0  0  0
   -0.7849    0.7692   -2.8910 C   0  0  0  0  0  0  0  0  0  0  0  0
   -2.5649   -0.9797    0.4651 C   0  0  0  0  0  0  0  0  0  0  0  0
   -3.0788   -1.8563   -0.4038 C   0  0  0  0  0  0  0  0  0  0  0  0
   -2.4310   -3.0410   -1.0575 C   0  0  0  0  0  0  0  0  0  0  0  0
   -4.3862   -1.4853   -0.6275 N   0  0  0  0  0  0  0  0  0  0  0  0
   -4.6553   -0.3881    0.1067 C   0  0  0  0  0  0  0  0  0  0  0  0
   -5.7841    0.3793    0.2566 C   0  0  0  0  0  0  0  0  0  0  0  0
   -5.8033    1.4832    1.0943 C   0  0  0  0  0  0  0  0  0  0  0  0
   -4.6602    1.8117    1.7887 C   0  0  0  0  0  0  0  0  0  0  0  0
   -3.5224    1.0552    1.6503 C   0  0  0  0  0  0  0  0  0  0  0  0
   -3.4913   -0.0572    0.8110 C   0  0  0  0  0  0  0  0  0  0  0  0
    1.7369   -1.7012   -1.3657 C   0  0  0  0  0  0  0  0  0  0  0  0
    3.1099   -1.4804   -1.4491 C   0  0  0  0  0  0  0  0  0  0  0  0
  1  2  1  0
  2  3  1  0
  3  4  1  0
  4  5  2  0
  4  6  1  0
  6  7  2  0
  7  8  1  0
  8  9  2  0
  9 10  1  0
 11 10  1  6
 11 12  1  0
 12 13  2  0
 13 14  1  0
 14 15  2  0
 15 16  1  0
 16 17  2  0
 17 18  1  0
 18 19  1  0
 11 20  1  0
 20 21  2  0
 21 22  1  0
 21 23  1  0
 23 24  1  0
 24 25  2  0
 25 26  1  0
 26 27  2  0
 27 28  1  0
 28 29  2  0
  9 30  1  0
 30 31  2  0
 31  6  1  0
 17 12  1  0
 29 20  1  0
 29 24  1  0
M  END
>  <zinc_id>  (1) 
ZINC000001796973

>  <smiles>  (1) 
CCOC(=O)c1ccc(N[C@@H](c2ccccc2OC)c2c(C)[nH]c3ccccc23)cc1

$$$$
