
     RDKit          3D

 19 20  0  0  0  0  0  0  0  0999 V2000
    4.7235    1.6462    1.1064 C   0  0  0  0  0  0  0  0  0  0  0  0
    4.4742    0.2181    1.4960 C   0  0  0  0  0  0  0  0  0  0  0  0
    4.5096   -0.6555    0.1258 C   0  0  1  0  0  0  0  0  0  0  0  0
    4.2187   -2.0711    0.8911 C   0  0  0  0  0  0  0  0  0  0  0  0
    2.9994   -0.3982   -0.2678 C   0  0  0  0  0  0  0  0  0  0  0  0
    2.7225   -0.0692   -1.5713 C   0  0  0  0  0  0  0  0  0  0  0  0
    1.4038    0.1548   -1.9136 C   0  0  0  0  0  0  0  0  0  0  0  0
    0.3771    0.0586   -0.9986 C   0  0  0  0  0  0  0  0  0  0  0  0
   -0.9199    0.3000   -1.4276 O   0  0  0  0  0  0  0  0  0  0  0  0
   -2.0361    0.2389   -0.6348 C   0  0  0  0  0  0  0  0  0  0  0  0
   -2.3679    1.3566    0.1018 C   0  0  0  0  0  0  0  0  0  0  0  0
   -3.4872    1.3194    0.9073 C   0  0  0  0  0  0  0  0  0  0  0  0
   -3.8664    2.3979    1.6608 F   0  0  0  0  0  0  0  0  0  0  0  0
   -4.1992    0.1811    0.9282 N   0  0  0  0  0  0  0  0  0  0  0  0
   -3.8727   -0.9037    0.2100 C   0  0  0  0  0  0  0  0  0  0  0  0
   -4.6281   -2.1138    0.2314 N   0  0  0  0  0  0  0  0  0  0  0  0
   -2.7855   -0.8890   -0.5818 N   0  0  0  0  0  0  0  0  0  0  0  0
    0.7087   -0.2737    0.2930 C   0  0  0  0  0  0  0  0  0  0  0  0
    2.0255   -0.4975    0.6352 C   0  0  0  0  0  0  0  0  0  0  0  0
  1  2  1  0
  2  3  1  0
  3  4  1  1
  3  5  1  0
  5  6  2  0
  6  7  1  0
  7  8  2  0
  8  9  1  0
  9 10  1  0
 10 11  2  0
 11 12  1  0
 12 13  1  0
 12 14  2  0
 14 15  1  0
 15 16  1  0
 15 17  2  0
  8 18  1  0
 18 19  2  0
 19  5  1  0
 17 10  1  0
M  END
>  <zinc_id>  (1) 
ZINC000001100919

>  <smiles>  (1) 
CC[C@@H](C)c1ccc(Oc2cc(F)nc(N)n2)cc1

$$$$
