
     RDKit          3D

 19 20  0  0  0  0  0  0  0  0999 V2000
    5.8335    1.1783    0.1066 C   0  0  0  0  0  0  0  0  0  0  0  0
    4.5211    0.4851    0.1890 C   0  0  0  0  0  0  0  0  0  0  0  0
    3.8660    0.3314    1.3991 C   0  0  0  0  0  0  0  0  0  0  0  0
    2.6486   -0.3088    1.4937 C   0  0  0  0  0  0  0  0  0  0  0  0
    2.0341   -0.8244    0.3712 C   0  0  0  0  0  0  0  0  0  0  0  0
    0.4530   -1.6654    0.4354 S   0  0  0  0  0  0  0  0  0  0  0  0
   -0.8184   -0.4385    0.2116 C   0  0  0  0  0  0  0  0  0  0  0  0
   -0.5418    0.8950    0.0296 C   0  0  0  0  0  0  0  0  0  0  0  0
   -1.5112    1.8487   -0.1435 C   0  0  0  0  0  0  0  0  0  0  0  0
   -2.8358    1.4800   -0.1390 C   0  0  0  0  0  0  0  0  0  0  0  0
   -3.9424    2.4555   -0.3204 C   0  0  0  0  0  0  0  0  0  0  0  0
   -3.4473    3.7323   -0.4887 O   0  0  0  0  0  0  0  0  0  0  0  0
   -3.1391    0.1518    0.0414 C   0  0  0  0  0  0  0  0  0  0  0  0
   -2.1552   -0.8004    0.2148 C   0  0  0  0  0  0  0  0  0  0  0  0
   -2.4503   -2.1881    0.4041 N   0  0  0  0  0  4  0  0  0  0  0  0
   -3.5423   -2.4680    0.9157 O   0  0  0  0  0  0  0  0  0  0  0  0
   -1.5393   -3.1457    0.0236 O   0  0  0  0  0  1  0  0  0  0  0  0
    2.6764   -0.6816   -0.8632 C   0  0  0  0  0  0  0  0  0  0  0  0
    3.8904   -0.0371   -0.9202 C   0  0  0  0  0  0  0  0  0  0  0  0
  1  2  1  0
  2  3  2  0
  3  4  1  0
  4  5  2  0
  5  6  1  0
  6  7  1  0
  7  8  2  0
  8  9  1  0
  9 10  2  0
 10 11  1  0
 11 12  1  0
 10 13  1  0
 13 14  2  0
 14 15  1  0
 15 16  2  0
 15 17  1  0
  5 18  1  0
 18 19  2  0
 19  2  1  0
 14  7  1  0
M  CHG  2  15   1  17  -1
M  END
>  <zinc_id>  (1) 
ZINC000001036277

>  <smiles>  (1) 
Cc1ccc(Sc2ccc(CO)cc2[N+](=O)[O-])cc1

$$$$
