
     RDKit          3D

 33 36  0  0  0  0  0  0  0  0999 V2000
   -3.7401    2.0676    3.6051 C   0  0  0  0  0  0  0  0  0  0  0  0
   -2.5979    1.3970    4.3647 C   0  0  0  0  0  0  0  0  0  0  0  0
   -1.2486    1.8774    3.8686 C   0  0  0  0  0  0  0  0  0  0  0  0
   -1.0278    1.5919    2.4224 C   0  0  0  0  0  0  0  0  0  0  0  0
   -2.0513    2.2473    1.5204 C   0  0  0  0  0  0  0  0  0  0  0  0
   -1.7930    1.9339    0.0638 C   0  0  0  0  0  0  0  0  0  0  0  0
   -1.8386    0.4834   -0.2448 C   0  0  0  0  0  0  0  0  0  0  0  0
   -0.7936   -0.1183   -0.7394 C   0  0  0  0  0  0  0  0  0  0  0  0
    0.4869    0.3770   -1.0727 C   0  0  0  0  0  0  0  0  0  0  0  0
    0.7563    1.5864   -0.8982 O   0  0  0  0  0  0  0  0  0  0  0  0
    1.5755   -0.3785   -1.6165 N   0  0  0  0  0  0  0  0  0  0  0  0
    2.8471    0.1621   -1.9367 C   0  0  0  0  0  0  0  0  0  0  0  0
    2.8049    1.2586   -2.9659 C   0  0  0  0  0  0  0  0  0  0  0  0
    4.1512    1.7894   -3.2661 C   0  0  0  0  0  0  0  0  0  0  0  0
    4.5811    2.8482   -2.4931 C   0  0  0  0  0  0  0  0  0  0  0  0
    5.8382    3.4099   -2.7089 C   0  0  0  0  0  0  0  0  0  0  0  0
    6.6631    2.9184   -3.6909 C   0  0  0  0  0  0  0  0  0  0  0  0
    7.8697    3.4907   -3.8656 F   0  0  0  0  0  0  0  0  0  0  0  0
    6.2397    1.8657   -4.4619 C   0  0  0  0  0  0  0  0  0  0  0  0
    4.9816    1.2979   -4.2515 C   0  0  0  0  0  0  0  0  0  0  0  0
   -1.3336   -1.6027   -0.8471 C   0  0  1  0  0  0  0  0  0  0  0  0
   -1.5309   -2.0178    0.6142 C   0  0  0  0  0  0  0  0  0  0  0  0
   -0.5658   -1.6373    1.4841 C   0  0  0  0  0  0  0  0  0  0  0  0
   -0.6626   -1.9563    2.8623 C   0  0  0  0  0  0  0  0  0  0  0  0
   -1.7584   -2.6569    3.2755 C   0  0  0  0  0  0  0  0  0  0  0  0
   -2.7306   -3.0424    2.4082 C   0  0  0  0  0  0  0  0  0  0  0  0
   -3.8268   -3.7522    2.8182 C   0  0  0  0  0  0  0  0  0  0  0  0
   -4.7779   -4.1259    1.9013 C   0  0  0  0  0  0  0  0  0  0  0  0
   -4.6754   -3.8121    0.5624 C   0  0  0  0  0  0  0  0  0  0  0  0
   -3.5825   -3.0987    0.1250 C   0  0  0  0  0  0  0  0  0  0  0  0
   -2.6089   -2.7096    1.0314 C   0  0  0  0  0  0  0  0  0  0  0  0
   -2.7303   -1.2322   -1.2478 O   0  0  0  0  0  0  0  0  0  0  0  0
   -2.9208   -0.4620   -0.1066 N   0  0  0  0  0  0  0  0  0  0  0  0
  1  2  1  0
  2  3  1  0
  3  4  1  0
  4  5  1  0
  5  6  1  0
  6  7  1  0
  7  8  2  0
  8  9  1  0
  9 10  2  0
  9 11  1  0
 11 12  1  0
 12 13  1  0
 13 14  1  0
 14 15  2  0
 15 16  1  0
 16 17  2  0
 17 18  1  0
 17 19  1  0
 19 20  2  0
  8 21  1  0
 21 22  1  6
 22 23  2  0
 23 24  1  0
 24 25  2  0
 25 26  1  0
 26 27  2  0
 27 28  1  0
 28 29  2  0
 29 30  1  0
 30 31  2  0
 21 32  1  0
 32 33  1  0
 33  7  1  0
 20 14  1  0
 31 22  1  0
 31 26  1  0
M  END
>  <zinc_id>  (1) 
ZINC000002474197

>  <smiles>  (1) 
CCCCCCC1=C(C(=O)NCCc2ccc(F)cc2)[C@H](c2cccc3ccccc23)ON1

$$$$
