
     RDKit          3D

 21 22  0  0  0  0  0  0  0  0999 V2000
    5.3774    2.9254   -0.7782 C   0  0  0  0  0  0  0  0  0  0  0  0
    5.0132    2.4157    0.6146 C   0  0  0  0  0  0  0  0  0  0  0  0
    4.2224    1.1403    0.4798 C   0  0  0  0  0  0  0  0  0  0  0  0
    4.8411   -0.0861    0.4478 C   0  0  0  0  0  0  0  0  0  0  0  0
    4.1492   -1.2576    0.3265 C   0  0  0  0  0  0  0  0  0  0  0  0
    2.7798   -1.1856    0.2343 C   0  0  0  0  0  0  0  0  0  0  0  0
    2.1165    0.0156    0.2617 C   0  0  0  0  0  0  0  0  0  0  0  0
    0.7054    0.0483    0.1640 N   0  0  0  0  0  0  0  0  0  0  0  0
   -0.0166   -1.1628    0.0321 C   0  0  0  0  0  0  0  0  0  0  0  0
    0.6376   -2.2353    0.0064 O   0  0  0  0  0  0  0  0  0  0  0  0
   -1.4681   -1.2226   -0.0743 C   0  0  0  0  0  0  0  0  0  0  0  0
   -2.1540   -2.4118   -0.2016 C   0  0  0  0  0  0  0  0  0  0  0  0
   -3.5298   -2.4324   -0.2995 C   0  0  0  0  0  0  0  0  0  0  0  0
   -4.2808   -1.2860   -0.2760 C   0  0  0  0  0  0  0  0  0  0  0  0
   -3.6057   -0.0877   -0.1489 C   0  0  0  0  0  0  0  0  0  0  0  0
   -4.3591    1.1227   -0.1213 N   0  0  0  0  0  4  0  0  0  0  0  0
   -3.9915    2.1224    0.5250 O   0  0  0  0  0  0  0  0  0  0  0  0
   -5.5500    1.2593   -0.8153 O   0  0  0  0  0  1  0  0  0  0  0  0
   -2.2449   -0.0704   -0.0521 C   0  0  0  0  0  0  0  0  0  0  0  0
   -1.4891    1.2148    0.0864 C   0  0  0  0  0  0  0  0  0  0  0  0
    2.8470    1.1740    0.3848 C   0  0  0  0  0  0  0  0  0  0  0  0
  1  2  1  0
  2  3  1  0
  3  4  2  0
  4  5  1  0
  5  6  2  0
  6  7  1  0
  7  8  1  0
  8  9  1  0
  9 10  2  0
  9 11  1  0
 11 12  2  0
 12 13  1  0
 13 14  2  0
 14 15  1  0
 15 16  1  0
 16 17  2  0
 16 18  1  0
 15 19  2  0
 19 20  1  0
  7 21  2  0
 21  3  1  0
 19 11  1  0
M  CHG  2  16   1  18  -1
M  END
>  <zinc_id>  (1) 
ZINC000003473372

>  <smiles>  (1) 
CCc1cccc(NC(=O)c2cccc([N+](=O)[O-])c2C)c1

$$$$
