
     RDKit          2D

 21 24  0  0  0  0  0  0  0  0999 V2000
   -2.3745   -2.4765    0.0000 O   0  0  0  0  0  0  0  0  0  0  0  0
   -2.0737   -1.0070    0.0000 C   0  0  0  0  0  0  0  0  0  0  0  0
   -0.6506   -0.5328    0.0000 N   0  0  0  0  0  0  0  0  0  0  0  0
    0.4716   -1.5280    0.0000 N   0  0  0  0  0  0  0  0  0  0  0  0
    1.8947   -1.0538    0.0000 C   0  0  0  0  0  0  0  0  0  0  0  0
    2.1955    0.4157    0.0000 C   0  0  0  0  0  0  0  0  0  0  0  0
    3.3177   -0.5795    0.0000 C   0  0  0  0  0  0  0  0  0  0  0  0
    4.7408   -0.1053    0.0000 C   0  0  0  0  0  0  0  0  0  0  0  0
    4.4399   -1.5748    0.0000 C   0  0  0  0  0  0  0  0  0  0  0  0
    3.0169   -2.0491    0.0000 C   0  0  0  0  0  0  0  0  0  0  0  0
    4.3936    0.9365    0.0000 C   0  0  0  0  0  0  0  0  0  0  0  0
    3.9193    2.3595    0.0000 C   0  0  0  0  0  0  0  0  0  0  0  0
    2.4963    1.8853    0.0000 C   0  0  0  0  0  0  0  0  0  0  0  0
    5.0416    1.3642    0.0000 C   0  0  0  0  0  0  0  0  0  0  0  0
   -3.1959   -0.0117    0.0000 C   0  0  0  0  0  0  0  0  0  0  0  0
   -2.8951    1.4578    0.0000 C   0  0  0  0  0  0  0  0  0  0  0  0
   -4.0174    2.4531    0.0000 C   0  0  0  0  0  0  0  0  0  0  0  0
   -5.4404    1.9788    0.0000 C   0  0  0  0  0  0  0  0  0  0  0  0
   -5.7412    0.5093    0.0000 C   0  0  0  0  0  0  0  0  0  0  0  0
   -4.6190   -0.4860    0.0000 C   0  0  0  0  0  0  0  0  0  0  0  0
   -4.9198   -1.9555    0.0000 O   0  0  0  0  0  0  0  0  0  0  0  0
  1  2  2  0
  2  3  1  0
  3  4  1  0
  4  5  1  0
  5  6  2  0
  6  7  1  0
  8  7  1  6
  8  9  1  0
  9 10  1  0
 10 11  1  0
 12 11  1  1
 12 13  1  0
 12 14  1  0
  2 15  1  0
 15 16  2  0
 16 17  1  0
 17 18  2  0
 18 19  1  0
 19 20  2  0
 20 21  1  0
 10  5  1  0
 20 15  1  0
 13  6  1  0
 14  8  1  0
M  END
>  <zinc_id>  (1) 
ZINC000002267756

>  <smiles>  (1) 
O=C(NNC1=C2C[C@@H]3CC1C[C@H](C2)C3)c1ccccc1O

$$$$
