
     RDKit          3D

 19 21  0  0  0  0  0  0  0  0999 V2000
    5.3059    2.0501    0.0242 C   0  0  0  0  0  0  0  0  0  0  0  0
    4.0190    1.7364    0.6265 N   0  0  0  0  0  0  0  0  0  0  0  0
    3.1798    0.7755   -0.0238 C   0  0  0  0  0  0  0  0  0  0  0  0
    1.9973    0.3640    0.3985 N   0  0  0  0  0  0  0  0  0  0  0  0
    1.3388   -0.5261   -0.2696 C   0  0  0  0  0  0  0  0  0  0  0  0
    0.0305   -1.0772    0.1184 C   0  0  0  0  0  0  0  0  0  0  0  0
   -0.1342   -2.4400    0.4197 C   0  0  0  0  0  0  0  0  0  0  0  0
   -1.4094   -2.6510    0.7654 N   0  0  0  0  0  0  0  0  0  0  0  0
   -2.1018   -1.5116    0.7084 C   0  0  0  0  0  0  0  0  0  0  0  0
   -3.4073   -1.1368    0.9319 C   0  0  0  0  0  0  0  0  0  0  0  0
   -3.8230    0.1626    0.7637 C   0  0  0  0  0  0  0  0  0  0  0  0
   -2.9304    1.1607    0.3567 C   0  0  0  0  0  0  0  0  0  0  0  0
   -3.3816    2.4549    0.1932 O   0  0  0  0  0  0  0  0  0  0  0  0
   -2.5978    3.5442   -0.2128 C   0  0  0  0  0  0  0  0  0  0  0  0
   -1.6205    0.7723    0.1377 C   0  0  0  0  0  0  0  0  0  0  0  0
   -1.2061   -0.5295    0.3061 C   0  0  0  0  0  0  0  0  0  0  0  0
    1.9360   -1.0024   -1.4211 C   0  0  0  0  0  0  0  0  0  0  0  0
    1.4018   -2.0196   -2.3936 C   0  0  0  0  0  0  0  0  0  0  0  0
    3.4030   -0.1266   -1.4452 S   0  0  0  0  0  0  0  0  0  0  0  0
  1  2  1  0
  2  3  1  0
  3  4  2  0
  4  5  1  0
  5  6  1  0
  6  7  2  0
  7  8  1  0
  8  9  1  0
  9 10  2  0
 10 11  1  0
 11 12  2  0
 12 13  1  0
 13 14  1  0
 12 15  1  0
 15 16  2  0
  5 17  2  0
 17 18  1  0
 17 19  1  0
 19  3  1  0
 16  6  1  0
 16  9  1  0
M  END
>  <zinc_id>  (1) 
ZINC000002231288

>  <smiles>  (1) 
CNc1nc(-c2c[nH]c3ccc(OC)cc23)c(C)s1

$$$$
