
     RDKit          3D

 19 21  0  0  0  0  0  0  0  0999 V2000
    0.3069   -0.6850   -0.7647 O   0  0  0  0  0  0  0  0  0  0  0  0
    1.0834   -0.1394    0.0575 C   0  0  0  0  0  0  0  0  0  0  0  0
    0.5254    0.5984    1.1286 N   0  0  0  0  0  0  0  0  0  0  0  0
   -0.8753    0.7326    1.2946 N   0  0  0  0  0  0  0  0  0  0  0  0
   -1.6427    1.1302    0.1612 C   0  0  0  0  0  0  0  0  0  0  0  0
   -2.8601    0.8658   -0.0729 C   0  0  0  0  0  0  0  0  0  0  0  0
   -3.7682    1.1269   -1.0468 C   0  0  0  0  0  0  0  0  0  0  0  0
   -4.6972   -0.2093   -1.2445 C   0  0  2  0  0  0  0  0  0  0  0  0
   -5.8397    0.1876   -0.1326 C   0  0  0  0  0  0  0  0  0  0  0  0
   -5.0877    0.7820    0.8698 C   0  0  0  0  0  0  0  0  0  0  0  0
   -3.6555   -0.0142    1.0151 C   0  0  1  0  0  0  0  0  0  0  0  0
   -3.9540   -1.1448   -0.1311 C   0  0  0  0  0  0  0  0  0  0  0  0
    2.5188   -0.2866   -0.1287 C   0  0  0  0  0  0  0  0  0  0  0  0
    3.4359    0.3195    0.7263 C   0  0  0  0  0  0  0  0  0  0  0  0
    4.7747    0.1892    0.5649 C   0  0  0  0  0  0  0  0  0  0  0  0
    5.2750   -0.5505   -0.4557 C   0  0  0  0  0  0  0  0  0  0  0  0
    7.0086   -0.6952   -0.6315 Cl  0  0  0  0  0  0  0  0  0  0  0  0
    4.4018   -1.1758   -1.3373 C   0  0  0  0  0  0  0  0  0  0  0  0
    3.0499   -1.0314   -1.1563 C   0  0  0  0  0  0  0  0  0  0  0  0
  1  2  2  0
  2  3  1  0
  3  4  1  0
  4  5  1  0
  5  6  2  0
  6  7  1  0
  8  7  1  1
  8  9  1  0
  9 10  1  0
 11 10  1  6
 11 12  1  0
  2 13  1  0
 13 14  2  0
 14 15  1  0
 15 16  2  0
 16 17  1  0
 16 18  1  0
 18 19  2  0
 11  6  1  0
 19 13  1  0
 12  8  1  0
M  END
>  <zinc_id>  (1) 
ZINC000003158100

>  <smiles>  (1) 
O=C(NN/C=C1/C[C@@H]2CC[C@H]1C2)c1ccc(Cl)cc1

$$$$
