
     RDKit          3D

 31 34  0  0  0  0  0  0  0  0999 V2000
   -2.2628    5.3172    1.4251 C   0  0  0  0  0  0  0  0  0  0  0  0
   -3.0691    5.0858    0.1683 C   0  0  0  0  0  0  0  0  0  0  0  0
   -3.5114    3.7345    0.0825 O   0  0  0  0  0  0  0  0  0  0  0  0
   -2.6171    2.6815    0.0488 C   0  0  0  0  0  0  0  0  0  0  0  0
   -1.3905    2.9215    0.0948 O   0  0  0  0  0  0  0  0  0  0  0  0
   -3.0727    1.2985   -0.0391 C   0  0  0  0  0  0  0  0  0  0  0  0
   -4.3990    1.0554   -0.0879 C   0  0  0  0  0  0  0  0  0  0  0  0
   -4.8982   -0.1830   -0.1691 N   0  0  0  0  0  0  0  0  0  0  0  0
   -4.0400   -1.2180   -0.2028 C   0  0  0  0  0  0  0  0  0  0  0  0
   -4.5228   -2.5102   -0.2865 C   0  0  0  0  0  0  0  0  0  0  0  0
   -5.9878   -2.7222   -0.3374 C   0  0  0  0  0  0  0  0  0  0  0  0
   -3.6597   -3.5884   -0.3224 C   0  0  0  0  0  0  0  0  0  0  0  0
   -2.2921   -3.3806   -0.2744 C   0  0  0  0  0  0  0  0  0  0  0  0
   -1.3301   -4.5067   -0.3104 C   0  0  0  0  0  0  0  0  0  0  0  0
   -1.8314   -2.1067   -0.1923 C   0  0  0  0  0  0  0  0  0  0  0  0
   -2.6669   -1.0243   -0.1554 C   0  0  0  0  0  0  0  0  0  0  0  0
   -2.1441    0.2463   -0.0718 C   0  0  0  0  0  0  0  0  0  0  0  0
   -0.8321    0.6112   -0.0167 N   0  0  0  0  0  0  0  0  0  0  0  0
    0.4222    0.0417   -0.0143 C   0  0  0  0  0  0  0  0  0  0  0  0
    1.5435    0.9058    0.0630 C   0  0  0  0  0  0  0  0  0  0  0  0
    2.8205    0.4295    0.0711 C   0  0  0  0  0  0  0  0  0  0  0  0
    3.1069   -0.9144    0.0053 C   0  0  0  0  0  0  0  0  0  0  0  0
    4.4349   -1.4164    0.0134 N   0  0  0  0  0  0  0  0  0  0  0  0
    5.5051   -0.4933    0.0926 C   0  0  0  0  0  0  0  0  0  0  0  0
    6.8183   -0.9540    0.1025 C   0  0  0  0  0  0  0  0  0  0  0  0
    7.8816   -0.0790    0.1788 C   0  0  0  0  0  0  0  0  0  0  0  0
    7.6200    1.2609    0.2452 C   0  0  0  0  0  0  0  0  0  0  0  0
    6.3249    1.7325    0.2364 C   0  0  0  0  0  0  0  0  0  0  0  0
    5.2668    0.8412    0.1593 C   0  0  0  0  0  0  0  0  0  0  0  0
    2.0325   -1.7762   -0.0705 C   0  0  0  0  0  0  0  0  0  0  0  0
    0.7504   -1.2900   -0.0782 C   0  0  0  0  0  0  0  0  0  0  0  0
  1  2  1  0
  2  3  1  0
  3  4  1  0
  4  5  2  0
  4  6  1  0
  6  7  2  0
  7  8  1  0
  8  9  2  0
  9 10  1  0
 10 11  1  0
 10 12  2  0
 12 13  1  0
 13 14  1  0
 13 15  2  0
 15 16  1  0
 16 17  2  0
 17 18  1  0
 18 19  1  0
 19 20  2  0
 20 21  1  0
 21 22  2  0
 22 23  1  0
 23 24  1  0
 24 25  2  0
 25 26  1  0
 26 27  2  0
 27 28  1  0
 28 29  2  0
 22 30  1  0
 30 31  2  0
 17  6  1  0
 31 19  1  0
 16  9  1  0
 29 24  1  0
M  END
>  <zinc_id>  (1) 
ZINC000001912396

>  <smiles>  (1) 
CCOC(=O)c1cnc2c(C)cc(C)cc2c1Nc1ccc(Nc2ccccc2)cc1

$$$$
