
     RDKit          3D

 17 18  0  0  0  0  0  0  0  0999 V2000
    0.1918    0.3998   -0.6667 S   0  0  0  0  0  0  0  0  0  0  0  0
    0.5298   -1.1014   -0.1467 C   0  0  0  0  0  0  0  0  0  0  0  0
   -0.4259   -2.1205   -0.2953 N   0  0  0  0  0  0  0  0  0  0  0  0
   -1.7023   -1.8481   -0.8943 C   0  0  0  0  0  0  0  0  0  0  0  0
   -2.5321   -0.8807   -0.1698 C   0  0  0  0  0  0  0  0  0  0  0  0
   -3.2095   -1.2878    0.9654 C   0  0  0  0  0  0  0  0  0  0  0  0
   -3.9991   -0.4046    1.6577 C   0  0  0  0  0  0  0  0  0  0  0  0
   -4.1279    0.9161    1.2240 C   0  0  0  0  0  0  0  0  0  0  0  0
   -3.4259    1.2480    0.0895 C   0  0  0  0  0  0  0  0  0  0  0  0
   -2.6619    0.3830   -0.5755 N   0  0  0  0  0  0  0  0  0  0  0  0
    1.7859   -1.3562    0.4428 N   0  0  0  0  0  0  0  0  0  0  0  0
    2.7997   -0.3429    0.6173 C   0  0  0  0  0  0  0  0  0  0  0  0
    2.3233    0.7986    1.4795 C   0  0  0  0  0  0  0  0  0  0  0  0
    2.6511    2.1206    0.8192 C   0  0  0  0  0  0  0  0  0  0  0  0
    4.0725    2.2217    0.3714 C   0  0  0  0  0  0  0  0  0  0  0  0
    4.4801    1.0548   -0.4846 C   0  0  0  0  0  0  0  0  0  0  0  0
    3.2505    0.1998   -0.7301 C   0  0  0  0  0  0  0  0  0  0  0  0
  1  2  2  0
  2  3  1  0
  3  4  1  0
  4  5  1  0
  5  6  2  0
  6  7  1  0
  7  8  2  0
  8  9  1  0
  9 10  2  0
  2 11  1  0
 11 12  1  0
 12 13  1  0
 13 14  1  0
 14 15  1  0
 15 16  1  0
 16 17  1  0
 10  5  1  0
 17 12  1  0
M  END
>  <zinc_id>  (1) 
ZINC000000452022

>  <smiles>  (1) 
S=C(NCc1ccccn1)NC1CCCCC1

$$$$
