
     RDKit          3D

 33 36  0  0  0  0  0  0  0  0999 V2000
    9.3682    1.7685   -0.0047 C   0  0  0  0  0  0  0  0  0  0  0  0
    8.7077    2.5662   -1.0883 C   0  0  0  0  0  0  0  0  0  0  0  0
    7.8704    1.6288   -1.9655 C   0  0  0  0  0  0  0  0  0  0  0  0
    8.7839    0.5957   -2.5609 C   0  0  0  0  0  0  0  0  0  0  0  0
    7.1777    2.4018   -3.0496 C   0  0  0  0  0  0  0  0  0  0  0  0
    6.8717    0.9607   -1.0671 C   0  0  0  0  0  0  0  0  0  0  0  0
    6.7378   -0.4064   -0.9742 C   0  0  0  0  0  0  0  0  0  0  0  0
    5.7938   -0.9142   -0.1034 C   0  0  0  0  0  0  0  0  0  0  0  0
    4.9763   -0.1581    0.6795 C   0  0  0  0  0  0  0  0  0  0  0  0
    4.0505   -0.6149    1.5401 O   0  0  0  0  0  0  0  0  0  0  0  0
    2.7440   -0.9130    1.3013 C   0  0  0  0  0  0  0  0  0  0  0  0
    1.7513    0.0533    1.3288 C   0  0  0  0  0  0  0  0  0  0  0  0
    0.4264   -0.2810    1.0866 C   0  0  0  0  0  0  0  0  0  0  0  0
    0.0408   -1.5766    0.8107 C   0  0  0  0  0  0  0  0  0  0  0  0
   -1.2967   -1.9847    0.5696 N   0  0  0  0  0  0  0  0  0  0  0  0
   -2.3872   -1.0679    0.5004 C   0  0  0  0  0  0  0  0  0  0  0  0
   -2.1102    0.1488    0.6599 O   0  0  0  0  0  0  0  0  0  0  0  0
   -3.7811   -1.5650    0.2483 C   0  0  0  0  0  0  0  0  0  0  0  0
   -4.6424   -0.4458    0.1689 O   0  0  0  0  0  0  0  0  0  0  0  0
   -5.9938   -0.7534   -0.0454 C   0  0  0  0  0  0  0  0  0  0  0  0
   -6.4498   -2.0214   -0.1613 N   0  0  0  0  0  0  0  0  0  0  0  0
   -7.7535   -2.2778   -0.3669 C   0  0  0  0  0  0  0  0  0  0  0  0
   -8.6498   -1.2720   -0.4632 N   0  0  0  0  0  0  0  0  0  0  0  0
   -8.2653    0.0079   -0.3575 C   0  0  0  0  0  0  0  0  0  0  0  0
   -9.1369    1.0726   -0.4529 C   0  0  0  0  0  0  0  0  0  0  0  0
   -8.6918    2.3811   -0.3428 C   0  0  0  0  0  0  0  0  0  0  0  0
   -7.3535    2.6302   -0.1345 C   0  0  0  0  0  0  0  0  0  0  0  0
   -6.4906    1.5549   -0.0399 C   0  0  0  0  0  0  0  0  0  0  0  0
   -6.9207    0.2524   -0.1466 C   0  0  0  0  0  0  0  0  0  0  0  0
    1.0574   -2.5270    0.7887 C   0  0  0  0  0  0  0  0  0  0  0  0
    2.3793   -2.2301    1.0237 C   0  0  0  0  0  0  0  0  0  0  0  0
    5.1265    1.2264    0.5706 C   0  0  0  0  0  0  0  0  0  0  0  0
    6.0595    1.7597   -0.2903 C   0  0  0  0  0  0  0  0  0  0  0  0
  1  2  1  0
  2  3  1  0
  3  4  1  0
  3  5  1  0
  3  6  1  0
  6  7  2  0
  7  8  1  0
  8  9  2  0
  9 10  1  0
 10 11  1  0
 11 12  2  0
 12 13  1  0
 13 14  2  0
 14 15  1  0
 15 16  1  0
 16 17  2  0
 16 18  1  0
 18 19  1  0
 19 20  1  0
 20 21  2  0
 21 22  1  0
 22 23  2  0
 23 24  1  0
 24 25  2  0
 25 26  1  0
 26 27  2  0
 27 28  1  0
 28 29  2  0
 14 30  1  0
 30 31  2  0
  9 32  1  0
 32 33  2  0
 33  6  1  0
 31 11  1  0
 29 20  1  0
 29 24  1  0
M  END
>  <zinc_id>  (1) 
ZINC000003266774

>  <smiles>  (1) 
CCC(C)(C)c1ccc(Oc2ccc(NC(=O)COc3ncnc4ccccc34)cc2)cc1

$$$$
