
     RDKit          3D

 20 22  0  0  0  0  0  0  0  0999 V2000
    5.0319    2.5028    0.5536 C   0  0  0  0  0  0  0  0  0  0  0  0
    5.3758    1.0591    0.9078 C   0  0  0  0  0  0  0  0  0  0  0  0
    4.1643    0.3219    1.2492 N   0  0  0  0  0  0  0  0  0  0  0  0
    3.1527    0.2361    0.2204 C   0  0  0  0  0  0  0  0  0  0  0  0
    1.9753   -0.3675    0.2725 N   0  0  0  0  0  0  0  0  0  0  0  0
    1.1963   -0.3361   -0.7613 C   0  0  0  0  0  0  0  0  0  0  0  0
   -0.1369   -0.9984   -0.7550 C   0  0  0  0  0  0  0  0  0  0  0  0
   -0.4360   -2.2932   -1.1225 C   0  0  0  0  0  0  0  0  0  0  0  0
    0.5573   -3.2958   -1.6087 C   0  0  0  0  0  0  0  0  0  0  0  0
   -1.7559   -2.5010   -0.9721 N   0  0  0  0  0  0  0  0  0  0  0  0
   -2.3377   -1.3809   -0.5158 C   0  0  0  0  0  0  0  0  0  0  0  0
   -3.6396   -1.0747   -0.2030 C   0  0  0  0  0  0  0  0  0  0  0  0
   -3.9677    0.1977    0.2605 C   0  0  0  0  0  0  0  0  0  0  0  0
   -2.9863    1.1470    0.4045 C   0  0  0  0  0  0  0  0  0  0  0  0
   -3.3346    2.4212    0.8718 O   0  0  0  0  0  0  0  0  0  0  0  0
   -4.6465    2.7745    1.2015 C   0  0  0  0  0  0  0  0  0  0  0  0
   -1.6965    0.8125    0.0845 C   0  0  0  0  0  0  0  0  0  0  0  0
   -1.3418   -0.4434   -0.3781 C   0  0  0  0  0  0  0  0  0  0  0  0
    1.6460    0.3341   -1.8718 C   0  0  0  0  0  0  0  0  0  0  0  0
    3.1800    0.8841   -1.3532 S   0  0  0  0  0  0  0  0  0  0  0  0
  1  2  1  0
  2  3  1  0
  3  4  1  0
  4  5  2  0
  5  6  1  0
  6  7  1  0
  7  8  2  0
  8  9  1  0
  8 10  1  0
 10 11  1  0
 11 12  2  0
 12 13  1  0
 13 14  2  0
 14 15  1  0
 15 16  1  0
 14 17  1  0
 17 18  2  0
  6 19  2  0
 19 20  1  0
 20  4  1  0
 18  7  1  0
 18 11  1  0
M  END
>  <zinc_id>  (1) 
ZINC000002354761

>  <smiles>  (1) 
CCNc1nc(-c2c(C)[nH]c3ccc(OC)cc23)cs1

$$$$
