
     RDKit          3D

 32 35  0  0  0  0  0  0  0  0999 V2000
   -3.3782   -4.9423    0.4494 C   0  0  0  0  0  0  0  0  0  0  0  0
   -4.0423   -3.6911    0.6997 N   0  0  0  0  0  0  0  0  0  0  0  0
   -5.3185   -3.6734    1.3830 C   0  0  0  0  0  0  0  0  0  0  0  0
   -3.4661   -2.4663    0.2866 C   0  0  0  0  0  0  0  0  0  0  0  0
   -4.0827   -1.2409    0.5125 C   0  0  0  0  0  0  0  0  0  0  0  0
   -3.4696   -0.0813    0.0851 C   0  0  0  0  0  0  0  0  0  0  0  0
   -2.2542   -0.0814   -0.5661 C   0  0  0  0  0  0  0  0  0  0  0  0
   -1.6701    1.1825   -1.0006 C   0  0  0  0  0  0  0  0  0  0  0  0
   -0.4216    1.4655   -0.9381 C   0  0  0  0  0  0  0  0  0  0  0  0
    0.7744    0.7825   -0.4868 C   0  0  0  0  0  0  0  0  0  0  0  0
    1.9104    1.3516   -0.5593 O   0  0  0  0  0  0  0  0  0  0  0  0
    0.8156   -0.5108    0.0519 N   0  0  0  0  0  0  0  0  0  0  0  0
    2.0179   -1.1759    0.4976 C   0  0  0  0  0  0  0  0  0  0  0  0
    3.0216   -1.3246   -0.6383 C   0  0  0  0  0  0  0  0  0  0  0  0
    4.2064   -2.0142   -0.0669 C   0  0  0  0  0  0  0  0  0  0  0  0
    4.4497   -3.3304   -0.3108 C   0  0  0  0  0  0  0  0  0  0  0  0
    5.5391   -4.0177    0.1987 C   0  0  0  0  0  0  0  0  0  0  0  0
    6.4163   -3.3322    0.9899 C   0  0  0  0  0  0  0  0  0  0  0  0
    6.1921   -1.9979    1.2521 C   0  0  0  0  0  0  0  0  0  0  0  0
    5.0881   -1.3153    0.7317 C   0  0  0  0  0  0  0  0  0  0  0  0
    4.9111   -0.0016    1.0182 F   0  0  0  0  0  0  0  0  0  0  0  0
   -0.2788    2.9741   -1.5303 C   0  0  2  0  0  0  0  0  0  0  0  0
   -0.9630    3.7354   -0.3345 C   0  0  0  0  0  0  0  0  0  0  0  0
   -0.6263    3.3250    0.9116 C   0  0  0  0  0  0  0  0  0  0  0  0
   -1.1954    3.9567    2.0496 C   0  0  0  0  0  0  0  0  0  0  0  0
   -2.0834    4.9803    1.8356 C   0  0  0  0  0  0  0  0  0  0  0  0
   -2.4095    5.3786    0.5785 C   0  0  0  0  0  0  0  0  0  0  0  0
   -1.8369    4.7416   -0.4970 C   0  0  0  0  0  0  0  0  0  0  0  0
   -1.5228    2.8414   -2.4253 O   0  0  0  0  0  0  0  0  0  0  0  0
   -2.3783    2.2923   -1.5578 N   0  0  0  0  0  0  0  0  0  0  0  0
   -1.6907   -1.3136   -0.7629 C   0  0  0  0  0  0  0  0  0  0  0  0
   -2.2543   -2.4966   -0.3600 C   0  0  0  0  0  0  0  0  0  0  0  0
  1  2  1  0
  2  3  1  0
  2  4  1  0
  4  5  2  0
  5  6  1  0
  6  7  2  0
  7  8  1  0
  8  9  2  0
  9 10  1  0
 10 11  2  0
 10 12  1  0
 12 13  1  0
 13 14  1  0
 14 15  1  0
 15 16  2  0
 16 17  1  0
 17 18  2  0
 18 19  1  0
 19 20  2  0
 20 21  1  0
  9 22  1  0
 22 23  1  1
 23 24  2  0
 24 25  1  0
 25 26  2  0
 26 27  1  0
 27 28  2  0
 22 29  1  0
 29 30  1  0
  7 31  1  0
 31 32  2  0
 32  4  1  0
 30  8  1  0
 20 15  1  0
 28 23  1  0
M  END
>  <zinc_id>  (1) 
ZINC000003680809

>  <smiles>  (1) 
CN(C)c1ccc(C2=C(C(=O)NCCc3ccccc3F)[C@H](c3ccccc3)ON2)cc1

$$$$
