
     RDKit          3D

 20 22  0  0  0  0  0  0  0  0999 V2000
    4.1237    2.3428   -1.6496 C   0  0  0  0  0  0  0  0  0  0  0  0
    4.3314    0.9146   -1.7078 N   0  0  0  0  0  0  0  0  0  0  0  0
    3.3531    0.0645   -1.0890 C   0  0  0  0  0  0  0  0  0  0  0  0
    2.2541    0.4396   -0.4545 N   0  0  0  0  0  0  0  0  0  0  0  0
    1.4620   -0.4670    0.0563 C   0  0  0  0  0  0  0  0  0  0  0  0
    0.2144   -0.0763    0.7783 C   0  0  0  0  0  0  0  0  0  0  0  0
    0.0916    0.1824    2.1291 C   0  0  0  0  0  0  0  0  0  0  0  0
    1.1971    0.1214    3.1462 C   0  0  0  0  0  0  0  0  0  0  0  0
   -1.1715    0.5030    2.4248 N   0  0  0  0  0  0  0  0  0  0  0  0
   -1.8634    0.4528    1.2747 C   0  0  0  0  0  0  0  0  0  0  0  0
   -3.1893    0.6856    0.9822 C   0  0  0  0  0  0  0  0  0  0  0  0
   -3.6747    0.5681   -0.3024 C   0  0  0  0  0  0  0  0  0  0  0  0
   -2.8331    0.2106   -1.3355 C   0  0  0  0  0  0  0  0  0  0  0  0
   -3.3041    0.0852   -2.6479 O   0  0  0  0  0  0  0  0  0  0  0  0
   -4.6634    0.3258   -2.9364 C   0  0  0  0  0  0  0  0  0  0  0  0
   -1.5001   -0.0281   -1.0683 C   0  0  0  0  0  0  0  0  0  0  0  0
   -1.0280    0.0971    0.2444 C   0  0  0  0  0  0  0  0  0  0  0  0
    1.8221   -1.7770   -0.0976 C   0  0  0  0  0  0  0  0  0  0  0  0
    1.0968   -3.0096    0.3884 C   0  0  0  0  0  0  0  0  0  0  0  0
    3.2814   -1.6354   -0.9693 S   0  0  0  0  0  0  0  0  0  0  0  0
  1  2  1  0
  2  3  1  0
  3  4  2  0
  4  5  1  0
  5  6  1  0
  6  7  2  0
  7  8  1  0
  7  9  1  0
  9 10  1  0
 10 11  2  0
 11 12  1  0
 12 13  2  0
 13 14  1  0
 14 15  1  0
 13 16  1  0
 16 17  2  0
  5 18  2  0
 18 19  1  0
 18 20  1  0
 20  3  1  0
 17  6  1  0
 17 10  1  0
M  END
>  <zinc_id>  (1) 
ZINC000002223055

>  <smiles>  (1) 
CNc1nc(-c2c(C)[nH]c3ccc(OC)cc23)c(C)s1

$$$$
