
     RDKit          3D

 19 20  0  0  0  0  0  0  0  0999 V2000
   -4.3895    1.1906    0.9941 C   0  0  0  0  0  0  0  0  0  0  0  0
   -3.3310    0.3681    0.3115 C   0  0  0  0  0  0  0  0  0  0  0  0
   -2.1850   -0.0186    0.9692 C   0  0  0  0  0  0  0  0  0  0  0  0
   -1.2117   -0.7873    0.3190 C   0  0  0  0  0  0  0  0  0  0  0  0
   -0.0092   -1.1864    1.0685 C   0  0  0  0  0  0  0  0  0  0  0  0
    1.2084   -0.4096    0.7176 C   0  0  0  0  0  0  0  0  0  0  0  0
    2.1936   -0.9784   -0.0768 C   0  0  0  0  0  0  0  0  0  0  0  0
    3.3367   -0.3426   -0.4394 C   0  0  0  0  0  0  0  0  0  0  0  0
    4.3907   -0.9732   -1.2971 C   0  0  0  0  0  0  0  0  0  0  0  0
    3.5253    0.9518    0.0129 C   0  0  0  0  0  0  0  0  0  0  0  0
    4.7378    1.6246   -0.3779 N   0  0  0  0  0  0  0  0  0  0  0  0
    2.5837    1.5767    0.8055 C   0  0  0  0  0  0  0  0  0  0  0  0
    1.4328    0.8873    1.1516 C   0  0  0  0  0  0  0  0  0  0  0  0
    0.3797    1.5188    2.0040 C   0  0  0  0  0  0  0  0  0  0  0  0
   -1.4345   -1.1437   -0.9964 C   0  0  0  0  0  0  0  0  0  0  0  0
   -0.3686   -1.9608   -1.6435 C   0  0  0  0  0  0  0  0  0  0  0  0
   -2.5748   -0.7515   -1.6310 C   0  0  0  0  0  0  0  0  0  0  0  0
   -3.5461    0.0069   -1.0062 C   0  0  0  0  0  0  0  0  0  0  0  0
   -4.7384    0.4273   -1.6461 N   0  0  0  0  0  0  0  0  0  0  0  0
  1  2  1  0
  2  3  2  0
  3  4  1  0
  4  5  1  0
  5  6  1  0
  6  7  2  0
  7  8  1  0
  8  9  1  0
  8 10  2  0
 10 11  1  0
 10 12  1  0
 12 13  2  0
 13 14  1  0
  4 15  2  0
 15 16  1  0
 15 17  1  0
 17 18  2  0
 18 19  1  0
 18  2  1  0
 13  6  1  0
M  END
>  <zinc_id>  (1) 
ZINC000001666820

>  <smiles>  (1) 
Cc1cc(Cc2cc(C)c(N)cc2C)c(C)cc1N

$$$$
