
     RDKit          3D

 21 22  0  0  0  0  0  0  0  0999 V2000
    2.4807    1.7515    1.9635 C   0  0  0  0  0  0  0  0  0  0  0  0
    3.2700    0.9117    1.0212 C   0  0  0  0  0  0  0  0  0  0  0  0
    4.6569    0.9592    1.0697 C   0  0  0  0  0  0  0  0  0  0  0  0
    5.4085    0.1874    0.2020 C   0  0  0  0  0  0  0  0  0  0  0  0
    6.7708    0.2219    0.2371 F   0  0  0  0  0  0  0  0  0  0  0  0
    4.7214   -0.6089   -0.6883 C   0  0  0  0  0  0  0  0  0  0  0  0
    3.3426   -0.6572   -0.7376 C   0  0  0  0  0  0  0  0  0  0  0  0
    2.5890    0.1112    0.1264 C   0  0  0  0  0  0  0  0  0  0  0  0
    1.1806    0.1198    0.1419 N   0  0  0  0  0  0  0  0  0  0  0  0
    0.3574   -0.6369   -0.7052 C   0  0  0  0  0  0  0  0  0  0  0  0
    0.8618   -1.3827   -1.5451 O   0  0  0  0  0  0  0  0  0  0  0  0
   -1.0978   -0.5050   -0.5514 C   0  0  0  0  0  0  0  0  0  0  0  0
   -1.9863   -1.1994   -1.3585 C   0  0  0  0  0  0  0  0  0  0  0  0
   -3.3447   -1.0490   -1.1829 C   0  0  0  0  0  0  0  0  0  0  0  0
   -3.8811   -0.2103   -0.2072 C   0  0  0  0  0  0  0  0  0  0  0  0
   -5.2867   -0.0918   -0.0678 N   0  0  0  0  0  4  0  0  0  0  0  0
   -5.7433    0.1239    1.0651 O   0  0  0  0  0  0  0  0  0  0  0  0
   -6.1123   -0.2123   -1.1506 O   0  0  0  0  0  1  0  0  0  0  0  0
   -2.9985    0.4741    0.5883 C   0  0  0  0  0  0  0  0  0  0  0  0
   -3.5327    1.3802    1.6430 C   0  0  0  0  0  0  0  0  0  0  0  0
   -1.6561    0.3125    0.3996 C   0  0  0  0  0  0  0  0  0  0  0  0
  1  2  1  0
  2  3  2  0
  3  4  1  0
  4  5  1  0
  4  6  2  0
  6  7  1  0
  7  8  2  0
  8  9  1  0
  9 10  1  0
 10 11  2  0
 10 12  1  0
 12 13  2  0
 13 14  1  0
 14 15  2  0
 15 16  1  0
 16 17  2  0
 16 18  1  0
 15 19  1  0
 19 20  1  0
 19 21  2  0
  8  2  1  0
 21 12  1  0
M  CHG  2  16   1  18  -1
M  END
>  <zinc_id>  (1) 
ZINC000003559027

>  <smiles>  (1) 
Cc1cc(F)ccc1NC(=O)c1ccc([N+](=O)[O-])c(C)c1

$$$$
