
     RDKit          3D

 32 35  0  0  0  0  0  0  0  0999 V2000
   -2.4778    4.5314    1.5950 C   0  0  0  0  0  0  0  0  0  0  0  0
   -1.8645    5.5351    0.8188 O   0  0  0  0  0  0  0  0  0  0  0  0
   -0.9070    5.2211   -0.1065 C   0  0  0  0  0  0  0  0  0  0  0  0
   -0.3342    6.2336   -0.8429 C   0  0  0  0  0  0  0  0  0  0  0  0
    0.6387    6.0121   -1.7979 C   0  0  0  0  0  0  0  0  0  0  0  0
    1.0362    4.6988   -2.0018 C   0  0  0  0  0  0  0  0  0  0  0  0
    0.4889    3.6530   -1.2863 C   0  0  0  0  0  0  0  0  0  0  0  0
    0.9624    2.3415   -1.5677 N   0  0  0  0  0  0  0  0  0  0  0  0
    0.5035    1.1761   -0.9236 C   0  0  0  0  0  0  0  0  0  0  0  0
    1.3011    0.2087   -0.4133 C   0  0  0  0  0  0  0  0  0  0  0  0
    3.0676    0.2290   -0.4607 S   0  0  0  0  0  0  0  0  0  0  0  0
    3.8616   -1.1552    0.2781 C   0  0  0  0  0  0  0  0  0  0  0  0
    5.2692   -1.1594    0.2511 C   0  0  0  0  0  0  0  0  0  0  0  0
    5.9874   -2.1839    0.7953 C   0  0  0  0  0  0  0  0  0  0  0  0
    5.4120   -3.2681    1.3990 C   0  0  0  0  0  0  0  0  0  0  0  0
    6.1811   -4.3832    1.9916 C   0  0  0  0  0  0  0  0  0  0  0  0
    4.0126   -3.2664    1.4272 C   0  0  0  0  0  0  0  0  0  0  0  0
    3.2935   -2.2333    0.8783 C   0  0  0  0  0  0  0  0  0  0  0  0
    0.4299   -0.7921    0.1497 C   0  0  0  0  0  0  0  0  0  0  0  0
    0.7389   -1.8639    0.7271 O   0  0  0  0  0  0  0  0  0  0  0  0
   -0.9625   -0.4136   -0.0276 N   0  0  0  0  0  0  0  0  0  0  0  0
   -2.1286   -1.1606    0.4033 C   0  0  0  0  0  0  0  0  0  0  0  0
   -2.5022   -2.0802   -0.7489 C   0  0  0  0  0  0  0  0  0  0  0  0
   -3.6968   -2.9039   -0.4183 C   0  0  0  0  0  0  0  0  0  0  0  0
   -3.4852   -4.1346    0.1855 C   0  0  0  0  0  0  0  0  0  0  0  0
   -4.6060   -4.8813    0.4832 C   0  0  0  0  0  0  0  0  0  0  0  0
   -5.8893   -4.4753    0.2174 C   0  0  0  0  0  0  0  0  0  0  0  0
   -6.0815   -3.2376   -0.3886 C   0  0  0  0  0  0  0  0  0  0  0  0
   -4.9780   -2.4810   -0.6921 C   0  0  0  0  0  0  0  0  0  0  0  0
   -0.8782    0.8267   -0.7048 C   0  0  0  0  0  0  0  0  0  0  0  0
   -1.9206    1.4687   -1.0329 O   0  0  0  0  0  0  0  0  0  0  0  0
   -0.4724    3.9377   -0.3526 C   0  0  0  0  0  0  0  0  0  0  0  0
  1  2  1  0
  2  3  1  0
  3  4  2  0
  4  5  1  0
  5  6  2  0
  6  7  1  0
  7  8  1  0
  8  9  1  0
  9 10  2  0
 10 11  1  0
 11 12  1  0
 12 13  2  0
 13 14  1  0
 14 15  2  0
 15 16  1  0
 15 17  1  0
 17 18  2  0
 10 19  1  0
 19 20  2  0
 19 21  1  0
 21 22  1  0
 22 23  1  0
 23 24  1  0
 24 25  2  0
 25 26  1  0
 26 27  2  0
 27 28  1  0
 28 29  2  0
 21 30  1  0
 30 31  2  0
  7 32  2  0
 32  3  1  0
 30  9  1  0
 18 12  1  0
 29 24  1  0
M  END
>  <zinc_id>  (1) 
ZINC000000958654

>  <smiles>  (1) 
COc1cccc(NC2=C(Sc3ccc(C)cc3)C(=O)N(CCc3ccccc3)C2=O)c1

$$$$
