
     RDKit          3D

 33 37  0  0  0  0  0  0  0  0999 V2000
   -2.6233    3.1494   -4.6780 O   0  0  0  0  0  0  0  0  0  0  0  0
   -2.5660    2.5801   -3.4057 C   0  0  0  0  0  0  0  0  0  0  0  0
   -2.5038    3.3660   -2.2764 C   0  0  0  0  0  0  0  0  0  0  0  0
   -2.4469    2.8150   -1.0148 C   0  0  0  0  0  0  0  0  0  0  0  0
   -2.4502    1.4468   -0.8379 C   0  0  0  0  0  0  0  0  0  0  0  0
   -2.5103    0.6612   -1.9279 C   0  0  0  0  0  0  0  0  0  0  0  0
   -2.5693    1.2134   -3.2312 C   0  0  0  0  0  0  0  0  0  0  0  0
   -2.5187   -0.7516   -1.8554 O   0  0  0  0  0  0  0  0  0  0  0  0
   -2.3023   -1.3446   -0.5591 C   0  0  0  0  0  0  0  0  0  0  0  0
   -3.3162   -0.4971    0.3685 C   0  0  1  0  0  0  0  0  0  0  0  0
   -2.9519   -1.2185    1.7366 C   0  0  0  0  0  0  0  0  0  0  0  0
   -2.9840   -0.4003    2.8667 C   0  0  0  0  0  0  0  0  0  0  0  0
   -2.6837   -0.9630    4.0907 C   0  0  0  0  0  0  0  0  0  0  0  0
   -2.3629   -2.3001    4.1737 C   0  0  0  0  0  0  0  0  0  0  0  0
   -2.0593   -2.9024    5.3554 F   0  0  0  0  0  0  0  0  0  0  0  0
   -2.3440   -3.0736    3.0221 C   0  0  0  0  0  0  0  0  0  0  0  0
   -2.6441   -2.5130    1.7965 C   0  0  0  0  0  0  0  0  0  0  0  0
   -2.3895    0.8501    0.5597 C   0  0  1  0  0  0  0  0  0  0  0  0
   -0.9893    0.2641    0.6563 C   0  0  0  0  0  0  0  0  0  0  0  0
   -0.3427   -0.0809   -0.4869 C   0  0  0  0  0  0  0  0  0  0  0  0
    0.9518   -0.6263   -0.4813 C   0  0  0  0  0  0  0  0  0  0  0  0
    1.5629   -0.8071    0.7329 C   0  0  0  0  0  0  0  0  0  0  0  0
    2.8522   -1.3483    0.7728 O   0  0  0  0  0  0  0  0  0  0  0  0
    3.5327   -1.7101   -0.4096 C   0  0  0  0  0  0  0  0  0  0  0  0
    3.7118   -0.5230   -1.3093 C   0  0  0  0  0  0  0  0  0  0  0  0
    4.4854    0.5331   -0.6586 N   0  0  0  0  0  0  0  0  0  0  0  0
    4.6679    1.6690   -1.4991 C   0  0  0  0  0  0  0  0  0  0  0  0
    5.6817    1.4379   -2.5998 C   0  0  0  0  0  0  0  0  0  0  0  0
    6.9035    0.7056   -2.0764 C   0  0  0  0  0  0  0  0  0  0  0  0
    6.9243    0.7349   -0.5416 C   0  0  0  0  0  0  0  0  0  0  0  0
    5.6774    0.0412   -0.0343 C   0  0  0  0  0  0  0  0  0  0  0  0
    0.9442   -0.4715    1.9149 C   0  0  0  0  0  0  0  0  0  0  0  0
   -0.3371    0.0637    1.8366 C   0  0  0  0  0  0  0  0  0  0  0  0
  1  2  1  0
  2  3  2  0
  3  4  1  0
  4  5  2  0
  5  6  1  0
  6  7  2  0
  6  8  1  0
  8  9  1  0
  9 10  1  0
 10 11  1  1
 11 12  2  0
 12 13  1  0
 13 14  2  0
 14 15  1  0
 14 16  1  0
 16 17  2  0
 10 18  1  0
 18 19  1  1
 19 20  2  0
 20 21  1  0
 21 22  2  0
 22 23  1  0
 23 24  1  0
 24 25  1  0
 25 26  1  0
 26 27  1  0
 27 28  1  0
 28 29  1  0
 29 30  1  0
 30 31  1  0
 22 32  1  0
 32 33  2  0
  7  2  1  0
 17 11  1  0
 33 19  1  0
 18  5  1  0
 31 26  1  0
M  END
>  <zinc_id>  (1) 
ZINC000004392612

>  <smiles>  (1) 
Oc1ccc2c(c1)OC[C@@H](c1ccc(F)cc1)[C@@H]2c1ccc(OCCN2CCCCC2)cc1

$$$$
