
     RDKit          3D

 20 22  0  0  0  0  0  0  0  0999 V2000
    6.2495   -0.7895   -1.2059 C   0  0  0  0  0  0  0  0  0  0  0  0
    4.8856   -0.3464   -1.7019 C   0  0  0  0  0  0  0  0  0  0  0  0
    3.7639   -1.0045   -0.9438 C   0  0  0  0  0  0  0  0  0  0  0  0
    3.9212   -0.6118    0.5182 C   0  0  0  0  0  0  0  0  0  0  0  0
    2.8021   -1.2630    1.3021 C   0  0  0  0  0  0  0  0  0  0  0  0
    1.4985   -0.8648    0.8694 N   0  0  0  0  0  0  0  0  0  0  0  0
    0.8792   -1.5765   -0.0999 C   0  0  0  0  0  0  0  0  0  0  0  0
   -0.3438   -1.2721   -0.5647 N   0  0  0  0  0  0  0  0  0  0  0  0
   -0.9884   -0.2147   -0.0492 C   0  0  0  0  0  0  0  0  0  0  0  0
   -0.3981    0.5540    0.9512 C   0  0  0  0  0  0  0  0  0  0  0  0
   -1.2710    1.5286    1.2617 N   0  0  0  0  0  0  0  0  0  0  0  0
   -2.3714    1.3942    0.4975 C   0  0  0  0  0  0  0  0  0  0  0  0
   -3.5229    2.1235    0.4354 C   0  0  0  0  0  0  0  0  0  0  0  0
   -4.5361    1.7913   -0.4450 C   0  0  0  0  0  0  0  0  0  0  0  0
   -4.3686    0.6995   -1.2716 C   0  0  0  0  0  0  0  0  0  0  0  0
   -3.2328   -0.0617   -1.2458 C   0  0  0  0  0  0  0  0  0  0  0  0
   -3.0208   -1.4499   -2.2974 Cl  0  0  0  0  0  0  0  0  0  0  0  0
   -2.2376    0.3079   -0.3443 C   0  0  0  0  0  0  0  0  0  0  0  0
    0.8589    0.1972    1.3916 C   0  0  0  0  0  0  0  0  0  0  0  0
    1.4328    0.8586    2.2915 O   0  0  0  0  0  0  0  0  0  0  0  0
  1  2  1  0
  2  3  1  0
  3  4  1  0
  4  5  1  0
  5  6  1  0
  6  7  1  0
  7  8  2  0
  8  9  1  0
  9 10  2  0
 10 11  1  0
 11 12  1  0
 12 13  2  0
 13 14  1  0
 14 15  2  0
 15 16  1  0
 16 17  1  0
 16 18  2  0
 10 19  1  0
 19 20  2  0
 19  6  1  0
 18  9  1  0
 18 12  1  0
M  END
>  <zinc_id>  (1) 
ZINC000002213867

>  <smiles>  (1) 
CCCCCn1cnc2c([nH]c3cccc(Cl)c32)c1=O

$$$$
