
     RDKit          3D

 19 20  0  0  0  0  0  0  0  0999 V2000
   -5.4627    2.7670   -0.1938 C   0  0  0  0  0  0  0  0  0  0  0  0
   -5.5212    1.3271   -0.6962 C   0  0  0  0  0  0  0  0  0  0  0  0
   -4.4413    0.5794   -0.2284 O   0  0  0  0  0  0  0  0  0  0  0  0
   -3.1172    0.8669   -0.4807 C   0  0  0  0  0  0  0  0  0  0  0  0
   -2.8691    1.8761   -1.1832 O   0  0  0  0  0  0  0  0  0  0  0  0
   -2.0291   -0.0004    0.0689 C   0  0  0  0  0  0  0  0  0  0  0  0
   -0.7285    0.2616   -0.1649 C   0  0  0  0  0  0  0  0  0  0  0  0
    0.2057   -0.5647    0.3630 C   0  0  0  0  0  0  0  0  0  0  0  0
    1.6675   -0.4979    0.2563 C   0  0  0  0  0  0  0  0  0  0  0  0
    2.2975    0.4810   -0.4413 C   0  0  0  0  0  0  0  0  0  0  0  0
    3.7023    0.5232   -0.5287 C   0  0  0  0  0  0  0  0  0  0  0  0
    4.4411   -0.4506    0.1083 C   0  0  0  0  0  0  0  0  0  0  0  0
    5.8360   -0.4397    0.0428 O   0  0  0  0  0  0  0  0  0  0  0  0
    6.4801    0.5841   -0.6862 C   0  0  0  0  0  0  0  0  0  0  0  0
    3.8064   -1.4521    0.8216 C   0  0  0  0  0  0  0  0  0  0  0  0
    2.4035   -1.4659    0.8895 C   0  0  0  0  0  0  0  0  0  0  0  0
   -0.7585   -1.7204    1.1958 S   0  0  0  0  0  0  0  0  0  0  0  0
   -2.2997   -1.1037    0.8369 C   0  0  0  0  0  0  0  0  0  0  0  0
   -3.6126   -1.5707    1.2119 N   0  0  0  0  0  0  0  0  0  0  0  0
  1  2  1  0
  2  3  1  0
  3  4  1  0
  4  5  2  0
  4  6  1  0
  6  7  1  0
  7  8  2  0
  8  9  1  0
  9 10  2  0
 10 11  1  0
 11 12  2  0
 12 13  1  0
 13 14  1  0
 12 15  1  0
 15 16  2  0
  8 17  1  0
 17 18  1  0
 18 19  1  0
 18  6  2  0
 16  9  1  0
M  END
>  <zinc_id>  (1) 
ZINC000002541427

>  <smiles>  (1) 
CCOC(=O)c1cc(-c2ccc(OC)cc2)sc1N

$$$$
