
     RDKit          3D

 20 22  0  0  0  0  0  0  0  0999 V2000
   -4.7093   -2.0890    0.2537 C   0  0  0  0  0  0  0  0  0  0  0  0
   -3.8914   -0.8360    0.3855 C   0  0  0  0  0  0  0  0  0  0  0  0
   -4.0890    0.0522    1.4230 C   0  0  0  0  0  0  0  0  0  0  0  0
   -3.3511    1.2019    1.5587 C   0  0  0  0  0  0  0  0  0  0  0  0
   -2.3707    1.4846    0.6211 C   0  0  0  0  0  0  0  0  0  0  0  0
   -1.5096    2.5108    0.4958 N   0  0  0  0  0  0  0  0  0  0  0  0
   -0.7399    2.3391   -0.5937 C   0  0  0  0  0  0  0  0  0  0  0  0
   -1.1280    1.1567   -1.1835 C   0  0  0  0  0  0  0  0  0  0  0  0
   -0.5927    0.5118   -2.4132 C   0  0  0  0  0  0  0  0  0  0  0  0
    0.2903   -0.6507   -1.9476 C   0  0  0  0  0  0  0  0  0  0  0  0
    1.3346   -0.0636   -1.1325 N   0  0  0  0  0  0  0  0  0  0  0  0
    2.3595   -0.8470   -0.5162 C   0  0  0  0  0  0  0  0  0  0  0  0
    2.3337   -2.0892   -0.7022 O   0  0  0  0  0  0  0  0  0  0  0  0
    3.3931   -0.2203    0.2969 C   0  0  0  0  0  0  0  0  0  0  0  0
    4.4111   -0.9085    0.9193 C   0  0  0  0  0  0  0  0  0  0  0  0
    5.1642    0.0243    1.5766 C   0  0  0  0  0  0  0  0  0  0  0  0
    4.5967    1.2487    1.3443 C   0  0  0  0  0  0  0  0  0  0  0  0
    3.5578    1.0410    0.5849 O   0  0  0  0  0  0  0  0  0  0  0  0
   -2.1465    0.6198   -0.4277 C   0  0  0  0  0  0  0  0  0  0  0  0
   -2.9131   -0.5466   -0.5434 C   0  0  0  0  0  0  0  0  0  0  0  0
  1  2  1  0
  2  3  2  0
  3  4  1  0
  4  5  2  0
  5  6  1  0
  6  7  1  0
  7  8  2  0
  8  9  1  0
  9 10  1  0
 10 11  1  0
 11 12  1  0
 12 13  2  0
 12 14  1  0
 14 15  2  0
 15 16  1  0
 16 17  2  0
 17 18  1  0
  8 19  1  0
 19 20  2  0
 20  2  1  0
 19  5  1  0
 18 14  1  0
M  END
>  <zinc_id>  (1) 
ZINC000002432839

>  <smiles>  (1) 
Cc1ccc2[nH]cc(CCNC(=O)c3ccco3)c2c1

$$$$
