
     RDKit          3D

 30 33  0  0  0  0  0  0  0  0999 V2000
    6.2216    1.7385    0.1108 C   0  0  0  0  0  0  0  0  0  0  0  0
    5.0044    0.9301    0.3929 C   0  0  0  0  0  0  0  0  0  0  0  0
    3.7687    1.1089   -0.2375 C   0  0  0  0  0  0  0  0  0  0  0  0
    2.8694    0.1881    0.2671 C   0  0  0  0  0  0  0  0  0  0  0  0
    1.4736    0.0254   -0.1119 C   0  0  0  0  0  0  0  0  0  0  0  0
    0.8011   -0.8640    0.4627 O   0  0  0  0  0  0  0  0  0  0  0  0
    0.8637    0.8889   -1.1510 C   0  0  0  0  0  0  0  0  0  0  0  0
   -0.4835    0.5212   -1.3670 O   0  0  0  0  0  0  0  0  0  0  0  0
   -0.8108   -0.7653   -1.8070 C   0  0  0  0  0  0  0  0  0  0  0  0
    0.1571   -1.7357   -2.0537 C   0  0  0  0  0  0  0  0  0  0  0  0
   -0.1878   -2.9979   -2.4872 C   0  0  0  0  0  0  0  0  0  0  0  0
   -1.5310   -3.2605   -2.6666 C   0  0  0  0  0  0  0  0  0  0  0  0
   -2.4947   -2.2952   -2.4213 C   0  0  0  0  0  0  0  0  0  0  0  0
   -2.1501   -1.0394   -1.9899 C   0  0  0  0  0  0  0  0  0  0  0  0
   -3.1563   -0.0216   -1.7353 C   0  0  0  0  0  0  0  0  0  0  0  0
   -4.3609   -0.2694   -1.8961 O   0  0  0  0  0  0  0  0  0  0  0  0
   -2.8141    1.2940   -1.2941 N   0  0  0  0  0  0  0  0  0  0  0  0
   -3.8547    2.2974   -1.0450 C   0  0  0  0  0  0  0  0  0  0  0  0
   -4.4800    1.9540    0.2673 C   0  0  0  0  0  0  0  0  0  0  0  0
   -5.5399    2.6923    0.7744 C   0  0  0  0  0  0  0  0  0  0  0  0
   -6.1038    2.3699    1.9888 C   0  0  0  0  0  0  0  0  0  0  0  0
   -5.6493    1.3163    2.7446 C   0  0  0  0  0  0  0  0  0  0  0  0
   -4.6007    0.5706    2.2628 C   0  0  0  0  0  0  0  0  0  0  0  0
   -4.0500    0.9052    1.0509 C   0  0  0  0  0  0  0  0  0  0  0  0
    3.5774   -0.5452    1.2068 C   0  0  0  0  0  0  0  0  0  0  0  0
    3.0161   -1.6651    2.0215 C   0  0  0  0  0  0  0  0  0  0  0  0
    4.8463   -0.0876    1.2661 N   0  0  0  0  0  0  0  0  0  0  0  0
    5.9365   -0.5616    2.1113 C   0  0  0  0  0  0  0  0  0  0  0  0
    6.4584   -1.9612    1.8768 C   0  0  0  0  0  0  0  0  0  0  0  0
    7.2735   -0.7312    1.4305 C   0  0  0  0  0  0  0  0  0  0  0  0
  1  2  1  0
  2  3  2  0
  3  4  1  0
  4  5  1  0
  5  6  2  0
  5  7  1  0
  7  8  1  0
  8  9  1  0
  9 10  2  0
 10 11  1  0
 11 12  2  0
 12 13  1  0
 13 14  2  0
 14 15  1  0
 15 16  2  0
 15 17  1  0
 17 18  1  0
 18 19  1  0
 19 20  2  0
 20 21  1  0
 21 22  2  0
 22 23  1  0
 23 24  2  0
  4 25  2  0
 25 26  1  0
 25 27  1  0
 27 28  1  0
 28 29  1  0
 29 30  1  0
 27  2  1  0
 30 28  1  0
 14  9  1  0
 24 19  1  0
M  END
>  <zinc_id>  (1) 
ZINC000003430351

>  <smiles>  (1) 
Cc1cc(C(=O)COc2ccccc2C(=O)NCc2ccccc2)c(C)n1C1CC1

$$$$
