
     RDKit          3D

 21 23  0  0  0  0  0  0  0  0999 V2000
   -2.3306    0.1937    2.0962 C   0  0  0  0  0  0  0  0  0  0  0  0
   -3.2688    0.3762    0.9474 C   0  0  0  0  0  0  0  0  0  0  0  0
   -4.4854    1.1992    1.2795 C   0  0  0  0  0  0  0  0  0  0  0  0
   -3.7272   -0.9188    0.4011 N   0  0  0  0  0  0  0  0  0  0  0  0
   -2.7980   -1.3183   -0.5974 C   0  0  0  0  0  0  0  0  0  0  0  0
   -2.6154   -2.4835   -1.0727 O   0  0  0  0  0  0  0  0  0  0  0  0
   -2.0594   -0.1666   -1.0139 N   0  0  0  0  0  0  0  0  0  0  0  0
   -1.0213   -0.1684   -2.0338 C   0  0  0  0  0  0  0  0  0  0  0  0
    0.2591   -0.4298   -1.5119 N   0  0  0  0  0  0  0  0  0  0  0  0
    1.0287    0.2587   -0.5700 C   0  0  0  0  0  0  0  0  0  0  0  0
    0.6362    1.4124    0.0582 C   0  0  0  0  0  0  0  0  0  0  0  0
    1.4496    2.0503    0.9850 C   0  0  0  0  0  0  0  0  0  0  0  0
    2.7003    1.5339    1.3085 C   0  0  0  0  0  0  0  0  0  0  0  0
    3.1004    0.3687    0.6761 C   0  0  0  0  0  0  0  0  0  0  0  0
    4.3552   -0.1477    1.0019 C   0  0  0  0  0  0  0  0  0  0  0  0
    4.7963   -1.3063    0.3976 C   0  0  0  0  0  0  0  0  0  0  0  0
    3.9616   -1.9019   -0.5102 C   0  0  0  0  0  0  0  0  0  0  0  0
    2.7184   -1.3963   -0.8374 C   0  0  0  0  0  0  0  0  0  0  0  0
    2.2831   -0.2357   -0.2282 C   0  0  0  0  0  0  0  0  0  0  0  0
   -2.5513    0.9321   -0.2590 C   0  0  0  0  0  0  0  0  0  0  0  0
   -2.4314    2.1482   -0.5172 O   0  0  0  0  0  0  0  0  0  0  0  0
  1  2  1  0
  2  3  1  0
  2  4  1  0
  4  5  1  0
  5  6  2  0
  5  7  1  0
  7  8  1  0
  8  9  1  0
  9 10  1  0
 10 11  2  0
 11 12  1  0
 12 13  2  0
 13 14  1  0
 14 15  2  0
 15 16  1  0
 16 17  2  0
 17 18  1  0
 18 19  2  0
  7 20  1  0
 20 21  2  0
 20  2  1  0
 19 10  1  0
 19 14  1  0
M  END
>  <zinc_id>  (1) 
ZINC000004121849

>  <smiles>  (1) 
CC1(C)NC(=O)N(CNc2cccc3ccccc23)C1=O

$$$$
