
     RDKit          3D

 32 36  0  0  0  0  0  0  0  0999 V2000
   -0.1384    4.3945    3.2126 C   0  0  0  0  0  0  0  0  0  0  0  0
    0.0766    3.1948    2.3623 C   0  0  0  0  0  0  0  0  0  0  0  0
    1.3577    2.7264    2.1000 C   0  0  0  0  0  0  0  0  0  0  0  0
    1.5668    1.6127    1.3102 C   0  0  0  0  0  0  0  0  0  0  0  0
    0.5233    0.9262    0.7547 C   0  0  0  0  0  0  0  0  0  0  0  0
   -0.7644    1.4031    1.0228 C   0  0  0  0  0  0  0  0  0  0  0  0
   -0.9772    2.5117    1.8088 C   0  0  0  0  0  0  0  0  0  0  0  0
   -1.6442    0.5384    0.3531 C   0  0  0  0  0  0  0  0  0  0  0  0
   -3.0760    0.6486    0.3569 C   0  0  0  0  0  0  0  0  0  0  0  0
   -3.8904    0.8454   -0.7226 C   0  0  0  0  0  0  0  0  0  0  0  0
   -5.2555    0.9377   -0.6024 C   0  0  0  0  0  0  0  0  0  0  0  0
   -5.8850    0.8369    0.6194 C   0  0  0  0  0  0  0  0  0  0  0  0
   -5.0856    0.6364    1.7408 C   0  0  0  0  0  0  0  0  0  0  0  0
   -3.7451    0.5538    1.5554 C   0  0  0  0  0  0  0  0  0  0  0  0
   -0.8885   -0.4132   -0.2860 C   0  0  0  0  0  0  0  0  0  0  0  0
   -1.3385   -1.5072   -1.0991 C   0  0  0  0  0  0  0  0  0  0  0  0
   -2.1398   -2.5405   -0.6584 C   0  0  0  0  0  0  0  0  0  0  0  0
   -2.5638   -3.5847   -1.4472 C   0  0  0  0  0  0  0  0  0  0  0  0
   -2.1895   -3.6472   -2.7729 C   0  0  0  0  0  0  0  0  0  0  0  0
   -1.3890   -2.6397   -3.2641 C   0  0  0  0  0  0  0  0  0  0  0  0
   -1.0016   -1.6371   -2.4436 C   0  0  0  0  0  0  0  0  0  0  0  0
    0.4247   -0.1438   -0.0179 N   0  0  0  0  0  0  0  0  0  0  0  0
    1.4568   -0.9856   -0.5520 C   0  0  0  0  0  0  0  0  0  0  0  0
    1.8752   -0.4125   -2.0089 C   0  0  2  0  0  0  0  0  0  0  0  0
    2.8719   -1.5544   -2.2787 O   0  0  0  0  0  0  0  0  0  0  0  0
    3.1063    0.5425   -1.5019 C   0  0  0  0  0  0  0  0  0  0  0  0
    3.7757   -0.0897   -0.4275 N   0  0  0  0  0  0  0  0  0  0  0  0
    4.4780   -1.2981   -0.7744 C   0  0  0  0  0  0  0  0  0  0  0  0
    5.6944   -1.5346    0.0697 C   0  0  0  0  0  0  0  0  0  0  0  0
    5.3558   -1.2674    1.5363 C   0  0  0  0  0  0  0  0  0  0  0  0
    4.8089    0.1417    1.7012 C   0  0  0  0  0  0  0  0  0  0  0  0
    4.6005    0.8048    0.3534 C   0  0  0  0  0  0  0  0  0  0  0  0
  1  2  1  0
  2  3  2  0
  3  4  1  0
  4  5  2  0
  5  6  1  0
  6  7  2  0
  6  8  1  0
  8  9  1  0
  9 10  2  0
 10 11  1  0
 11 12  2  0
 12 13  1  0
 13 14  2  0
  8 15  2  0
 15 16  1  0
 16 17  2  0
 17 18  1  0
 18 19  2  0
 19 20  1  0
 20 21  2  0
 15 22  1  0
 22 23  1  0
 23 24  1  0
 24 25  1  6
 24 26  1  0
 26 27  1  0
 27 28  1  0
 28 29  1  0
 29 30  1  0
 30 31  1  0
 31 32  1  0
  7  2  1  0
 14  9  1  0
 21 16  1  0
 32 27  1  0
 22  5  1  0
M  END
>  <zinc_id>  (1) 
ZINC000001808742

>  <smiles>  (1) 
Cc1ccc2c(c1)c(-c1ccccc1)c(-c1ccccc1)n2C[C@H](O)CN1CCCCC1

$$$$
