
     RDKit          3D

 33 37  0  0  0  0  0  0  0  0999 V2000
   -5.4021    3.9979   -1.2832 C   0  0  0  0  0  0  0  0  0  0  0  0
   -5.4925    3.1873   -0.1270 O   0  0  0  0  0  0  0  0  0  0  0  0
   -4.7655    1.9787   -0.1017 C   0  0  0  0  0  0  0  0  0  0  0  0
   -3.9890    1.5949   -1.1693 C   0  0  0  0  0  0  0  0  0  0  0  0
   -3.2738    0.3874   -1.1219 C   0  0  0  0  0  0  0  0  0  0  0  0
   -2.5180    0.0744   -2.2345 O   0  0  0  0  0  0  0  0  0  0  0  0
   -2.4313    0.8716   -3.3682 C   0  0  0  0  0  0  0  0  0  0  0  0
   -3.3584   -0.3935   -0.0127 C   0  0  0  0  0  0  0  0  0  0  0  0
   -2.5701   -1.7538    0.0812 C   0  0  1  0  0  0  0  0  0  0  0  0
   -2.5696   -2.0764   -1.4759 N   0  0  0  0  0  0  0  0  0  0  0  0
   -1.7633   -3.3013   -1.5574 C   0  0  0  0  0  0  0  0  0  0  0  0
   -0.3344   -2.8290   -1.6655 C   0  0  0  0  0  0  0  0  0  0  0  0
   -0.1489   -1.7300   -0.7033 C   0  0  0  0  0  0  0  0  0  0  0  0
   -1.0947   -1.1877    0.1173 C   0  0  0  0  0  0  0  0  0  0  0  0
   -0.5083   -0.2399    0.8052 N   0  0  0  0  0  0  0  0  0  0  0  0
    0.7937   -0.1233    0.4800 C   0  0  0  0  0  0  0  0  0  0  0  0
    1.8306    0.6880    0.8910 C   0  0  0  0  0  0  0  0  0  0  0  0
    3.0934    0.5933    0.3824 C   0  0  0  0  0  0  0  0  0  0  0  0
    3.3631   -0.3402   -0.5775 C   0  0  0  0  0  0  0  0  0  0  0  0
    4.6003   -0.4933   -1.1318 O   0  0  0  0  0  0  0  0  0  0  0  0
    5.6775    0.2952   -0.7509 C   0  0  0  0  0  0  0  0  0  0  0  0
    5.9787    0.1283    0.6900 C   0  0  0  0  0  0  0  0  0  0  0  0
    6.6713   -1.0191    1.0511 C   0  0  0  0  0  0  0  0  0  0  0  0
    6.9810   -1.2205    2.3574 C   0  0  0  0  0  0  0  0  0  0  0  0
    6.6106   -0.2929    3.3179 C   0  0  0  0  0  0  0  0  0  0  0  0
    5.9244    0.8405    2.9480 C   0  0  0  0  0  0  0  0  0  0  0  0
    5.6166    1.0369    1.6353 C   0  0  0  0  0  0  0  0  0  0  0  0
    2.3342   -1.1809   -1.0186 C   0  0  0  0  0  0  0  0  0  0  0  0
    1.0735   -1.0570   -0.4834 C   0  0  0  0  0  0  0  0  0  0  0  0
   -4.1367    0.0187    1.0241 C   0  0  0  0  0  0  0  0  0  0  0  0
   -4.8531    1.2039    1.0059 C   0  0  0  0  0  0  0  0  0  0  0  0
   -5.6386    1.5974    2.0793 O   0  0  0  0  0  0  0  0  0  0  0  0
   -5.7004    0.7446    3.2308 C   0  0  0  0  0  0  0  0  0  0  0  0
  1  2  1  0
  2  3  1  0
  3  4  2  0
  4  5  1  0
  5  6  1  0
  6  7  1  0
  5  8  2  0
  9  8  1  1
  9 10  1  0
 10 11  1  0
 11 12  1  0
 12 13  1  0
 13 14  2  0
 14 15  1  0
 15 16  1  0
 16 17  2  0
 17 18  1  0
 18 19  2  0
 19 20  1  0
 20 21  1  0
 21 22  1  0
 22 23  2  0
 23 24  1  0
 24 25  2  0
 25 26  1  0
 26 27  2  0
 19 28  1  0
 28 29  2  0
  8 30  1  0
 30 31  2  0
 31 32  1  0
 32 33  1  0
 31  3  1  0
 14  9  1  0
 29 16  1  0
 29 13  1  0
 27 22  1  0
M  END
>  <zinc_id>  (1) 
ZINC000003735275

>  <smiles>  (1) 
COc1cc(OC)c([C@@H]2NCCc3c2[nH]c2ccc(OCc4ccccc4)cc32)cc1OC

$$$$
