
     RDKit          3D

 20 23  0  0  0  0  0  0  0  0999 V2000
   -5.2072   -1.2731   -0.8067 N   0  0  0  0  0  0  0  0  0  0  0  0
   -4.1293   -0.5691   -0.2116 C   0  0  0  0  0  0  0  0  0  0  0  0
   -4.4199    0.5248    0.5703 C   0  0  0  0  0  0  0  0  0  0  0  0
   -3.4129    1.2553    1.1797 C   0  0  0  0  0  0  0  0  0  0  0  0
   -2.1053    0.9036    1.0165 C   0  0  0  0  0  0  0  0  0  0  0  0
   -1.8048   -0.1910    0.2348 C   0  0  0  0  0  0  0  0  0  0  0  0
   -0.4709   -0.5021    0.1032 C   0  0  0  0  0  0  0  0  0  0  0  0
    0.5269    0.2907    0.7579 N   0  0  0  0  0  0  0  0  0  0  0  0
    1.8294   -0.0537    0.5996 C   0  0  0  0  0  0  0  0  0  0  0  0
    2.2404   -1.0142   -0.0774 O   0  0  0  0  0  0  0  0  0  0  0  0
    2.9896    0.8126    1.3238 C   0  0  2  0  0  0  0  0  0  0  0  0
    2.6237    2.2545    0.5988 C   0  0  0  0  0  0  0  0  0  0  0  0
    3.7626    1.2887   -0.0210 C   0  0  0  0  0  0  0  0  0  0  0  0
    3.7570    0.7026   -1.2469 C   0  0  0  0  0  0  0  0  0  0  0  0
    5.2983    0.8004   -1.2040 C   0  0  0  0  0  0  0  0  0  0  0  0
    5.1303    1.6762    0.0578 C   0  0  0  0  0  0  0  0  0  0  0  0
   -0.1599   -1.5961   -0.6773 C   0  0  0  0  0  0  0  0  0  0  0  0
   -1.1466   -2.3496   -1.3021 C   0  0  0  0  0  0  0  0  0  0  0  0
   -2.4891   -2.0264   -1.1623 C   0  0  0  0  0  0  0  0  0  0  0  0
   -2.8124   -0.9340   -0.3838 C   0  0  0  0  0  0  0  0  0  0  0  0
  1  2  1  0
  2  3  2  0
  3  4  1  0
  4  5  2  0
  5  6  1  0
  6  7  2  0
  7  8  1  0
  8  9  1  0
  9 10  2  0
 11  9  1  6
 11 12  1  0
 12 13  1  0
 13 14  1  0
 14 15  1  0
 15 16  1  0
  7 17  1  0
 17 18  2  0
 18 19  1  0
 19 20  2  0
 20  2  1  0
 20  6  1  0
 13 11  1  0
 16 13  1  0
M  END
>  <zinc_id>  (1) 
ZINC000002843196

>  <smiles>  (1) 
Nc1cccc2c(NC(=O)[C@@H]3CC34CCC4)cccc12

$$$$
