
     RDKit          3D

 33 37  0  0  0  0  0  0  0  0999 V2000
   -2.3673   -2.7807    2.7986 C   0  0  0  0  0  0  0  0  0  0  0  0
   -3.2693   -1.7795    2.6713 O   0  0  0  0  0  0  0  0  0  0  0  0
   -3.5730   -0.9141    1.6469 C   0  0  0  0  0  0  0  0  0  0  0  0
   -2.9370   -0.9111    0.4193 C   0  0  0  0  0  0  0  0  0  0  0  0
   -3.2172   -0.0844   -0.5785 C   0  0  0  0  0  0  0  0  0  0  0  0
   -2.4970   -0.0653   -1.9977 C   0  0  2  0  0  0  0  0  0  0  0  0
   -2.4558   -1.5971   -2.3385 N   0  0  0  0  0  0  0  0  0  0  0  0
   -2.1408   -2.3743   -1.2803 C   0  0  0  0  0  0  0  0  0  0  0  0
   -0.7315   -2.3546   -0.7614 C   0  0  0  0  0  0  0  0  0  0  0  0
   -0.3085   -0.9330   -0.9833 C   0  0  0  0  0  0  0  0  0  0  0  0
   -0.9951    0.0551   -1.4899 C   0  0  0  0  0  0  0  0  0  0  0  0
   -0.2462    1.1723   -1.5147 N   0  0  0  0  0  0  0  0  0  0  0  0
    0.9795    0.9067   -1.0045 C   0  0  0  0  0  0  0  0  0  0  0  0
    2.1298    1.6410   -0.7844 C   0  0  0  0  0  0  0  0  0  0  0  0
    3.1956    0.9852   -0.2291 C   0  0  0  0  0  0  0  0  0  0  0  0
    3.2366   -0.3412    0.1345 C   0  0  0  0  0  0  0  0  0  0  0  0
    4.3889   -0.9208    0.7009 O   0  0  0  0  0  0  0  0  0  0  0  0
    5.5526   -0.1333    0.9096 C   0  0  0  0  0  0  0  0  0  0  0  0
    6.0600    0.4124   -0.3595 C   0  0  0  0  0  0  0  0  0  0  0  0
    5.5756    0.1543   -1.6133 C   0  0  0  0  0  0  0  0  0  0  0  0
    6.1266    0.7210   -2.7491 C   0  0  0  0  0  0  0  0  0  0  0  0
    7.2060    1.5819   -2.6366 C   0  0  0  0  0  0  0  0  0  0  0  0
    7.6961    1.8467   -1.4018 C   0  0  0  0  0  0  0  0  0  0  0  0
    7.1460    1.2822   -0.2802 C   0  0  0  0  0  0  0  0  0  0  0  0
    2.0830   -1.0422   -0.0955 C   0  0  0  0  0  0  0  0  0  0  0  0
    0.9531   -0.4298   -0.6625 C   0  0  0  0  0  0  0  0  0  0  0  0
   -4.2234    0.8608   -0.4012 C   0  0  0  0  0  0  0  0  0  0  0  0
   -4.8965    0.9051    0.8098 C   0  0  0  0  0  0  0  0  0  0  0  0
   -5.9052    1.8385    1.0135 O   0  0  0  0  0  0  0  0  0  0  0  0
   -6.2166    2.7270   -0.0391 C   0  0  0  0  0  0  0  0  0  0  0  0
   -4.5678    0.0099    1.8415 C   0  0  0  0  0  0  0  0  0  0  0  0
   -5.2941    0.1259    3.0215 O   0  0  0  0  0  0  0  0  0  0  0  0
   -6.4871   -0.5648    3.2821 C   0  0  0  0  0  0  0  0  0  0  0  0
  1  2  1  0
  2  3  1  0
  3  4  2  0
  4  5  1  0
  6  5  1  1
  6  7  1  0
  7  8  1  0
  8  9  1  0
  9 10  1  0
 10 11  2  0
 11 12  1  0
 12 13  1  0
 13 14  2  0
 14 15  1  0
 15 16  2  0
 16 17  1  0
 17 18  1  0
 18 19  1  0
 19 20  2  0
 20 21  1  0
 21 22  2  0
 22 23  1  0
 23 24  2  0
 16 25  1  0
 25 26  2  0
  5 27  2  0
 27 28  1  0
 28 29  1  0
 29 30  1  0
 28 31  2  0
 31 32  1  0
 32 33  1  0
 31  3  1  0
 11  6  1  0
 26 13  1  0
 26 10  1  0
 24 19  1  0
M  END
>  <zinc_id>  (1) 
ZINC000001317840

>  <smiles>  (1) 
COc1cc([C@@H]2NCCc3c2[nH]c2ccc(OCc4ccccc4)cc32)cc(OC)c1OC

$$$$
