
     RDKit          3D

 18 19  0  0  0  0  0  0  0  0999 V2000
    1.5583    1.2670    0.4479 C   0  0  0  0  0  0  0  0  0  0  0  0
    1.0402    0.1942   -0.0931 C   0  0  0  0  0  0  0  0  0  0  0  0
    1.8527   -0.7164   -0.8134 N   0  0  0  0  0  0  0  0  0  0  0  0
    3.1791   -0.9014   -0.5059 O   0  0  0  0  0  0  0  0  0  0  0  0
    4.1592    0.0256   -0.8239 C   0  0  0  0  0  0  0  0  0  0  0  0
    3.7796    1.0758   -1.4231 O   0  0  0  0  0  0  0  0  0  0  0  0
    5.5310   -0.1477   -0.5151 N   0  0  0  0  0  0  0  0  0  0  0  0
    6.4799    0.9029   -0.9014 C   0  0  0  0  0  0  0  0  0  0  0  0
   -0.4058   -0.1208    0.0178 C   0  0  0  0  0  0  0  0  0  0  0  0
   -1.2710   -1.4485   -0.6051 S   0  0  0  0  0  0  0  0  0  0  0  0
   -2.8376   -1.0513   -0.0381 C   0  0  0  0  0  0  0  0  0  0  0  0
   -4.1029   -1.6540   -0.1390 C   0  0  0  0  0  0  0  0  0  0  0  0
   -5.2211   -1.0907    0.4350 C   0  0  0  0  0  0  0  0  0  0  0  0
   -5.0001    0.0921    1.1045 C   0  0  0  0  0  0  0  0  0  0  0  0
   -3.7768    0.6938    1.2135 C   0  0  0  0  0  0  0  0  0  0  0  0
   -2.6330    0.1168    0.6260 C   0  0  0  0  0  0  0  0  0  0  0  0
   -1.3707    0.6053    0.6583 C   0  0  0  0  0  0  0  0  0  0  0  0
   -0.9609    1.8983    1.3551 C   0  0  0  0  0  0  0  0  0  0  0  0
  1  2  2  0
  2  3  1  0
  3  4  1  0
  4  5  1  0
  5  6  2  0
  5  7  1  0
  7  8  1  0
  2  9  1  0
  9 10  1  0
 10 11  1  0
 11 12  2  0
 12 13  1  0
 13 14  2  0
 14 15  1  0
 15 16  2  0
 16 17  1  0
 17 18  1  0
 17  9  2  0
 16 11  1  0
M  END
>  <zinc_id>  (1) 
ZINC000002148553

>  <smiles>  (1) 
C=C(NOC(=O)NC)c1sc2ccccc2c1C

$$$$
