
     RDKit          3D

 20 22  0  0  0  0  0  0  0  0999 V2000
   -6.3044    2.1306   -0.2795 C   0  0  0  0  0  0  0  0  0  0  0  0
   -5.6410    0.9068   -0.2811 O   0  0  0  0  0  0  0  0  0  0  0  0
   -4.2777    0.7504    0.0016 C   0  0  0  0  0  0  0  0  0  0  0  0
   -3.4490    1.7838    0.3102 C   0  0  0  0  0  0  0  0  0  0  0  0
   -2.1231    1.5293    0.5727 C   0  0  0  0  0  0  0  0  0  0  0  0
   -1.6000    0.2206    0.5298 C   0  0  0  0  0  0  0  0  0  0  0  0
   -2.4301   -0.8146    0.2205 C   0  0  0  0  0  0  0  0  0  0  0  0
   -3.7741   -0.5119   -0.0401 C   0  0  0  0  0  0  0  0  0  0  0  0
   -1.9255   -2.1916    0.1635 C   0  0  0  0  0  0  0  0  0  0  0  0
   -0.5250   -2.3401    0.6065 C   0  0  0  0  0  0  0  0  0  0  0  0
    0.3400   -1.1819   -0.2024 C   0  0  2  0  0  0  0  0  0  0  0  0
    1.6327   -1.4663    0.6197 N   0  0  0  0  0  0  0  0  0  0  0  0
    2.7690   -0.6937    0.3117 C   0  0  0  0  0  0  0  0  0  0  0  0
    3.8847   -0.9860    1.0687 C   0  0  0  0  0  0  0  0  0  0  0  0
    5.0896   -0.3185    0.8950 C   0  0  0  0  0  0  0  0  0  0  0  0
    5.1841    0.6663   -0.0585 C   0  0  0  0  0  0  0  0  0  0  0  0
    6.3986    1.3080   -0.2021 O   0  0  0  0  0  0  0  0  0  0  0  0
    4.0663    0.9483   -0.8059 C   0  0  0  0  0  0  0  0  0  0  0  0
    2.8654    0.2788   -0.6286 C   0  0  0  0  0  0  0  0  0  0  0  0
   -0.1805   -0.0182    0.8172 C   0  0  0  0  0  0  0  0  0  0  0  0
  1  2  1  0
  2  3  1  0
  3  4  2  0
  4  5  1  0
  5  6  2  0
  6  7  1  0
  7  8  2  0
  7  9  1  0
  9 10  1  0
 10 11  1  0
 11 12  1  1
 12 13  1  0
 13 14  2  0
 14 15  1  0
 15 16  2  0
 16 17  1  0
 16 18  1  0
 18 19  2  0
 11 20  1  0
  8  3  1  0
 19 13  1  0
 20  6  1  0
M  END
>  <zinc_id>  (1) 
ZINC000000009653

>  <smiles>  (1) 
COc1ccc2c(c1)CC[C@H](Nc1ccc(O)cc1)C2

$$$$
