
     RDKit          3D

 21 23  0  0  0  0  0  0  0  0999 V2000
    4.2355    3.5743    0.3081 C   0  0  0  0  0  0  0  0  0  0  0  0
    3.3802    2.6558   -0.3239 O   0  0  0  0  0  0  0  0  0  0  0  0
    2.8391    1.5569    0.3155 C   0  0  0  0  0  0  0  0  0  0  0  0
    3.0765    1.2518    1.6149 C   0  0  0  0  0  0  0  0  0  0  0  0
    2.5108    0.1321    2.2246 C   0  0  0  0  0  0  0  0  0  0  0  0
    1.6845   -0.6836    1.4702 C   0  0  0  0  0  0  0  0  0  0  0  0
    1.4628   -0.3709    0.2013 C   0  0  0  0  0  0  0  0  0  0  0  0
    0.5332   -1.2247   -0.7756 C   0  0  1  0  0  0  0  0  0  0  0  0
    0.3428   -2.5421    0.1398 C   0  0  0  0  0  0  0  0  0  0  0  0
   -0.7635   -3.3105   -0.4984 C   0  0  0  0  0  0  0  0  0  0  0  0
   -0.6296   -4.3781   -1.0957 O   0  0  0  0  0  0  0  0  0  0  0  0
   -2.0419   -2.6708   -0.3475 N   0  0  0  0  0  0  0  0  0  0  0  0
   -1.9375   -1.2257   -0.3364 C   0  0  0  0  0  0  0  0  0  0  0  0
   -3.1893   -0.5949   -0.1106 C   0  0  0  0  0  0  0  0  0  0  0  0
   -3.1969    0.7749   -0.0168 C   0  0  0  0  0  0  0  0  0  0  0  0
   -4.4986    1.4857    0.2217 C   0  0  0  0  0  0  0  0  0  0  0  0
   -2.0306    1.5099   -0.1378 C   0  0  0  0  0  0  0  0  0  0  0  0
   -2.1404    2.9863   -0.0207 C   0  0  0  0  0  0  0  0  0  0  0  0
   -0.8348    0.8607   -0.3578 C   0  0  0  0  0  0  0  0  0  0  0  0
   -0.8074   -0.5156   -0.4559 C   0  0  0  0  0  0  0  0  0  0  0  0
    2.0051    0.7283   -0.4354 C   0  0  0  0  0  0  0  0  0  0  0  0
  1  2  1  0
  2  3  1  0
  3  4  2  0
  4  5  1  0
  5  6  2  0
  6  7  1  0
  8  7  1  1
  8  9  1  0
  9 10  1  0
 10 11  2  0
 10 12  1  0
 12 13  1  0
 13 14  2  0
 14 15  1  0
 15 16  1  0
 15 17  2  0
 17 18  1  0
 17 19  1  0
 19 20  2  0
  7 21  2  0
 21  3  1  0
 20  8  1  0
 20 13  1  0
M  END
>  <zinc_id>  (1) 
ZINC000000036531

>  <smiles>  (1) 
COc1cccc([C@H]2CC(=O)Nc3cc(C)c(C)cc32)c1

$$$$
