
     RDKit          3D

 21 23  0  0  0  0  0  0  0  0999 V2000
    5.8311   -0.5908    0.1612 C   0  0  0  0  0  0  0  0  0  0  0  0
    4.6183    0.0660   -0.1305 O   0  0  0  0  0  0  0  0  0  0  0  0
    3.4290   -0.5688    0.1540 C   0  0  0  0  0  0  0  0  0  0  0  0
    3.4586   -1.8226    0.7132 C   0  0  0  0  0  0  0  0  0  0  0  0
    2.3004   -2.5022    1.0176 C   0  0  0  0  0  0  0  0  0  0  0  0
    1.1053   -1.8734    0.7384 C   0  0  0  0  0  0  0  0  0  0  0  0
    1.0590   -0.5993    0.1702 C   0  0  0  0  0  0  0  0  0  0  0  0
   -0.1417    0.0114   -0.1009 C   0  0  0  0  0  0  0  0  0  0  0  0
   -1.3488   -0.6526    0.1966 N   0  0  0  0  0  0  0  0  0  0  0  0
   -2.6196   -0.0832   -0.0559 C   0  0  0  0  0  0  0  0  0  0  0  0
   -2.6674    1.1743   -0.6166 C   0  0  0  0  0  0  0  0  0  0  0  0
   -3.9043    1.7179   -0.8576 C   0  0  0  0  0  0  0  0  0  0  0  0
   -5.0420    1.0271   -0.5483 C   0  0  0  0  0  0  0  0  0  0  0  0
   -4.9698   -0.2174    0.0066 C   0  0  0  0  0  0  0  0  0  0  0  0
   -3.7463   -0.8024    0.2661 C   0  0  0  0  0  0  0  0  0  0  0  0
   -3.6893   -2.0721    0.8322 O   0  0  0  0  0  0  0  0  0  0  0  0
   -0.1571    1.2661   -0.6605 C   0  0  0  0  0  0  0  0  0  0  0  0
    1.0409    1.8847   -0.9377 C   0  0  0  0  0  0  0  0  0  0  0  0
    1.0015    3.2575   -1.5500 C   0  0  0  0  0  0  0  0  0  0  0  0
    2.2230    1.3035   -0.6798 N   0  0  0  0  0  0  0  0  0  0  0  0
    2.2192    0.0762   -0.1324 C   0  0  0  0  0  0  0  0  0  0  0  0
  1  2  1  0
  2  3  1  0
  3  4  2  0
  4  5  1  0
  5  6  2  0
  6  7  1  0
  7  8  2  0
  8  9  1  0
  9 10  1  0
 10 11  2  0
 11 12  1  0
 12 13  2  0
 13 14  1  0
 14 15  2  0
 15 16  1  0
  8 17  1  0
 17 18  2  0
 18 19  1  0
 18 20  1  0
 20 21  2  0
 21  3  1  0
 21  7  1  0
 15 10  1  0
M  END
>  <zinc_id>  (1) 
ZINC000000534256

>  <smiles>  (1) 
COc1cccc2c(Nc3ccccc3O)cc(C)nc12

$$$$
