
     RDKit          3D

 21 22  0  0  0  0  0  0  0  0999 V2000
   -5.5324    0.3536    1.5314 C   0  0  0  0  0  0  0  0  0  0  0  0
   -4.6108    0.3967    0.3649 C   0  0  0  0  0  0  0  0  0  0  0  0
   -5.1417    0.5904   -0.8907 C   0  0  0  0  0  0  0  0  0  0  0  0
   -4.2629    0.6284   -1.9733 C   0  0  0  0  0  0  0  0  0  0  0  0
   -2.9026    0.4775   -1.7996 C   0  0  0  0  0  0  0  0  0  0  0  0
   -2.0070    0.5254   -2.9844 C   0  0  0  0  0  0  0  0  0  0  0  0
   -2.3718    0.2841   -0.5470 C   0  0  0  0  0  0  0  0  0  0  0  0
   -0.9956    0.1249   -0.3105 N   0  0  0  0  0  0  0  0  0  0  0  0
   -0.4102   -0.0753    0.9462 C   0  0  0  0  0  0  0  0  0  0  0  0
   -1.1507   -0.1202    1.9585 O   0  0  0  0  0  0  0  0  0  0  0  0
    1.0371   -0.2236    1.0288 C   0  0  0  0  0  0  0  0  0  0  0  0
    1.6521   -0.4253    2.2550 C   0  0  0  0  0  0  0  0  0  0  0  0
    3.0246   -0.5621    2.2999 C   0  0  0  0  0  0  0  0  0  0  0  0
    3.8349   -0.5101    1.1850 C   0  0  0  0  0  0  0  0  0  0  0  0
    5.3211   -0.6645    1.2887 C   0  0  0  0  0  0  0  0  0  0  0  0
    3.2141   -0.3093   -0.0298 C   0  0  0  0  0  0  0  0  0  0  0  0
    4.0287   -0.2526   -1.1879 N   0  0  0  0  0  4  0  0  0  0  0  0
    5.0864   -0.8730   -1.3405 O   0  0  0  0  0  0  0  0  0  0  0  0
    3.6020    0.5566   -2.2142 O   0  0  0  0  0  1  0  0  0  0  0  0
    1.8288   -0.1686   -0.0976 C   0  0  0  0  0  0  0  0  0  0  0  0
   -3.2443    0.2470    0.5222 C   0  0  0  0  0  0  0  0  0  0  0  0
  1  2  1  0
  2  3  2  0
  3  4  1  0
  4  5  2  0
  5  6  1  0
  5  7  1  0
  7  8  1  0
  8  9  1  0
  9 10  2  0
  9 11  1  0
 11 12  2  0
 12 13  1  0
 13 14  2  0
 14 15  1  0
 14 16  1  0
 16 17  1  0
 17 18  2  0
 17 19  1  0
 16 20  2  0
  7 21  2  0
 21  2  1  0
 20 11  1  0
M  CHG  2  17   1  19  -1
M  END
>  <zinc_id>  (1) 
ZINC000000102978

>  <smiles>  (1) 
Cc1ccc(C)c(NC(=O)c2ccc(C)c([N+](=O)[O-])c2)c1

$$$$
