
     RDKit          3D

 31 33  0  0  0  0  0  0  0  0999 V2000
   -6.1295   -1.0404   -2.6006 C   0  0  0  0  0  0  0  0  0  0  0  0
   -5.2107   -1.6011   -1.5537 C   0  0  0  0  0  0  0  0  0  0  0  0
   -4.3139   -2.6939   -2.0302 C   0  0  0  0  0  0  0  0  0  0  0  0
   -4.5598   -0.6109   -0.7412 N   0  0  0  0  0  0  0  0  0  0  0  0
   -5.3806    0.2603    0.0333 C   0  0  0  0  0  0  0  0  0  0  0  0
   -6.0645   -0.1903    1.1336 C   0  0  0  0  0  0  0  0  0  0  0  0
   -6.8467    0.6650    1.9108 C   0  0  0  0  0  0  0  0  0  0  0  0
   -6.9597    2.0136    1.5929 C   0  0  0  0  0  0  0  0  0  0  0  0
   -6.2756    2.4659    0.4905 C   0  0  0  0  0  0  0  0  0  0  0  0
   -5.5004    1.6172   -0.2797 C   0  0  0  0  0  0  0  0  0  0  0  0
   -3.1530   -0.4334   -0.6653 C   0  0  0  0  0  0  0  0  0  0  0  0
   -2.2602   -1.2288   -1.3425 C   0  0  0  0  0  0  0  0  0  0  0  0
   -0.8925   -1.0434   -1.2751 C   0  0  0  0  0  0  0  0  0  0  0  0
   -0.3559   -0.0316   -0.5086 C   0  0  0  0  0  0  0  0  0  0  0  0
    1.0563    0.1844   -0.4093 N   0  0  0  0  0  0  0  0  0  0  0  0
    1.4640    1.3472    0.3104 C   0  0  0  0  0  0  0  0  0  0  0  0
    0.6324    2.1373    0.8261 O   0  0  0  0  0  0  0  0  0  0  0  0
    2.9191    1.6056    0.4384 C   0  0  0  0  0  0  0  0  0  0  0  0
    3.6346    0.5391   -0.1477 O   0  0  0  0  0  0  0  0  0  0  0  0
    3.4615   -0.7514    0.3954 C   0  0  0  0  0  0  0  0  0  0  0  0
    2.6815   -0.9189    1.3706 O   0  0  0  0  0  0  0  0  0  0  0  0
    4.2166   -1.9167   -0.2008 C   0  0  0  0  0  0  0  0  0  0  0  0
    5.3928   -2.2568    0.7164 C   0  0  0  0  0  0  0  0  0  0  0  0
    6.2809   -1.0537    0.8110 C   0  0  0  0  0  0  0  0  0  0  0  0
    5.9728   -0.1341    1.7753 C   0  0  0  0  0  0  0  0  0  0  0  0
    6.7316    0.9918    1.9274 C   0  0  0  0  0  0  0  0  0  0  0  0
    7.8256    1.2529    1.1330 C   0  0  0  0  0  0  0  0  0  0  0  0
    8.1202    0.2942    0.1528 C   0  0  0  0  0  0  0  0  0  0  0  0
    7.3634   -0.8351   -0.0039 C   0  0  0  0  0  0  0  0  0  0  0  0
   -1.2422    0.7737    0.1759 C   0  0  0  0  0  0  0  0  0  0  0  0
   -2.6082    0.5925    0.1109 C   0  0  0  0  0  0  0  0  0  0  0  0
  1  2  1  0
  2  3  1  0
  2  4  1  0
  4  5  1  0
  5  6  2  0
  6  7  1  0
  7  8  2  0
  8  9  1  0
  9 10  2  0
  4 11  1  0
 11 12  2  0
 12 13  1  0
 13 14  2  0
 14 15  1  0
 15 16  1  0
 16 17  2  0
 16 18  1  0
 18 19  1  0
 19 20  1  0
 20 21  2  0
 20 22  1  0
 22 23  1  0
 23 24  1  0
 24 25  2  0
 25 26  1  0
 26 27  2  0
 27 28  1  0
 28 29  2  0
 14 30  1  0
 30 31  2  0
 10  5  1  0
 31 11  1  0
 29 24  1  0
M  END
>  <zinc_id>  (1) 
ZINC000003226806

>  <smiles>  (1) 
CC(C)N(c1ccccc1)c1ccc(NC(=O)COC(=O)CCc2ccccc2)cc1

$$$$
