
     RDKit          3D

 21 23  0  0  0  0  0  0  0  0999 V2000
   -0.2392    1.7129   -1.6954 O   0  0  0  0  0  0  0  0  0  0  0  0
   -0.1045    0.4921   -1.4430 C   0  0  0  0  0  0  0  0  0  0  0  0
    1.0917   -0.1596   -2.0663 C   0  0  0  0  0  0  0  0  0  0  0  0
    2.3229    0.4420   -1.4924 C   0  0  0  0  0  0  0  0  0  0  0  0
    3.2060    1.3697   -1.9837 C   0  0  0  0  0  0  0  0  0  0  0  0
    4.1778    1.5996   -1.0523 N   0  0  0  0  0  0  0  0  0  0  0  0
    3.9155    0.8187    0.0315 C   0  0  0  0  0  0  0  0  0  0  0  0
    4.5307    0.6285    1.2425 C   0  0  0  0  0  0  0  0  0  0  0  0
    4.0842   -0.2340    2.2204 C   0  0  0  0  0  0  0  0  0  0  0  0
    2.9380   -0.9442    1.9394 C   0  0  0  0  0  0  0  0  0  0  0  0
    2.2903   -0.7767    0.7242 C   0  0  0  0  0  0  0  0  0  0  0  0
    2.7738    0.1000   -0.2282 C   0  0  0  0  0  0  0  0  0  0  0  0
   -1.0435   -0.2454   -0.5999 C   0  0  0  0  0  0  0  0  0  0  0  0
   -0.8316   -1.4557   -0.3660 O   0  0  0  0  0  0  0  0  0  0  0  0
   -2.1459    0.3626   -0.0623 O   0  0  0  0  0  0  0  0  0  0  0  0
   -3.0563   -0.2890    0.7544 C   0  0  0  0  0  0  0  0  0  0  0  0
   -4.2128    0.5841    1.1605 C   0  0  0  0  0  0  0  0  0  0  0  0
   -5.3569    0.4259    0.1465 C   0  0  0  0  0  0  0  0  0  0  0  0
   -5.9042   -0.9813    0.2030 C   0  0  0  0  0  0  0  0  0  0  0  0
   -4.9005   -1.8276    0.9963 C   0  0  0  0  0  0  0  0  0  0  0  0
   -3.5355   -1.6226    0.3150 C   0  0  0  0  0  0  0  0  0  0  0  0
  1  2  2  0
  2  3  1  0
  3  4  1  0
  4  5  2  0
  5  6  1  0
  6  7  1  0
  7  8  2  0
  8  9  1  0
  9 10  2  0
 10 11  1  0
 11 12  2  0
  2 13  1  0
 13 14  2  0
 13 15  1  0
 15 16  1  0
 16 17  1  0
 17 18  1  0
 18 19  1  0
 19 20  1  0
 20 21  1  0
 12  4  1  0
 21 16  1  0
 12  7  1  0
M  END
>  <zinc_id>  (1) 
ZINC000001542529

>  <smiles>  (1) 
O=C(Cc1c[nH]c2ccccc12)C(=O)OC1CCCCC1

$$$$
