
     RDKit          3D

 22 24  0  0  0  0  0  0  0  0999 V2000
   -1.1725   -1.0557   -1.7746 O   0  0  0  0  0  0  0  0  0  0  0  0
   -0.9050   -1.7939   -0.8444 C   0  0  0  0  0  0  0  0  0  0  0  0
    0.1938   -1.5458   -0.0148 N   0  0  0  0  0  0  0  0  0  0  0  0
    1.0791   -0.4336   -0.1789 C   0  0  0  0  0  0  0  0  0  0  0  0
    0.9054    0.4906   -1.1889 C   0  0  0  0  0  0  0  0  0  0  0  0
    1.7270    1.5769   -1.3909 C   0  0  0  0  0  0  0  0  0  0  0  0
    2.7963    1.7840   -0.5528 C   0  0  0  0  0  0  0  0  0  0  0  0
    3.6529    2.8137   -0.6698 F   0  0  0  0  0  0  0  0  0  0  0  0
    2.9983    0.8710    0.4743 C   0  0  0  0  0  0  0  0  0  0  0  0
    4.1058    1.0855    1.3422 N   0  0  0  0  0  4  0  0  0  0  0  0
    4.6146    0.1031    1.8972 O   0  0  0  0  0  0  0  0  0  0  0  0
    4.5876    2.3430    1.5513 O   0  0  0  0  0  1  0  0  0  0  0  0
    2.1534   -0.2116    0.6506 C   0  0  0  0  0  0  0  0  0  0  0  0
   -1.7566   -3.0730   -0.4965 C   0  0  2  0  0  0  0  0  0  0  0  0
   -2.9838   -3.0016   -1.7258 C   0  0  0  0  0  0  0  0  0  0  0  0
   -3.3393   -2.4982   -0.0741 C   0  0  2  0  0  0  0  0  0  0  0  0
   -3.2742   -0.9174   -0.2174 C   0  0  0  0  0  0  0  0  0  0  0  0
   -2.6197   -0.3697    0.8534 C   0  0  0  0  0  0  0  0  0  0  0  0
   -2.4528    1.0269    0.9224 C   0  0  0  0  0  0  0  0  0  0  0  0
   -2.9583    1.7968   -0.0982 C   0  0  0  0  0  0  0  0  0  0  0  0
   -3.6022    1.1878   -1.1402 C   0  0  0  0  0  0  0  0  0  0  0  0
   -3.7496   -0.1788   -1.1795 C   0  0  0  0  0  0  0  0  0  0  0  0
  1  2  2  0
  2  3  1  0
  3  4  1  0
  4  5  2  0
  5  6  1  0
  6  7  2  0
  7  8  1  0
  7  9  1  0
  9 10  1  0
 10 11  2  0
 10 12  1  0
  9 13  2  0
 14  2  1  6
 14 15  1  0
 15 16  1  0
 16 17  1  6
 17 18  2  0
 18 19  1  0
 19 20  2  0
 20 21  1  0
 21 22  2  0
 13  4  1  0
 16 14  1  0
 22 17  1  0
M  CHG  2  10   1  12  -1
M  END
>  <zinc_id>  (1) 
ZINC000003194076

>  <smiles>  (1) 
O=C(Nc1ccc(F)c([N+](=O)[O-])c1)[C@@H]1C[C@@H]1c1ccccc1

$$$$
