
     RDKit          3D

 32 35  0  0  0  0  0  0  0  0999 V2000
    9.6691   -1.1666    2.3619 C   0  0  0  0  0  0  0  0  0  0  0  0
    8.4237   -2.0378    2.3778 C   0  0  0  0  0  0  0  0  0  0  0  0
    7.3337   -1.1486    2.1297 O   0  0  0  0  0  0  0  0  0  0  0  0
    6.1049   -1.6368    2.0865 C   0  0  0  0  0  0  0  0  0  0  0  0
    5.8515   -2.8505    2.2542 O   0  0  0  0  0  0  0  0  0  0  0  0
    4.8008   -0.7410    1.8162 C   0  0  1  0  0  0  0  0  0  0  0  0
    5.5330    0.5915    1.6768 O   0  0  0  0  0  0  0  0  0  0  0  0
    4.8108   -1.0144    0.1489 C   0  0  0  0  0  0  0  0  0  0  0  0
    3.6082   -0.2057   -0.2084 C   0  0  0  0  0  0  0  0  0  0  0  0
    2.3685   -0.8134   -0.2141 C   0  0  0  0  0  0  0  0  0  0  0  0
    1.2352   -0.1046   -0.5374 C   0  0  0  0  0  0  0  0  0  0  0  0
    1.3090    1.2243   -0.8624 C   0  0  0  0  0  0  0  0  0  0  0  0
    0.1968    1.9484   -1.1869 O   0  0  0  0  0  0  0  0  0  0  0  0
   -1.0430    1.3674   -1.1993 C   0  0  0  0  0  0  0  0  0  0  0  0
   -1.1713    0.2127   -2.1702 C   0  0  0  0  0  0  0  0  0  0  0  0
   -2.6538   -0.3223   -2.0435 C   0  0  1  0  0  0  0  0  0  0  0  0
   -2.4949   -0.7523   -0.1910 S   0  0  0  0  0  0  0  0  0  0  0  0
   -4.1625   -1.2526    0.2477 C   0  0  0  0  0  0  0  0  0  0  0  0
   -4.2268   -2.5235    0.7796 C   0  0  0  0  0  0  0  0  0  0  0  0
   -5.4903   -2.9912    1.1460 C   0  0  0  0  0  0  0  0  0  0  0  0
   -6.5875   -2.1736    0.9604 C   0  0  0  0  0  0  0  0  0  0  0  0
   -6.4977   -0.9084    0.4274 C   0  0  0  0  0  0  0  0  0  0  0  0
   -5.2540   -0.4378    0.0626 C   0  0  0  0  0  0  0  0  0  0  0  0
   -5.2371    0.8209   -0.4574 O   0  0  0  0  0  0  0  0  0  0  0  0
   -4.4516    1.4888   -1.3660 C   0  0  0  0  0  0  0  0  0  0  0  0
   -4.8485    2.7887   -1.6137 C   0  0  0  0  0  0  0  0  0  0  0  0
   -4.1873    3.6165   -2.4963 C   0  0  0  0  0  0  0  0  0  0  0  0
   -3.0795    3.1577   -3.1761 C   0  0  0  0  0  0  0  0  0  0  0  0
   -2.6856    1.8638   -2.9278 C   0  0  0  0  0  0  0  0  0  0  0  0
   -3.3738    1.0401   -2.0257 C   0  0  0  0  0  0  0  0  0  0  0  0
    2.5351    1.8350   -0.8593 C   0  0  0  0  0  0  0  0  0  0  0  0
    3.6648    1.1252   -0.5362 C   0  0  0  0  0  0  0  0  0  0  0  0
  1  2  1  0
  2  3  1  0
  3  4  1  0
  4  5  2  0
  4  6  1  0
  6  7  1  6
  6  8  1  0
  8  9  1  0
  9 10  2  0
 10 11  1  0
 11 12  2  0
 12 13  1  0
 13 14  1  0
 14 15  1  0
 16 15  1  1
 16 17  1  0
 17 18  1  0
 18 19  2  0
 19 20  1  0
 20 21  2  0
 21 22  1  0
 22 23  2  0
 23 24  1  0
 24 25  1  0
 25 26  2  0
 26 27  1  0
 27 28  2  0
 28 29  1  0
 29 30  2  0
 12 31  1  0
 31 32  2  0
 32  9  1  0
 30 16  1  0
 23 18  1  0
 30 25  1  0
M  END
>  <zinc_id>  (1) 
ZINC000000588576

>  <smiles>  (1) 
CCOC(=O)[C@@H](O)Cc1ccc(OCC[C@H]2Sc3ccccc3Oc3ccccc32)cc1

$$$$
