
     RDKit          3D

 19 20  0  0  0  0  0  0  0  0999 V2000
   -2.9027    0.0660    3.5847 C   0  0  0  0  0  0  0  0  0  0  0  0
   -2.1268   -0.0345    2.4016 O   0  0  0  0  0  0  0  0  0  0  0  0
   -2.5674   -0.6479    1.2526 C   0  0  0  0  0  0  0  0  0  0  0  0
   -3.8055   -1.2344    1.1124 C   0  0  0  0  0  0  0  0  0  0  0  0
   -4.2192   -1.8390   -0.0442 C   0  0  0  0  0  0  0  0  0  0  0  0
   -3.3487   -1.8548   -1.1082 C   0  0  0  0  0  0  0  0  0  0  0  0
   -2.0947   -1.2775   -1.0117 C   0  0  0  0  0  0  0  0  0  0  0  0
   -1.7116   -0.6758    0.1728 C   0  0  0  0  0  0  0  0  0  0  0  0
   -0.4182   -0.0880    0.2518 N   0  0  0  0  0  0  0  0  0  0  0  0
    0.4676   -0.1102   -0.8481 C   0  0  0  0  0  0  0  0  0  0  0  0
    0.0523   -0.6715   -1.8856 O   0  0  0  0  0  0  0  0  0  0  0  0
    1.8264    0.4954   -0.7975 C   0  0  0  0  0  0  0  0  0  0  0  0
    2.6410    0.4417   -1.8998 C   0  0  0  0  0  0  0  0  0  0  0  0
    2.3756   -0.1464   -3.1862 N   0  0  0  0  0  0  0  0  0  0  0  0
    4.0504    1.2410   -1.3822 S   0  0  0  0  0  0  0  0  0  0  0  0
    3.5776    1.6235    0.2121 C   0  0  0  0  0  0  0  0  0  0  0  0
    4.3464    2.3528    1.2915 C   0  0  0  0  0  0  0  0  0  0  0  0
    2.3131    1.1063    0.2910 C   0  0  0  0  0  0  0  0  0  0  0  0
    1.5442    1.2532    1.5931 C   0  0  0  0  0  0  0  0  0  0  0  0
  1  2  1  0
  2  3  1  0
  3  4  2  0
  4  5  1  0
  5  6  2  0
  6  7  1  0
  7  8  2  0
  8  9  1  0
  9 10  1  0
 10 11  2  0
 10 12  1  0
 12 13  2  0
 13 14  1  0
 13 15  1  0
 15 16  1  0
 16 17  1  0
 16 18  2  0
 18 19  1  0
  8  3  1  0
 18 12  1  0
M  END
>  <zinc_id>  (1) 
ZINC000002506006

>  <smiles>  (1) 
COc1ccccc1NC(=O)c1c(N)sc(C)c1C

$$$$
