
     RDKit          3D

 18 19  0  0  0  0  0  0  0  0999 V2000
    5.1828    2.1833    0.6878 C   0  0  0  0  0  0  0  0  0  0  0  0
    4.6537    0.7448    0.7357 C   0  0  0  0  0  0  0  0  0  0  0  0
    3.9246    0.5368   -0.5890 C   0  0  0  0  0  0  0  0  0  0  0  0
    3.3456   -0.8616   -0.6744 C   0  0  0  0  0  0  0  0  0  0  0  0
    2.3312   -0.8476    0.6341 C   0  0  2  0  0  0  0  0  0  0  0  0
    1.8294   -2.3792    0.3713 C   0  0  0  0  0  0  0  0  0  0  0  0
    1.1325   -2.4917   -0.9045 C   0  0  0  0  0  0  0  0  0  0  0  0
   -0.3695   -2.3395   -0.5777 C   0  0  0  0  0  0  0  0  0  0  0  0
   -0.3113   -0.8730    0.4871 S   0  0  0  0  0  3  0  0  0  0  0  0
   -1.7391    0.0780    0.1312 C   0  0  0  0  0  0  0  0  0  0  0  0
   -2.8827   -0.1653    0.8545 C   0  0  0  0  0  0  0  0  0  0  0  0
   -4.0156    0.5813    0.5801 C   0  0  0  0  0  0  0  0  0  0  0  0
   -5.1686    0.3427    1.3026 O   0  0  0  0  0  0  0  0  0  0  0  0
   -4.0023    1.5440   -0.3914 C   0  0  0  0  0  0  0  0  0  0  0  0
   -2.8418    1.7772   -1.1117 C   0  0  0  0  0  0  0  0  0  0  0  0
   -1.6973    1.0277   -0.8393 C   0  0  0  0  0  0  0  0  0  0  0  0
   -0.5127    1.2192   -1.5278 O   0  0  0  0  0  0  0  0  0  0  0  0
    1.1411   -0.0772   -0.1890 C   0  0  0  0  0  0  0  0  0  0  0  0
  1  2  1  0
  2  3  1  0
  3  4  1  0
  5  4  1  6
  5  6  1  0
  6  7  1  0
  7  8  1  0
  8  9  1  0
  9 10  1  6
 10 11  2  0
 11 12  1  0
 12 13  1  0
 12 14  2  0
 14 15  1  0
 15 16  2  0
 16 17  1  0
  9 18  1  0
 18  5  1  0
 16 10  1  0
M  CHG  1   9   1
M  END
>  <zinc_id>  (1) 
ZINC000004084789

>  <smiles>  (1) 
CCCC[C@@H]1CCC[S@+](c2cc(O)ccc2O)C1

$$$$
