
     RDKit          3D

 33 36  0  0  0  0  0  0  0  0999 V2000
    7.9204   -0.0198    0.1303 C   0  0  0  0  0  0  0  0  0  0  0  0
    6.9811    0.0714   -1.0476 C   0  0  0  0  0  0  0  0  0  0  0  0
    7.0489   -1.2680   -1.7969 C   0  0  0  0  0  0  0  0  0  0  0  0
    6.6001   -2.3214   -0.7759 C   0  0  0  0  0  0  0  0  0  0  0  0
    5.2296   -1.9406   -0.3820 C   0  0  0  0  0  0  0  0  0  0  0  0
    4.1693   -2.4247   -1.0957 C   0  0  0  0  0  0  0  0  0  0  0  0
    2.8630   -2.0756   -0.7547 C   0  0  0  0  0  0  0  0  0  0  0  0
    2.6132   -1.2383    0.3080 C   0  0  0  0  0  0  0  0  0  0  0  0
    1.2938   -0.8618    0.6427 N   0  0  0  0  0  0  0  0  0  0  0  0
    0.4887   -1.3339    1.7031 C   0  0  0  0  0  0  0  0  0  0  0  0
    0.8547   -2.2169    2.5493 O   0  0  0  0  0  0  0  0  0  0  0  0
   -0.8245   -0.6550    1.6781 C   0  0  0  0  0  0  0  0  0  0  0  0
   -2.1273   -0.9372    2.8135 Cl  0  0  0  0  0  0  0  0  0  0  0  0
   -0.8065    0.1772    0.6594 C   0  0  0  0  0  0  0  0  0  0  0  0
   -1.8575    1.0612    0.2272 N   0  0  0  0  0  0  0  0  0  0  0  0
   -2.1372    2.2391    0.9987 C   0  0  0  0  0  0  0  0  0  0  0  0
   -3.0394    3.2071    0.3613 C   0  0  0  0  0  0  0  0  0  0  0  0
   -2.4569    4.3238   -0.2374 C   0  0  0  0  0  0  0  0  0  0  0  0
   -3.1945    5.3051   -0.8747 C   0  0  0  0  0  0  0  0  0  0  0  0
   -4.5617    5.1902   -0.9296 C   0  0  0  0  0  0  0  0  0  0  0  0
   -5.1596    4.0952   -0.3451 C   0  0  0  0  0  0  0  0  0  0  0  0
   -4.4028    3.1002    0.3021 C   0  0  0  0  0  0  0  0  0  0  0  0
   -2.5924    0.6983   -0.9710 C   0  0  0  0  0  0  0  0  0  0  0  0
   -3.1869   -0.6694   -0.7209 C   0  0  0  0  0  0  0  0  0  0  0  0
   -4.4061   -0.6849   -0.0790 C   0  0  0  0  0  0  0  0  0  0  0  0
   -5.0444   -1.8813    0.2156 C   0  0  0  0  0  0  0  0  0  0  0  0
   -4.4492   -3.0705   -0.1390 C   0  0  0  0  0  0  0  0  0  0  0  0
   -3.2348   -3.0311   -0.7762 C   0  0  0  0  0  0  0  0  0  0  0  0
   -2.5816   -1.8317   -1.0789 C   0  0  0  0  0  0  0  0  0  0  0  0
    0.4682    0.1108   -0.0335 C   0  0  0  0  0  0  0  0  0  0  0  0
    0.8420    0.7503   -1.0362 O   0  0  0  0  0  0  0  0  0  0  0  0
    3.6914   -0.7615    1.0165 C   0  0  0  0  0  0  0  0  0  0  0  0
    4.9990   -1.1063    0.6803 C   0  0  0  0  0  0  0  0  0  0  0  0
  1  2  1  0
  2  3  1  0
  3  4  1  0
  4  5  1  0
  5  6  2  0
  6  7  1  0
  7  8  2  0
  8  9  1  0
  9 10  1  0
 10 11  2  0
 10 12  1  0
 12 13  1  0
 12 14  2  0
 14 15  1  0
 15 16  1  0
 16 17  1  0
 17 18  2  0
 18 19  1  0
 19 20  2  0
 20 21  1  0
 21 22  2  0
 15 23  1  0
 23 24  1  0
 24 25  2  0
 25 26  1  0
 26 27  2  0
 27 28  1  0
 28 29  2  0
 14 30  1  0
 30 31  2  0
  8 32  1  0
 32 33  2  0
 33  5  1  0
 30  9  1  0
 22 17  1  0
 29 24  1  0
M  END
>  <zinc_id>  (1) 
ZINC000001977304

>  <smiles>  (1) 
CCCCc1ccc(N2C(=O)C(Cl)=C(N(Cc3ccccc3)Cc3ccccc3)C2=O)cc1

$$$$
