
     RDKit          3D

 31 35  0  0  0  0  0  0  0  0999 V2000
   -7.5870    0.7504   -1.7131 C   0  0  0  0  0  0  0  0  0  0  0  0
   -6.2283    1.2429   -2.1804 C   0  0  0  0  0  0  0  0  0  0  0  0
   -5.2780    1.1888   -1.0458 C   0  0  0  0  0  0  0  0  0  0  0  0
   -5.1356    2.2744   -0.2165 C   0  0  0  0  0  0  0  0  0  0  0  0
   -4.2578    2.2487    0.8432 C   0  0  0  0  0  0  0  0  0  0  0  0
   -3.4848    1.1018    1.0986 C   0  0  0  0  0  0  0  0  0  0  0  0
   -2.6035    1.0950    2.1742 O   0  0  0  0  0  0  0  0  0  0  0  0
   -2.4574    2.2036    3.0217 C   0  0  0  0  0  0  0  0  0  0  0  0
   -3.6290    0.0293    0.2752 C   0  0  0  0  0  0  0  0  0  0  0  0
   -2.7931   -1.2670    0.5272 C   0  0  1  0  0  0  0  0  0  0  0  0
   -3.0053   -1.9749   -0.8780 N   0  0  0  0  0  0  0  0  0  0  0  0
   -2.4145   -3.2940   -0.6182 C   0  0  0  0  0  0  0  0  0  0  0  0
   -1.0379   -3.1437    0.0135 C   0  0  0  0  0  0  0  0  0  0  0  0
   -0.5385   -1.7442   -0.0747 C   0  0  0  0  0  0  0  0  0  0  0  0
   -1.3465   -0.6734    0.1711 C   0  0  0  0  0  0  0  0  0  0  0  0
   -0.7475    0.4427    0.0489 N   0  0  0  0  0  0  0  0  0  0  0  0
    0.5307    0.2238   -0.2941 C   0  0  0  0  0  0  0  0  0  0  0  0
    1.6349    0.9907   -0.5628 C   0  0  0  0  0  0  0  0  0  0  0  0
    2.8606    0.4200   -0.9055 C   0  0  0  0  0  0  0  0  0  0  0  0
    3.0197   -0.9394   -0.9900 C   0  0  0  0  0  0  0  0  0  0  0  0
    4.2149   -1.5568   -1.3264 O   0  0  0  0  0  0  0  0  0  0  0  0
    5.3754   -0.8230   -1.6121 C   0  0  0  0  0  0  0  0  0  0  0  0
    5.7417   -0.0207   -0.4241 C   0  0  0  0  0  0  0  0  0  0  0  0
    6.3962   -0.6598    0.6219 C   0  0  0  0  0  0  0  0  0  0  0  0
    6.7912    0.0052    1.7770 C   0  0  0  0  0  0  0  0  0  0  0  0
    6.5251    1.3446    1.8899 C   0  0  0  0  0  0  0  0  0  0  0  0
    5.8683    2.0130    0.8541 C   0  0  0  0  0  0  0  0  0  0  0  0
    5.4927    1.3210   -0.2738 C   0  0  0  0  0  0  0  0  0  0  0  0
    1.8927   -1.7233   -0.7156 C   0  0  0  0  0  0  0  0  0  0  0  0
    0.6895   -1.1415   -0.3787 C   0  0  0  0  0  0  0  0  0  0  0  0
   -4.4888    0.0658   -0.7559 C   0  0  0  0  0  0  0  0  0  0  0  0
  1  2  1  0
  2  3  1  0
  3  4  2  0
  4  5  1  0
  5  6  2  0
  6  7  1  0
  7  8  1  0
  6  9  1  0
 10  9  1  6
 10 11  1  0
 11 12  1  0
 12 13  1  0
 13 14  1  0
 14 15  2  0
 15 16  1  0
 16 17  1  0
 17 18  2  0
 18 19  1  0
 19 20  2  0
 20 21  1  0
 21 22  1  0
 22 23  1  0
 23 24  2  0
 24 25  1  0
 25 26  2  0
 26 27  1  0
 27 28  2  0
 20 29  1  0
 29 30  2  0
  9 31  2  0
 31  3  1  0
 15 10  1  0
 30 17  1  0
 30 14  1  0
 28 23  1  0
M  END
>  <zinc_id>  (1) 
ZINC000003736694

>  <smiles>  (1) 
CCc1ccc(OC)c([C@H]2NCCc3c2[nH]c2ccc(OCc4ccccc4)cc32)c1

$$$$
