
     RDKit          3D

 22 24  0  0  0  0  0  0  0  0999 V2000
    1.2088    0.3355    1.7713 C   0  0  0  0  0  0  0  0  0  0  0  0
    2.0846    0.8561    0.4750 C   0  0  2  0  0  0  0  0  0  0  0  0
    1.0289    0.5524   -0.5429 O   0  0  0  0  0  0  0  0  0  0  0  0
    0.3416   -0.5227   -0.4206 C   0  0  2  0  0  0  0  0  0  0  0  0
    0.4049   -1.2030   -1.6708 O   0  0  0  0  0  0  0  0  0  0  0  0
   -1.1322   -0.2673   -0.1979 C   0  0  0  0  0  0  0  0  0  0  0  0
   -1.5859    0.2260    1.0124 C   0  0  0  0  0  0  0  0  0  0  0  0
   -2.9124    0.4606    1.2436 C   0  0  0  0  0  0  0  0  0  0  0  0
   -3.8680    0.2100    0.2584 C   0  0  0  0  0  0  0  0  0  0  0  0
   -5.2420    0.4569    0.5118 N   0  0  0  0  0  4  0  0  0  0  0  0
   -6.0733    0.2101   -0.3699 O   0  0  0  0  0  0  0  0  0  0  0  0
   -5.6104    0.9538    1.7369 O   0  0  0  0  0  1  0  0  0  0  0  0
   -3.4030   -0.2760   -0.9315 C   0  0  0  0  0  0  0  0  0  0  0  0
   -2.0754   -0.5103   -1.1613 C   0  0  0  0  0  0  0  0  0  0  0  0
    0.7069   -1.6146    0.5347 C   0  0  0  0  0  0  0  0  0  0  0  0
    2.1659   -1.6037    0.5206 C   0  0  0  0  0  0  0  0  0  0  0  0
    2.8822   -0.4782    0.2930 N   0  0  0  0  0  4  0  0  0  0  0  0
    3.5695   -0.3613   -0.9805 C   0  0  0  0  0  0  0  0  0  0  0  0
    3.9687    1.1019   -1.0810 C   0  0  0  0  0  0  0  0  0  0  0  0
    4.6272    1.5642    0.2301 C   0  0  0  0  0  0  0  0  0  0  0  0
    5.0814    0.2991    0.9139 C   0  0  0  0  0  0  0  0  0  0  0  0
    3.8321   -0.3893    1.4028 C   0  0  0  0  0  0  0  0  0  0  0  0
  2  1  1  1
  2  3  1  0
  3  4  1  0
  4  5  1  6
  4  6  1  0
  6  7  2  0
  7  8  1  0
  8  9  2  0
  9 10  1  0
 10 11  2  0
 10 12  1  0
  9 13  1  0
 13 14  2  0
  4 15  1  0
 15 16  1  0
 16 17  1  0
 17 18  1  0
 18 19  1  0
 19 20  1  0
 20 21  1  0
 21 22  1  0
 17  2  1  0
 14  6  1  0
 22 17  1  0
M  CHG  3  10   1  12  -1  17   1
M  END
>  <zinc_id>  (1) 
ZINC000000162703

>  <smiles>  (1) 
C[C@@H]1O[C@](O)(c2ccc([N+](=O)[O-])cc2)CC[N+]12CCCCC2

$$$$
