
     RDKit          3D

 20 21  0  0  0  0  0  0  0  0999 V2000
   -2.0145    2.6909   -0.9716 C   0  0  0  0  0  0  0  0  0  0  0  0
   -3.0515    2.1457    0.1814 C   0  0  2  0  0  0  0  0  0  0  0  0
   -1.9834    1.1229    0.8757 C   0  0  0  0  0  0  0  0  0  0  0  0
   -1.4238    0.3108   -0.4663 C   0  0  1  0  0  0  0  0  0  0  0  0
   -0.2595   -0.3211    0.3589 O   0  0  0  0  0  0  0  0  0  0  0  0
    0.5975   -1.1146   -0.1760 C   0  0  0  0  0  0  0  0  0  0  0  0
    0.5998   -1.4578   -1.3636 O   0  0  0  0  0  0  0  0  0  0  0  0
    1.8317   -1.8185    0.5798 C   0  0  2  0  0  0  0  0  0  0  0  0
    1.5822   -1.2266    1.9911 O   0  0  0  0  0  0  0  0  0  0  0  0
    2.9516   -0.7015    0.1504 C   0  0  0  0  0  0  0  0  0  0  0  0
    4.0567   -1.2054   -0.4496 C   0  0  0  0  0  0  0  0  0  0  0  0
    5.0328   -0.2829   -0.8294 C   0  0  0  0  0  0  0  0  0  0  0  0
    4.8328    1.0691   -0.5825 C   0  0  0  0  0  0  0  0  0  0  0  0
    3.6673    1.4993    0.0391 C   0  0  0  0  0  0  0  0  0  0  0  0
    2.6979    0.5795    0.4160 C   0  0  0  0  0  0  0  0  0  0  0  0
   -2.5089   -0.9438   -0.2659 C   0  0  0  0  0  0  0  0  0  0  0  0
   -3.8349   -0.2451   -0.0800 C   0  0  0  0  0  0  0  0  0  0  0  0
   -4.0490   -0.0782    1.4091 C   0  0  0  0  0  0  0  0  0  0  0  0
   -4.9649   -1.0703   -0.6090 C   0  0  0  0  0  0  0  0  0  0  0  0
   -3.7600    1.0475   -0.8091 C   0  0  0  0  0  0  0  0  0  0  0  0
  2  1  1  6
  2  3  1  0
  3  4  1  0
  4  5  1  1
  5  6  1  0
  6  7  2  0
  6  8  1  0
  8  9  1  1
  8 10  1  0
 10 11  2  0
 11 12  1  0
 12 13  2  0
 13 14  1  0
 14 15  2  0
  4 16  1  0
 16 17  1  0
 17 18  1  0
 17 19  1  0
 17 20  1  0
 20  2  1  0
 15 10  1  0
M  END
>  <zinc_id>  (1) 
ZINC000000000189

>  <smiles>  (1) 
C[C@@H]1C[C@@H](OC(=O)[C@H](O)c2ccccc2)CC(C)(C)C1

$$$$
