
     RDKit          3D

 34 37  0  0  0  0  0  0  0  0999 V2000
   -0.3859    5.2586    1.4298 C   0  0  0  0  0  0  0  0  0  0  0  0
   -1.6846    4.8741    0.8278 C   0  0  0  0  0  0  0  0  0  0  0  0
   -2.0172    3.5646    0.8050 O   0  0  0  0  0  0  0  0  0  0  0  0
   -2.2064    2.6175    1.7608 C   0  0  0  0  0  0  0  0  0  0  0  0
   -2.1085    2.7999    3.1239 C   0  0  0  0  0  0  0  0  0  0  0  0
   -2.3180    1.7990    4.0272 C   0  0  0  0  0  0  0  0  0  0  0  0
   -2.6577    0.5188    3.5877 C   0  0  0  0  0  0  0  0  0  0  0  0
   -2.7562    0.3247    2.2371 C   0  0  0  0  0  0  0  0  0  0  0  0
   -2.5444    1.3066    1.4009 C   0  0  0  0  0  0  0  0  0  0  0  0
   -2.6148    1.0990   -0.1888 C   0  0  2  0  0  0  0  0  0  0  0  0
   -3.9893    0.4906   -0.2008 O   0  0  0  0  0  0  0  0  0  0  0  0
   -3.8156   -0.2647   -1.3607 N   0  0  0  0  0  0  0  0  0  0  0  0
   -2.6131   -0.9815   -1.0232 C   0  0  0  0  0  0  0  0  0  0  0  0
   -2.4047   -2.3588   -1.4931 C   0  0  0  0  0  0  0  0  0  0  0  0
   -2.8589   -2.7927   -2.7042 C   0  0  0  0  0  0  0  0  0  0  0  0
   -2.6798   -4.0777   -3.1446 C   0  0  0  0  0  0  0  0  0  0  0  0
   -2.0142   -5.0114   -2.3627 C   0  0  0  0  0  0  0  0  0  0  0  0
   -1.5460   -4.5746   -1.1315 C   0  0  0  0  0  0  0  0  0  0  0  0
   -1.7491   -3.2821   -0.7202 C   0  0  0  0  0  0  0  0  0  0  0  0
   -1.8167   -0.2627   -0.3120 C   0  0  0  0  0  0  0  0  0  0  0  0
   -0.5567   -0.5301    0.2840 C   0  0  0  0  0  0  0  0  0  0  0  0
   -0.0258    0.4311    0.9592 O   0  0  0  0  0  0  0  0  0  0  0  0
    0.2069   -1.6953    0.2433 N   0  0  0  0  0  0  0  0  0  0  0  0
    1.4411   -1.9389    0.8677 C   0  0  0  0  0  0  0  0  0  0  0  0
    2.5399   -1.1749    0.2339 C   0  0  0  0  0  0  0  0  0  0  0  0
    2.6981   -1.0571   -1.0891 C   0  0  0  0  0  0  0  0  0  0  0  0
    3.7403   -0.3235   -1.6416 C   0  0  0  0  0  0  0  0  0  0  0  0
    4.6152    0.2855   -0.7633 C   0  0  0  0  0  0  0  0  0  0  0  0
    5.7933    1.1092   -1.2443 C   0  0  0  0  0  0  0  0  0  0  0  0
    6.7715    1.2778   -0.0798 C   0  0  0  0  0  0  0  0  0  0  0  0
    6.4330    0.4691   -2.4384 C   0  0  0  0  0  0  0  0  0  0  0  0
    5.2210    2.4798   -1.5951 C   0  0  0  0  0  0  0  0  0  0  0  0
    4.4633    0.1708    0.5844 C   0  0  0  0  0  0  0  0  0  0  0  0
    3.4402   -0.5507    1.1207 C   0  0  0  0  0  0  0  0  0  0  0  0
  1  2  1  0
  2  3  1  0
  3  4  1  0
  4  5  2  0
  5  6  1  0
  6  7  2  0
  7  8  1  0
  8  9  2  0
 10  9  1  1
 10 11  1  0
 11 12  1  0
 12 13  1  0
 13 14  1  0
 14 15  2  0
 15 16  1  0
 16 17  2  0
 17 18  1  0
 18 19  2  0
 13 20  2  0
 20 21  1  0
 21 22  2  0
 21 23  1  0
 23 24  1  0
 24 25  1  0
 25 26  2  0
 26 27  1  0
 27 28  2  0
 28 29  1  0
 29 30  1  0
 29 31  1  0
 29 32  1  0
 28 33  1  0
 33 34  2  0
  9  4  1  0
 20 10  1  0
 34 25  1  0
 19 14  1  0
M  END
>  <zinc_id>  (1) 
ZINC000002459712

>  <smiles>  (1) 
CCOc1ccccc1[C@@H]1ONC(c2ccccc2)=C1C(=O)NCc1ccc(C(C)(C)C)cc1

$$$$
