
     RDKit          3D

 30 33  0  0  0  0  0  0  0  0999 V2000
    6.1782    3.3474   -0.7401 C   0  0  0  0  0  0  0  0  0  0  0  0
    6.2181    2.2132    0.2649 C   0  0  0  0  0  0  0  0  0  0  0  0
    4.9963    1.2406   -0.3465 C   0  0  1  0  0  0  0  0  0  0  0  0
    5.2634    0.1502    0.8879 C   0  0  0  0  0  0  0  0  0  0  0  0
    3.8423    2.0362    0.4780 C   0  0  0  0  0  0  0  0  0  0  0  0
    2.6478    1.4834    0.1535 O   0  0  0  0  0  0  0  0  0  0  0  0
    2.1110    0.2449    0.2991 C   0  0  0  0  0  0  0  0  0  0  0  0
    2.7680   -0.6627    0.8387 O   0  0  0  0  0  0  0  0  0  0  0  0
    0.7679   -0.0050   -0.1804 C   0  0  0  0  0  0  0  0  0  0  0  0
   -0.1195    0.8854   -0.8099 C   0  0  0  0  0  0  0  0  0  0  0  0
    0.2959    2.2216   -1.0356 N   0  0  0  0  0  0  0  0  0  0  0  0
   -1.2539    0.2556   -1.0909 N   0  0  0  0  0  0  0  0  0  0  0  0
   -2.4484    0.9087   -1.7788 C   0  0  1  0  0  0  0  0  0  0  0  0
   -3.6418   -0.0547   -1.1737 C   0  0  0  0  0  0  0  0  0  0  0  0
   -2.6827    2.1170   -0.7820 C   0  0  0  0  0  0  0  0  0  0  0  0
   -2.2572    3.3549   -1.1383 C   0  0  0  0  0  0  0  0  0  0  0  0
   -2.4064    4.4459   -0.3379 C   0  0  0  0  0  0  0  0  0  0  0  0
   -3.0199    4.2613    0.8849 C   0  0  0  0  0  0  0  0  0  0  0  0
   -3.4559    3.0326    1.2676 C   0  0  0  0  0  0  0  0  0  0  0  0
   -3.2793    1.9482    0.4115 C   0  0  0  0  0  0  0  0  0  0  0  0
   -1.1271   -0.9914   -0.6694 C   0  0  0  0  0  0  0  0  0  0  0  0
   -1.9756   -2.0118   -0.7169 N   0  0  0  0  0  0  0  0  0  0  0  0
   -1.6702   -3.2253   -0.2318 C   0  0  0  0  0  0  0  0  0  0  0  0
   -2.5734   -4.2810   -0.2914 C   0  0  0  0  0  0  0  0  0  0  0  0
   -2.2187   -5.5099    0.2186 C   0  0  0  0  0  0  0  0  0  0  0  0
   -0.9740   -5.7059    0.7897 C   0  0  0  0  0  0  0  0  0  0  0  0
   -0.0854   -4.6597    0.8462 C   0  0  0  0  0  0  0  0  0  0  0  0
   -0.4383   -3.4278    0.3360 C   0  0  0  0  0  0  0  0  0  0  0  0
    0.4341   -2.4066    0.3932 N   0  0  0  0  0  0  0  0  0  0  0  0
    0.1049   -1.2055   -0.0982 C   0  0  0  0  0  0  0  0  0  0  0  0
  1  2  1  0
  2  3  1  0
  3  4  1  1
  3  5  1  0
  5  6  1  0
  6  7  1  0
  7  8  2  0
  7  9  1  0
  9 10  2  0
 10 11  1  0
 10 12  1  0
 12 13  1  0
 13 14  1  1
 13 15  1  0
 15 16  2  0
 16 17  1  0
 17 18  2  0
 18 19  1  0
 19 20  2  0
 12 21  1  0
 21 22  2  0
 22 23  1  0
 23 24  2  0
 24 25  1  0
 25 26  2  0
 26 27  1  0
 27 28  2  0
 28 29  1  0
 29 30  2  0
 30  9  1  0
 20 15  1  0
 30 21  1  0
 28 23  1  0
M  END
>  <zinc_id>  (1) 
ZINC000002220858

>  <smiles>  (1) 
CC[C@@H](C)COC(=O)c1c(N)n([C@@H](C)c2ccccc2)c2nc3ccccc3nc12

$$$$
