
     RDKit          3D

 19 21  0  0  0  0  0  0  0  0999 V2000
    0.0991    3.8869    0.5699 N   0  0  0  0  0  0  0  0  0  0  0  0
    0.0645    2.4711    0.3001 C   0  0  0  0  0  0  0  0  0  0  0  0
   -1.0791    1.7733    0.4244 N   0  0  0  0  0  0  0  0  0  0  0  0
   -1.1297    0.4466    0.1758 C   0  0  0  0  0  0  0  0  0  0  0  0
   -2.3334   -0.3340    0.2977 C   0  0  0  0  0  0  0  0  0  0  0  0
   -3.4931    0.2765    0.6824 C   0  0  0  0  0  0  0  0  0  0  0  0
   -4.6881   -0.4014    0.8225 C   0  0  0  0  0  0  0  0  0  0  0  0
   -4.6800   -1.7541    0.5554 C   0  0  0  0  0  0  0  0  0  0  0  0
   -3.5235   -2.4191    0.1608 C   0  0  0  0  0  0  0  0  0  0  0  0
   -2.3385   -1.6752    0.0359 C   0  0  0  0  0  0  0  0  0  0  0  0
    0.0757   -0.1320   -0.2129 C   0  0  0  0  0  0  0  0  0  0  0  0
    1.2486    0.5731   -0.3425 C   0  0  0  0  0  0  0  0  0  0  0  0
    2.4194   -0.1088   -0.7436 N   0  0  0  0  0  0  0  0  0  0  0  0
    2.3545   -1.5238   -1.0063 C   0  0  0  0  0  0  0  0  0  0  0  0
    3.2699   -2.2040    0.0064 C   0  0  0  0  0  0  0  0  0  0  0  0
    4.1153   -1.1969    0.7523 C   0  0  0  0  0  0  0  0  0  0  0  0
    4.7439   -0.1806   -0.1870 C   0  0  0  0  0  0  0  0  0  0  0  0
    3.6583    0.6123   -0.8850 C   0  0  0  0  0  0  0  0  0  0  0  0
    1.2161    1.8901   -0.0768 N   0  0  0  0  0  0  0  0  0  0  0  0
  1  2  1  0
  2  3  2  0
  3  4  1  0
  4  5  1  0
  5  6  2  0
  6  7  1  0
  7  8  2  0
  8  9  1  0
  9 10  2  0
  4 11  2  0
 11 12  1  0
 12 13  1  0
 13 14  1  0
 14 15  1  0
 15 16  1  0
 16 17  1  0
 17 18  1  0
 12 19  2  0
 19  2  1  0
 10  5  1  0
 18 13  1  0
M  END
>  <zinc_id>  (1) 
ZINC000000448984

>  <smiles>  (1) 
Nc1nc(-c2ccccc2)cc(N2CCCCC2)n1

$$$$
