
     RDKit          3D

 21 24  0  0  0  0  0  0  0  0999 V2000
    4.1858    2.0791   -1.5472 C   0  0  0  0  0  0  0  0  0  0  0  0
    5.0397    1.1475   -0.7120 C   0  0  0  0  0  0  0  0  0  0  0  0
    4.4262    1.0339    0.6697 C   0  0  0  0  0  0  0  0  0  0  0  0
    3.0761    0.5049    0.6020 N   0  0  0  0  0  0  0  0  0  0  0  0
    1.9371    1.3024    0.4689 C   0  0  0  0  0  0  0  0  0  0  0  0
    1.7831    2.4495    0.0720 O   0  0  0  0  0  0  0  0  0  0  0  0
    0.6927    0.4285    0.9608 C   0  0  1  0  0  0  0  0  0  0  0  0
   -0.1301    0.6236   -0.5009 C   0  0  0  0  0  0  0  0  0  0  0  0
   -1.3108   -0.2123   -0.2240 C   0  0  0  0  0  0  0  0  0  0  0  0
   -1.0677   -1.5172    0.1324 C   0  0  0  0  0  0  0  0  0  0  0  0
   -2.2731   -2.0662    0.3326 N   0  0  0  0  0  0  0  0  0  0  0  0
   -3.2503   -1.1666    0.1178 C   0  0  0  0  0  0  0  0  0  0  0  0
   -4.6263   -1.1882    0.1766 C   0  0  0  0  0  0  0  0  0  0  0  0
   -5.3842   -0.0709   -0.1077 C   0  0  0  0  0  0  0  0  0  0  0  0
   -4.7837    1.1146   -0.4631 C   0  0  0  0  0  0  0  0  0  0  0  0
   -3.4288    1.1606   -0.5279 C   0  0  0  0  0  0  0  0  0  0  0  0
   -2.6478    0.0296   -0.2407 C   0  0  0  0  0  0  0  0  0  0  0  0
    0.3574   -2.0065    0.2125 C   0  0  0  0  0  0  0  0  0  0  0  0
    1.2774   -0.9641    0.5581 N   0  0  0  0  0  0  0  0  0  0  0  0
    2.6660   -0.8517    0.6543 C   0  0  0  0  0  0  0  0  0  0  0  0
    3.4615   -1.8307    0.7732 O   0  0  0  0  0  0  0  0  0  0  0  0
  1  2  1  0
  2  3  1  0
  3  4  1  0
  4  5  1  0
  5  6  2  0
  5  7  1  0
  7  8  1  6
  8  9  1  0
  9 10  2  0
 10 11  1  0
 11 12  1  0
 12 13  2  0
 13 14  1  0
 14 15  2  0
 15 16  1  0
 16 17  2  0
 10 18  1  0
 18 19  1  0
 19 20  1  0
 20 21  2  0
 20  4  1  0
 19  7  1  0
 17  9  1  0
 17 12  1  0
M  END
>  <zinc_id>  (1) 
ZINC000000485689

>  <smiles>  (1) 
CCCN1C(=O)[C@H]2Cc3c([nH]c4ccccc34)CN2C1=O

$$$$
