
     RDKit          3D

 22 24  0  0  0  0  0  0  0  0999 V2000
    6.9152    0.1333    0.3082 C   0  0  0  0  0  0  0  0  0  0  0  0
    6.0540   -0.7001   -0.4485 O   0  0  0  0  0  0  0  0  0  0  0  0
    4.6727   -0.5843   -0.2715 C   0  0  0  0  0  0  0  0  0  0  0  0
    4.1243    0.3176    0.6180 C   0  0  0  0  0  0  0  0  0  0  0  0
    2.7600    0.4267    0.7871 C   0  0  0  0  0  0  0  0  0  0  0  0
    1.8619   -0.3508    0.0853 C   0  0  0  0  0  0  0  0  0  0  0  0
    0.4230   -0.2193    0.2783 C   0  0  0  0  0  0  0  0  0  0  0  0
   -0.0144    1.0671    0.6026 C   0  0  0  0  0  0  0  0  0  0  0  0
   -1.2550    1.6285    0.3698 C   0  0  0  0  0  0  0  0  0  0  0  0
   -1.3484    2.9904    0.1642 O   0  0  0  0  0  0  0  0  0  0  0  0
   -2.4470    0.9481    0.3200 C   0  0  0  0  0  0  0  0  0  0  0  0
   -3.7029    1.5381    0.2789 C   0  0  0  0  0  0  0  0  0  0  0  0
   -3.8718    3.0189    0.2857 C   0  0  0  0  0  0  0  0  0  0  0  0
   -4.6182    0.6274    0.2372 O   0  0  0  0  0  0  0  0  0  0  0  0
   -4.0456   -0.5736    0.2477 C   0  0  0  0  0  0  0  0  0  0  0  0
   -4.7241   -1.8893    0.2111 C   0  0  0  0  0  0  0  0  0  0  0  0
   -2.6850   -0.4117    0.2994 C   0  0  0  0  0  0  0  0  0  0  0  0
   -1.7309   -1.4260    0.3258 C   0  0  0  0  0  0  0  0  0  0  0  0
   -2.2008   -2.5867    0.5633 O   0  0  0  0  0  0  0  0  0  0  0  0
   -0.3681   -1.3345    0.1313 C   0  0  0  0  0  0  0  0  0  0  0  0
    2.4188   -1.2559   -0.8076 C   0  0  0  0  0  0  0  0  0  0  0  0
    3.7823   -1.3640   -0.9761 C   0  0  0  0  0  0  0  0  0  0  0  0
  1  2  1  0
  2  3  1  0
  3  4  2  0
  4  5  1  0
  5  6  2  0
  6  7  1  0
  7  8  1  0
  8  9  2  0
  9 10  1  0
  9 11  1  0
 11 12  2  0
 12 13  1  0
 12 14  1  0
 14 15  1  0
 15 16  1  0
 15 17  2  0
 17 18  1  0
 18 19  2  0
 18 20  1  0
  6 21  1  0
 21 22  2  0
 22  3  1  0
 20  7  2  0
 17 11  1  0
M  END
>  <zinc_id>  (1) 
ZINC000000519667

>  <smiles>  (1) 
COc1ccc(-c2cc(O)c3c(C)oc(C)c3c(=O)c2)cc1

$$$$
