
     RDKit          3D

 20 21  0  0  0  0  0  0  0  0999 V2000
   -5.0011    0.4219   -0.6930 C   0  0  0  0  0  0  0  0  0  0  0  0
   -3.7128    0.6903   -0.0028 C   0  0  0  0  0  0  0  0  0  0  0  0
   -3.7450    1.4568    1.1354 C   0  0  0  0  0  0  0  0  0  0  0  0
   -2.5346    1.7087    1.7847 C   0  0  0  0  0  0  0  0  0  0  0  0
   -1.3334    1.2102    1.3083 C   0  0  0  0  0  0  0  0  0  0  0  0
   -1.2998    0.4371    0.1593 C   0  0  0  0  0  0  0  0  0  0  0  0
   -0.0336   -0.0883   -0.3357 C   0  0  0  0  0  0  0  0  0  0  0  0
    0.2576   -0.1515   -1.5593 O   0  0  0  0  0  0  0  0  0  0  0  0
    0.9306   -0.5562    0.5960 N   0  0  0  0  0  0  0  0  0  0  0  0
    2.2134   -1.0867    0.0939 C   0  0  0  0  0  0  0  0  0  0  0  0
    3.0518   -1.5418    1.2230 C   0  0  0  0  0  0  0  0  0  0  0  0
    4.4801   -1.1095    1.0663 C   0  0  0  0  0  0  0  0  0  0  0  0
    4.6289    0.4020    1.0581 C   0  0  0  0  0  0  0  0  0  0  0  0
    5.0464    0.7574   -0.3829 C   0  0  0  0  0  0  0  0  0  0  0  0
    4.1907   -0.2109   -1.2307 C   0  0  0  0  0  0  0  0  0  0  0  0
    2.7887   -0.0215   -0.7586 C   0  0  0  0  0  0  0  0  0  0  0  0
   -2.4994    0.1950   -0.4716 C   0  0  0  0  0  0  0  0  0  0  0  0
   -2.4811   -0.5845   -1.6357 N   0  0  0  0  0  4  0  0  0  0  0  0
   -2.3063   -1.8284   -1.5228 O   0  0  0  0  0  0  0  0  0  0  0  0
   -2.6409   -0.1002   -2.9014 O   0  0  0  0  0  1  0  0  0  0  0  0
  1  2  1  0
  2  3  2  0
  3  4  1  0
  4  5  2  0
  5  6  1  0
  6  7  1  0
  7  8  2  0
  7  9  1  0
  9 10  1  0
 10 11  1  0
 11 12  1  0
 12 13  1  0
 13 14  1  0
 14 15  1  0
 15 16  1  0
  6 17  2  0
 17 18  1  0
 18 19  2  0
 18 20  1  0
 17  2  1  0
 16 10  1  0
M  CHG  2  18   1  20  -1
M  END
>  <zinc_id>  (1) 
ZINC000000463113

>  <smiles>  (1) 
Cc1cccc(C(=O)NC2CCCCCC2)c1[N+](=O)[O-]

$$$$
