
     RDKit          3D

 30 32  0  0  0  0  0  0  0  0999 V2000
   -5.7449   -0.8509   -0.3110 C   0  0  0  0  0  0  0  0  0  0  0  0
   -6.1671    0.6137   -0.1352 C   0  0  0  0  0  0  0  0  0  0  0  0
   -4.9419    1.3529   -0.0730 O   0  0  0  0  0  0  0  0  0  0  0  0
   -4.0914    0.9712    0.9959 C   0  0  0  0  0  0  0  0  0  0  0  0
   -4.3990    0.0822    1.7869 O   0  0  0  0  0  0  0  0  0  0  0  0
   -2.7642    1.7635    1.0731 C   0  0  1  0  0  0  0  0  0  0  0  0
   -2.1101    1.0230    2.2927 C   0  0  0  0  0  0  0  0  0  0  0  0
   -1.8422    0.8483   -0.3078 S   0  0  0  0  0  0  0  0  0  0  0  0
   -1.5889   -0.8446    0.2023 C   0  0  0  0  0  0  0  0  0  0  0  0
   -2.4824   -1.8599   -0.0339 N   0  0  0  0  0  0  0  0  0  0  0  0
   -2.0156   -3.0009    0.4863 C   0  0  0  0  0  0  0  0  0  0  0  0
   -0.8027   -2.7279    1.0689 C   0  0  0  0  0  0  0  0  0  0  0  0
    0.0865   -3.6797    1.7699 C   0  0  0  0  0  0  0  0  0  0  0  0
    1.2364   -3.0977    2.2470 O   0  0  0  0  0  0  0  0  0  0  0  0
   -0.5787   -1.4089    0.8746 N   0  0  0  0  0  0  0  0  0  0  0  0
    0.5933   -0.7487    1.3642 C   0  0  0  0  0  0  0  0  0  0  0  0
    1.7937   -0.7743    0.5292 C   0  0  0  0  0  0  0  0  0  0  0  0
    1.8007   -0.1725   -0.8076 C   0  0  0  0  0  0  0  0  0  0  0  0
    1.5275    1.2775   -0.8879 C   0  0  0  0  0  0  0  0  0  0  0  0
    1.8019    2.1338    0.1570 C   0  0  0  0  0  0  0  0  0  0  0  0
    1.5826    3.4784    0.1412 C   0  0  0  0  0  0  0  0  0  0  0  0
    1.0477    4.0556   -0.9886 C   0  0  0  0  0  0  0  0  0  0  0  0
    0.7556    3.2236   -2.0687 C   0  0  0  0  0  0  0  0  0  0  0  0
    0.9859    1.8657   -2.0301 C   0  0  0  0  0  0  0  0  0  0  0  0
    3.1404   -0.3872   -1.4542 C   0  0  0  0  0  0  0  0  0  0  0  0
    4.3093   -0.3413   -0.7249 C   0  0  0  0  0  0  0  0  0  0  0  0
    5.5464   -0.5355   -1.3037 C   0  0  0  0  0  0  0  0  0  0  0  0
    5.6070   -0.7846   -2.6655 C   0  0  0  0  0  0  0  0  0  0  0  0
    4.4592   -0.8371   -3.4231 C   0  0  0  0  0  0  0  0  0  0  0  0
    3.2549   -0.6377   -2.8020 C   0  0  0  0  0  0  0  0  0  0  0  0
  1  2  1  0
  2  3  1  0
  3  4  1  0
  4  5  2  0
  4  6  1  0
  6  7  1  1
  6  8  1  0
  8  9  1  0
  9 10  2  0
 10 11  1  0
 11 12  2  0
 12 13  1  0
 13 14  1  0
 12 15  1  0
 15 16  1  0
 16 17  1  0
 17 18  1  0
 18 19  1  0
 19 20  2  0
 20 21  1  0
 21 22  2  0
 22 23  1  0
 23 24  2  0
 18 25  1  0
 25 26  2  0
 26 27  1  0
 27 28  2  0
 28 29  1  0
 29 30  2  0
 15  9  1  0
 24 19  1  0
 30 25  1  0
M  END
>  <zinc_id>  (1) 
ZINC000004155518

>  <smiles>  (1) 
CCOC(=O)[C@@H](C)Sc1ncc(CO)n1CCC(c1ccccc1)c1ccccc1

$$$$
