
     RDKit          3D

 35 39  0  0  0  0  0  0  0  0999 V2000
   -8.5851    1.0393    1.1909 C   0  0  0  0  0  0  0  0  0  0  0  0
   -7.8410   -0.1605    0.5440 C   0  0  0  0  0  0  0  0  0  0  0  0
   -7.7389   -1.3424    1.4205 C   0  0  0  0  0  0  0  0  0  0  0  0
   -8.6396   -0.5026   -0.7560 C   0  0  0  0  0  0  0  0  0  0  0  0
   -6.4943    0.2939    0.0723 C   0  0  0  0  0  0  0  0  0  0  0  0
   -6.3267    1.6907   -0.0685 C   0  0  0  0  0  0  0  0  0  0  0  0
   -5.0929    2.1170   -0.4895 C   0  0  0  0  0  0  0  0  0  0  0  0
   -4.0600    1.2479   -0.7738 C   0  0  0  0  0  0  0  0  0  0  0  0
   -4.2261   -0.1484   -0.6353 C   0  0  0  0  0  0  0  0  0  0  0  0
   -5.5035   -0.5649   -0.1995 C   0  0  0  0  0  0  0  0  0  0  0  0
   -3.2855   -1.0602   -0.8890 O   0  0  0  0  0  0  0  0  0  0  0  0
   -1.8785   -0.6547   -1.2584 C   0  0  2  0  0  0  0  0  0  0  0  0
   -1.3298   -0.2181    0.1552 C   0  0  0  0  0  0  0  0  0  0  0  0
   -1.6698   -0.8858    1.1364 O   0  0  0  0  0  0  0  0  0  0  0  0
   -0.4831    0.8971    0.2551 N   0  0  0  0  0  0  0  0  0  0  0  0
    0.0892    1.3226    1.4048 N   0  0  0  0  0  0  0  0  0  0  0  0
    1.2045    1.0953    1.7929 C   0  0  0  0  0  0  0  0  0  0  0  0
    2.2508    0.3355    1.1692 C   0  0  0  0  0  0  0  0  0  0  0  0
    3.4391   -0.0409    1.8011 C   0  0  0  0  0  0  0  0  0  0  0  0
    4.1905   -0.8119    1.0215 N   0  0  0  0  0  0  0  0  0  0  0  0
    5.4941   -1.4944    1.2611 C   0  0  0  0  0  0  0  0  0  0  0  0
    6.5899   -0.5845    0.7223 C   0  0  0  0  0  0  0  0  0  0  0  0
    6.3206    0.2942   -0.2590 C   0  0  0  0  0  0  0  0  0  0  0  0
    7.3512    1.1385   -0.7977 C   0  0  0  0  0  0  0  0  0  0  0  0
    8.5969    1.0331   -0.2943 C   0  0  0  0  0  0  0  0  0  0  0  0
    8.8768    0.1180    0.7238 C   0  0  0  0  0  0  0  0  0  0  0  0
    7.8521   -0.7028    1.2477 C   0  0  0  0  0  0  0  0  0  0  0  0
    3.4951   -0.9405   -0.1368 C   0  0  0  0  0  0  0  0  0  0  0  0
    3.8195   -1.6536   -1.3142 C   0  0  0  0  0  0  0  0  0  0  0  0
    2.9948   -1.6824   -2.3696 C   0  0  0  0  0  0  0  0  0  0  0  0
    1.7712   -0.9921   -2.3297 C   0  0  0  0  0  0  0  0  0  0  0  0
    1.4870   -0.3071   -1.1779 C   0  0  0  0  0  0  0  0  0  0  0  0
    2.2977   -0.2495   -0.0738 C   0  0  0  0  0  0  0  0  0  0  0  0
   -2.1445    0.7281   -2.0200 C   0  0  0  0  0  0  0  0  0  0  0  0
   -2.8218    1.6460   -1.2117 O   0  0  0  0  0  0  0  0  0  0  0  0
  1  2  1  0
  2  3  1  0
  2  4  1  0
  2  5  1  0
  5  6  2  0
  6  7  1  0
  7  8  2  0
  8  9  1  0
  9 10  2  0
  9 11  1  0
 11 12  1  0
 12 13  1  1
 13 14  2  0
 13 15  1  0
 15 16  1  0
 16 17  2  0
 17 18  1  0
 18 19  2  0
 19 20  1  0
 20 21  1  0
 21 22  1  0
 22 23  2  0
 23 24  1  0
 24 25  2  0
 25 26  1  0
 26 27  2  0
 20 28  1  0
 28 29  2  0
 29 30  1  0
 30 31  2  0
 31 32  1  0
 32 33  2  0
 12 34  1  0
 34 35  1  0
 10  5  1  0
 33 18  1  0
 35  8  1  0
 27 22  1  0
 33 28  1  0
M  END
>  <zinc_id>  (1) 
ZINC000004468591

>  <smiles>  (1) 
CC(C)(C)c1ccc2c(c1)O[C@H](C(=O)N/N=C\c1cn(Cc3ccccc3)c3ccccc13)CO2

$$$$
