
     RDKit          3D

 22 24  0  0  0  0  0  0  0  0999 V2000
    4.4974    2.3501    0.1136 C   0  0  0  0  0  0  0  0  0  0  0  0
    3.7314    1.0680    0.2354 C   0  0  0  0  0  0  0  0  0  0  0  0
    2.3598    1.0241    0.0811 C   0  0  0  0  0  0  0  0  0  0  0  0
    1.6699   -0.1683    0.1970 C   0  0  0  0  0  0  0  0  0  0  0  0
    0.2183   -0.2058    0.0323 C   0  0  0  0  0  0  0  0  0  0  0  0
   -0.4069   -1.4320    0.1614 C   0  0  0  0  0  0  0  0  0  0  0  0
   -1.7522   -1.5149    0.0167 C   0  0  0  0  0  0  0  0  0  0  0  0
   -2.4852   -2.8173    0.1457 C   0  0  0  0  0  0  0  0  0  0  0  0
   -2.4952   -0.3877   -0.2572 C   0  0  0  0  0  0  0  0  0  0  0  0
   -3.8602   -0.4204   -0.4126 C   0  0  0  0  0  0  0  0  0  0  0  0
   -4.4939   -1.6400   -0.2855 O   0  0  0  0  0  0  0  0  0  0  0  0
   -4.5895    0.7215   -0.6873 C   0  0  0  0  0  0  0  0  0  0  0  0
   -3.9004    1.9263   -0.8053 C   0  0  0  0  0  0  0  0  0  0  0  0
   -4.6727    3.0452   -1.0813 O   0  0  0  0  0  0  0  0  0  0  0  0
   -2.5504    1.9303   -0.6470 C   0  0  0  0  0  0  0  0  0  0  0  0
   -1.7901    0.8119   -0.3725 C   0  0  0  0  0  0  0  0  0  0  0  0
   -0.4879    0.8603   -0.2272 O   0  0  0  0  0  3  0  0  0  0  0  0
    2.3985   -1.3048    0.4708 C   0  0  0  0  0  0  0  0  0  0  0  0
    3.7741   -1.2633    0.6259 C   0  0  0  0  0  0  0  0  0  0  0  0
    4.5377   -2.5028    0.9208 C   0  0  0  0  0  0  0  0  0  0  0  0
    4.4547   -0.0862    0.5114 C   0  0  0  0  0  0  0  0  0  0  0  0
    5.8427    0.0058    0.6597 O   0  0  0  0  0  0  0  0  0  0  0  0
  1  2  1  0
  2  3  2  0
  3  4  1  0
  4  5  1  0
  5  6  2  0
  6  7  1  0
  7  8  1  0
  7  9  2  0
  9 10  1  0
 10 11  1  0
 10 12  2  0
 12 13  1  0
 13 14  1  0
 13 15  2  0
 15 16  1  0
 16 17  2  0
  4 18  2  0
 18 19  1  0
 19 20  1  0
 19 21  2  0
 21 22  1  0
 21  2  1  0
 17  5  1  0
 16  9  1  0
M  CHG  1  17   1
M  END
>  <zinc_id>  (1) 
ZINC000000006006

>  <smiles>  (1) 
Cc1cc(-c2cc(C)c3c(O)cc(O)cc3[o+]2)cc(C)c1O

$$$$
