
     RDKit          3D

 20 22  0  0  0  0  0  0  0  0999 V2000
   -5.9308    1.7526   -0.1255 C   0  0  0  0  0  0  0  0  0  0  0  0
   -5.3969    0.5207    0.3686 O   0  0  0  0  0  0  0  0  0  0  0  0
   -4.0412    0.2942    0.2044 C   0  0  0  0  0  0  0  0  0  0  0  0
   -3.2376    1.2116   -0.4105 C   0  0  0  0  0  0  0  0  0  0  0  0
   -1.8909    0.9770   -0.5615 C   0  0  0  0  0  0  0  0  0  0  0  0
   -1.3040   -0.2145   -0.0906 C   0  0  0  0  0  0  0  0  0  0  0  0
    0.1204   -0.3891   -0.2938 C   0  0  0  0  0  0  0  0  0  0  0  0
    0.6152   -1.2889   -1.2020 C   0  0  0  0  0  0  0  0  0  0  0  0
   -0.2849   -2.1704   -2.0194 C   0  0  0  0  0  0  0  0  0  0  0  0
    1.9626   -1.4166   -1.3977 N   0  0  0  0  0  0  0  0  0  0  0  0
    2.8517   -0.6760   -0.7155 C   0  0  0  0  0  0  0  0  0  0  0  0
    4.2399   -0.5719   -0.6962 C   0  0  0  0  0  0  0  0  0  0  0  0
    4.5663    0.3837    0.2247 C   0  0  0  0  0  0  0  0  0  0  0  0
    5.9372    0.8686    0.6211 C   0  0  0  0  0  0  0  0  0  0  0  0
    3.4237    0.8555    0.7564 N   0  0  0  0  0  0  0  0  0  0  0  0
    2.3878    0.2067    0.1771 N   0  0  0  0  0  0  0  0  0  0  0  0
    1.0695    0.3646    0.4012 C   0  0  0  0  0  0  0  0  0  0  0  0
    0.5610    1.2931    1.3469 N   0  0  0  0  0  0  0  0  0  0  0  0
   -2.1386   -1.1200    0.5222 C   0  0  0  0  0  0  0  0  0  0  0  0
   -3.5103   -0.8809    0.6779 C   0  0  0  0  0  0  0  0  0  0  0  0
  1  2  1  0
  2  3  1  0
  3  4  2  0
  4  5  1  0
  5  6  2  0
  6  7  1  0
  7  8  1  0
  8  9  1  0
  8 10  2  0
 10 11  1  0
 11 12  2  0
 12 13  1  0
 13 14  1  0
 13 15  2  0
 15 16  1  0
 16 17  1  0
 17 18  1  0
  6 19  1  0
 19 20  2  0
 20  3  1  0
 17  7  2  0
 16 11  1  0
M  END
>  <zinc_id>  (1) 
ZINC000001394939

>  <smiles>  (1) 
COc1ccc(-c2c(C)nc3cc(C)nn3c2N)cc1

$$$$
