
     RDKit          3D

 33 37  0  0  0  0  0  0  0  0999 V2000
   -6.4376   -0.4555   -3.9071 O   0  0  0  0  0  0  0  0  0  0  0  0
   -5.7030    0.7500   -3.7643 C   0  0  0  0  0  0  0  0  0  0  0  0
   -4.7152    0.4926   -2.7022 C   0  0  0  0  0  0  0  0  0  0  0  0
   -5.0738    0.8041   -1.3987 C   0  0  0  0  0  0  0  0  0  0  0  0
   -4.2233    0.5744   -0.3354 C   0  0  0  0  0  0  0  0  0  0  0  0
   -4.6911    0.8835    1.0180 C   0  0  0  0  0  0  0  0  0  0  0  0
   -6.0479    0.7233    1.2784 C   0  0  0  0  0  0  0  0  0  0  0  0
   -6.5259    0.9548    2.5396 C   0  0  0  0  0  0  0  0  0  0  0  0
   -5.6614    1.3406    3.5270 C   0  0  0  0  0  0  0  0  0  0  0  0
   -4.2904    1.5099    3.2928 C   0  0  0  0  0  0  0  0  0  0  0  0
   -3.8305    1.2696    2.0122 C   0  0  0  0  0  0  0  0  0  0  0  0
   -2.9837    0.0233   -0.5544 C   0  0  0  0  0  0  0  0  0  0  0  0
   -2.1100   -0.2291    0.4783 C   0  0  0  0  0  0  0  0  0  0  0  0
   -0.8548   -0.7975    0.2355 C   0  0  0  0  0  0  0  0  0  0  0  0
   -0.4380   -1.1268   -1.0205 C   0  0  0  0  0  0  0  0  0  0  0  0
    0.7830   -1.6906   -1.2921 O   0  0  0  0  0  0  0  0  0  0  0  0
    1.8340   -2.0799   -0.5929 C   0  0  0  0  0  0  0  0  0  0  0  0
    2.6367   -1.1951    0.2225 C   0  0  0  0  0  0  0  0  0  0  0  0
    2.1857   -0.8726    1.5149 C   0  0  0  0  0  0  0  0  0  0  0  0
    2.9603   -0.0623    2.3250 C   0  0  0  0  0  0  0  0  0  0  0  0
    4.1457    0.4093    1.8609 C   0  0  0  0  0  0  0  0  0  0  0  0
    4.6057    0.1055    0.5994 C   0  0  0  0  0  0  0  0  0  0  0  0
    5.9303    0.6492    0.1749 C   0  0  0  0  0  0  0  0  0  0  0  0
    5.7537    1.7809   -0.6317 O   0  0  0  0  0  0  0  0  0  0  0  0
    6.6462   -0.3668   -0.6528 C   0  0  0  0  0  0  0  0  0  0  0  0
    7.2441   -1.5038    0.1223 C   0  0  0  0  0  0  0  0  0  0  0  0
    7.5965   -1.1722    1.4199 O   0  0  0  0  0  0  0  0  0  0  0  0
    8.0226    0.1677    1.4349 C   0  0  0  0  0  0  0  0  0  0  0  0
    6.7756    1.0229    1.3604 C   0  0  0  0  0  0  0  0  0  0  0  0
    3.8661   -0.6924   -0.2303 C   0  0  0  0  0  0  0  0  0  0  0  0
   -1.3479   -0.8588   -2.0514 C   0  0  0  0  0  0  0  0  0  0  0  0
   -2.5794   -0.3047   -1.8388 C   0  0  0  0  0  0  0  0  0  0  0  0
   -3.4723   -0.0536   -2.8834 C   0  0  0  0  0  0  0  0  0  0  0  0
  1  2  1  0
  2  3  1  0
  3  4  2  0
  4  5  1  0
  5  6  1  0
  6  7  2  0
  7  8  1  0
  8  9  2  0
  9 10  1  0
 10 11  2  0
  5 12  2  0
 12 13  1  0
 13 14  2  0
 14 15  1  0
 15 16  1  0
 16 17  1  0
 17 18  1  0
 18 19  2  0
 19 20  1  0
 20 21  2  0
 21 22  1  0
 22 23  1  0
 23 24  1  0
 23 25  1  0
 25 26  1  0
 26 27  1  0
 27 28  1  0
 28 29  1  0
 22 30  2  0
 15 31  2  0
 31 32  1  0
 32 33  2  0
 33  3  1  0
 11  6  1  0
 32 12  1  0
 30 18  1  0
 29 23  1  0
M  END
>  <zinc_id>  (1) 
ZINC000000834466

>  <smiles>  (1) 
OCc1cc(-c2ccccc2)c2ccc(OCc3cccc(C4(O)CCOCC4)c3)cc2c1

$$$$
