
     RDKit          3D

 22 25  0  0  0  0  0  0  0  0999 V2000
   -2.5338   -4.2511    0.5207 C   0  0  0  0  0  0  0  0  0  0  0  0
   -2.6647   -2.7917    0.3428 C   0  0  0  0  0  0  0  0  0  0  0  0
   -3.8909   -2.2093    0.2399 C   0  0  0  0  0  0  0  0  0  0  0  0
   -4.0268   -0.8318    0.0717 C   0  0  0  0  0  0  0  0  0  0  0  0
   -2.8695   -0.0822    0.0137 C   0  0  0  0  0  0  0  0  0  0  0  0
   -2.9861    1.2522   -0.1487 N   0  0  0  0  0  0  0  0  0  0  0  0
   -1.9083    2.0466   -0.2143 C   0  0  0  0  0  0  0  0  0  0  0  0
   -0.6499    1.4923   -0.1142 C   0  0  0  0  0  0  0  0  0  0  0  0
   -0.4380    0.1401    0.0531 C   0  0  0  0  0  0  0  0  0  0  0  0
    0.7630   -0.5168    0.1644 N   0  0  0  0  0  0  0  0  0  0  0  0
    2.0893   -0.1615    0.1588 C   0  0  0  0  0  0  0  0  0  0  0  0
    2.6388    1.0910    0.0256 C   0  0  0  0  0  0  0  0  0  0  0  0
    3.9847    1.3595    0.0308 C   0  0  0  0  0  0  0  0  0  0  0  0
    4.8782    0.3222    0.1782 C   0  0  0  0  0  0  0  0  0  0  0  0
    4.3917   -0.9573    0.3162 C   0  0  0  0  0  0  0  0  0  0  0  0
    5.3197   -2.0045    0.4657 O   0  0  0  0  0  0  0  0  0  0  0  0
    3.0398   -1.1928    0.3070 C   0  0  0  0  0  0  0  0  0  0  0  0
   -1.6174   -0.6312    0.1133 C   0  0  0  0  0  0  0  0  0  0  0  0
   -1.5260   -1.9937    0.2785 C   0  0  0  0  0  0  0  0  0  0  0  0
    0.3090    2.6117   -0.2275 C   0  0  0  0  0  0  0  0  0  0  0  0
   -0.4797    3.7795    0.3190 C   0  0  0  0  0  0  0  0  0  0  0  0
   -1.8233    3.5286   -0.3834 C   0  0  0  0  0  0  0  0  0  0  0  0
  1  2  1  0
  2  3  2  0
  3  4  1  0
  4  5  2  0
  5  6  1  0
  6  7  2  0
  7  8  1  0
  8  9  2  0
  9 10  1  0
 10 11  1  0
 11 12  2  0
 12 13  1  0
 13 14  2  0
 14 15  1  0
 15 16  1  0
 15 17  2  0
  9 18  1  0
 18 19  2  0
  8 20  1  0
 20 21  1  0
 21 22  1  0
 19  2  1  0
 18  5  1  0
 22  7  1  0
 17 11  1  0
M  END
>  <zinc_id>  (1) 
ZINC000000110319

>  <smiles>  (1) 
Cc1ccc2nc3c(c(Nc4cccc(O)c4)c2c1)CCC3

$$$$
