
     RDKit          3D

 31 35  0  0  0  0  0  0  0  0999 V2000
   -6.7107   -2.1495    3.6245 C   0  0  0  0  0  0  0  0  0  0  0  0
   -5.2825   -2.6452    3.6994 C   0  0  0  0  0  0  0  0  0  0  0  0
   -4.4195   -1.6046    3.0127 C   0  0  0  0  0  0  0  0  0  0  0  0
   -3.8894   -0.5670    3.7509 C   0  0  0  0  0  0  0  0  0  0  0  0
   -3.0936    0.3947    3.1259 C   0  0  0  0  0  0  0  0  0  0  0  0
   -2.8811    0.2464    1.7808 C   0  0  0  0  0  0  0  0  0  0  0  0
   -1.9507    1.3919    1.1195 C   0  0  2  0  0  0  0  0  0  0  0  0
   -2.6052    1.3352   -0.3324 N   0  0  0  0  0  0  0  0  0  0  0  0
   -1.8131    2.3666   -0.9873 C   0  0  0  0  0  0  0  0  0  0  0  0
   -0.4187    1.8822   -1.2874 C   0  0  0  0  0  0  0  0  0  0  0  0
   -0.0210    0.7769   -0.3669 C   0  0  0  0  0  0  0  0  0  0  0  0
   -0.7052    0.4962    0.7799 C   0  0  0  0  0  0  0  0  0  0  0  0
   -0.1102   -0.5200    1.3539 N   0  0  0  0  0  0  0  0  0  0  0  0
    0.9569   -0.9195    0.6096 C   0  0  0  0  0  0  0  0  0  0  0  0
    1.8997   -1.9131    0.7506 C   0  0  0  0  0  0  0  0  0  0  0  0
    2.9022   -2.0875   -0.1991 C   0  0  0  0  0  0  0  0  0  0  0  0
    2.9963   -1.2814   -1.3137 C   0  0  0  0  0  0  0  0  0  0  0  0
    4.0062   -1.4696   -2.2548 O   0  0  0  0  0  0  0  0  0  0  0  0
    4.1723   -0.7066   -3.3993 C   0  0  0  0  0  0  0  0  0  0  0  0
    4.3937    0.7229   -3.1716 C   0  0  0  0  0  0  0  0  0  0  0  0
    3.3882    1.6607   -3.0966 C   0  0  0  0  0  0  0  0  0  0  0  0
    3.6592    2.9921   -2.8807 C   0  0  0  0  0  0  0  0  0  0  0  0
    4.9910    3.3936   -2.7350 C   0  0  0  0  0  0  0  0  0  0  0  0
    6.0295    2.4879   -2.8031 C   0  0  0  0  0  0  0  0  0  0  0  0
    5.6886    1.1703   -3.0215 C   0  0  0  0  0  0  0  0  0  0  0  0
    2.0431   -0.2911   -1.4386 C   0  0  0  0  0  0  0  0  0  0  0  0
    1.0381   -0.1000   -0.5067 C   0  0  0  0  0  0  0  0  0  0  0  0
   -3.3813   -0.7426    1.0547 C   0  0  0  0  0  0  0  0  0  0  0  0
   -3.0928   -0.7857   -0.3114 O   0  0  0  0  0  0  0  0  0  0  0  0
   -3.6263   -1.8449   -1.0980 C   0  0  0  0  0  0  0  0  0  0  0  0
   -4.1637   -1.6890    1.6668 C   0  0  0  0  0  0  0  0  0  0  0  0
  1  2  1  0
  2  3  1  0
  3  4  2  0
  4  5  1  0
  5  6  2  0
  7  6  1  1
  7  8  1  0
  8  9  1  0
  9 10  1  0
 10 11  1  0
 11 12  2  0
 12 13  1  0
 13 14  1  0
 14 15  2  0
 15 16  1  0
 16 17  2  0
 17 18  1  0
 18 19  1  0
 19 20  1  0
 20 21  2  0
 21 22  1  0
 22 23  2  0
 23 24  1  0
 24 25  2  0
 17 26  1  0
 26 27  2  0
  6 28  1  0
 28 29  1  0
 29 30  1  0
 28 31  2  0
 31  3  1  0
 12  7  1  0
 27 14  1  0
 27 11  1  0
 25 20  1  0
M  END
>  <zinc_id>  (1) 
ZINC000003737832

>  <smiles>  (1) 
CCc1ccc([C@@H]2NCCc3c2[nH]c2ccc(OCc4ccccc4)cc32)c(OC)c1

$$$$
