
     RDKit          3D

 33 36  0  0  0  0  0  0  0  0999 V2000
   -7.8114   -1.8042    2.3631 C   0  0  0  0  0  0  0  0  0  0  0  0
   -7.4686   -0.4174    2.8808 C   0  0  0  0  0  0  0  0  0  0  0  0
   -6.0925   -0.1318    2.7076 O   0  0  0  0  0  0  0  0  0  0  0  0
   -5.4934   -0.1245    1.4323 C   0  0  0  0  0  0  0  0  0  0  0  0
   -6.2536   -0.3857    0.4679 O   0  0  0  0  0  0  0  0  0  0  0  0
   -4.0881    0.1677    1.2591 C   0  0  0  0  0  0  0  0  0  0  0  0
   -3.5665    0.1575   -0.0140 C   0  0  0  0  0  0  0  0  0  0  0  0
   -2.2127    0.4378   -0.1849 C   0  0  0  0  0  0  0  0  0  0  0  0
   -1.3793    0.7231    0.8593 C   0  0  0  0  0  0  0  0  0  0  0  0
   -0.0113    1.0129    0.7149 N   0  0  0  0  0  0  0  0  0  0  0  0
    0.4068    1.0051   -0.8031 C   0  0  1  0  0  0  0  0  0  0  0  0
    1.8866    1.4957   -0.5734 C   0  0  0  0  0  0  0  0  0  0  0  0
    2.0431    2.5969    0.2173 C   0  0  0  0  0  0  0  0  0  0  0  0
    3.3473    3.0847    0.4764 C   0  0  0  0  0  0  0  0  0  0  0  0
    4.4394    2.4427   -0.0717 C   0  0  0  0  0  0  0  0  0  0  0  0
    5.7496    2.9164    0.1777 O   0  0  0  0  0  0  0  0  0  0  0  0
    5.8700    4.0641    0.9938 C   0  0  0  0  0  0  0  0  0  0  0  0
    4.2494    1.3388   -0.8623 C   0  0  0  0  0  0  0  0  0  0  0  0
    5.2843    0.6354   -1.4518 O   0  0  0  0  0  0  0  0  0  0  0  0
    5.0525   -0.4991   -2.2621 C   0  0  0  0  0  0  0  0  0  0  0  0
    2.9639    0.9008   -1.0866 C   0  0  0  0  0  0  0  0  0  0  0  0
    0.7209   -0.5280   -1.0312 C   0  0  0  0  0  0  0  0  0  0  0  0
    1.2336   -0.9520   -2.2345 C   0  0  0  0  0  0  0  0  0  0  0  0
    1.5652   -0.1890   -3.4569 C   0  0  0  0  0  0  0  0  0  0  0  0
    1.4166   -2.3069   -2.1499 N   0  0  0  0  0  0  0  0  0  0  0  0
    1.0309   -2.7281   -0.9274 C   0  0  0  0  0  0  0  0  0  0  0  0
    0.9767   -3.9175   -0.2629 C   0  0  0  0  0  0  0  0  0  0  0  0
    0.5178   -4.0182    1.0301 C   0  0  0  0  0  0  0  0  0  0  0  0
    0.0864   -2.8816    1.7107 C   0  0  0  0  0  0  0  0  0  0  0  0
    0.1445   -1.6847    1.0317 C   0  0  0  0  0  0  0  0  0  0  0  0
    0.6028   -1.5887   -0.2584 C   0  0  0  0  0  0  0  0  0  0  0  0
   -1.9312    0.7272    2.1360 C   0  0  0  0  0  0  0  0  0  0  0  0
   -3.2797    0.4504    2.3315 C   0  0  0  0  0  0  0  0  0  0  0  0
  1  2  1  0
  2  3  1  0
  3  4  1  0
  4  5  2  0
  4  6  1  0
  6  7  2  0
  7  8  1  0
  8  9  2  0
  9 10  1  0
 11 10  1  1
 11 12  1  0
 12 13  2  0
 13 14  1  0
 14 15  2  0
 15 16  1  0
 16 17  1  0
 15 18  1  0
 18 19  1  0
 19 20  1  0
 18 21  2  0
 11 22  1  0
 22 23  2  0
 23 24  1  0
 23 25  1  0
 25 26  1  0
 26 27  2  0
 27 28  1  0
 28 29  2  0
 29 30  1  0
 30 31  2  0
  9 32  1  0
 32 33  2  0
 33  6  1  0
 21 12  1  0
 31 22  1  0
 31 26  1  0
M  END
>  <zinc_id>  (1) 
ZINC000000956922

>  <smiles>  (1) 
CCOC(=O)c1ccc(N[C@@H](c2ccc(OC)c(OC)c2)c2c(C)[nH]c3ccccc23)cc1

$$$$
