
     RDKit          3D

 22 24  0  0  0  0  0  0  0  0999 V2000
    0.2012    2.0803   -0.5628 O   0  0  0  0  0  0  0  0  0  0  0  0
    0.4345    0.8897   -0.2369 C   0  0  0  0  0  0  0  0  0  0  0  0
   -0.6580    0.0449    0.0640 N   0  0  0  0  0  0  0  0  0  0  0  0
   -1.9735    0.5543   -0.0082 C   0  0  0  0  0  0  0  0  0  0  0  0
   -2.1635    1.8662   -0.3710 C   0  0  0  0  0  0  0  0  0  0  0  0
   -3.4129    2.4414   -0.4656 C   0  0  0  0  0  0  0  0  0  0  0  0
   -4.4918    1.6305   -0.1751 C   0  0  0  0  0  0  0  0  0  0  0  0
   -4.3300    0.3162    0.1899 C   0  0  0  0  0  0  0  0  0  0  0  0
   -3.0715   -0.2308    0.2760 C   0  0  0  0  0  0  0  0  0  0  0  0
   -2.8126   -1.6387    0.6623 C   0  0  0  0  0  0  0  0  0  0  0  0
   -4.0359   -2.4712    0.7759 C   0  0  0  0  0  0  0  0  0  0  0  0
   -5.2173   -1.9272    0.0113 C   0  0  0  0  0  0  0  0  0  0  0  0
   -5.5154   -0.5277    0.4956 C   0  0  0  0  0  0  0  0  0  0  0  0
    1.8235    0.4653   -0.1929 C   0  0  0  0  0  0  0  0  0  0  0  0
    2.0377   -0.8669    0.1744 C   0  0  0  0  0  0  0  0  0  0  0  0
    3.3481   -1.2822    0.2201 C   0  0  0  0  0  0  0  0  0  0  0  0
    4.3888   -0.4308   -0.0799 C   0  0  0  0  0  0  0  0  0  0  0  0
    5.7376   -0.9241   -0.0141 N   0  0  0  0  0  4  0  0  0  0  0  0
    5.9478   -2.0994    0.3088 O   0  0  0  0  0  0  0  0  0  0  0  0
    6.7701   -0.0791   -0.3118 O   0  0  0  0  0  1  0  0  0  0  0  0
    4.1464    0.8773   -0.4388 C   0  0  0  0  0  0  0  0  0  0  0  0
    2.8469    1.3120   -0.4906 C   0  0  0  0  0  0  0  0  0  0  0  0
  1  2  2  0
  2  3  1  0
  3  4  1  0
  4  5  2  0
  5  6  1  0
  6  7  2  0
  7  8  1  0
  8  9  2  0
  9 10  1  0
 10 11  1  0
 11 12  1  0
 12 13  1  0
  2 14  1  0
 14 15  2  0
 15 16  1  0
 16 17  2  0
 17 18  1  0
 18 19  2  0
 18 20  1  0
 17 21  1  0
 21 22  2  0
  9  4  1  0
 22 14  1  0
 13  8  1  0
M  CHG  2  18   1  20  -1
M  END
>  <zinc_id>  (1) 
ZINC000000335546

>  <smiles>  (1) 
O=C(Nc1cccc2c1CCCC2)c1ccc([N+](=O)[O-])cc1

$$$$
