
     RDKit          3D

 19 21  0  0  0  0  0  0  0  0999 V2000
   -5.4006    2.4216    0.6136 C   0  0  0  0  0  0  0  0  0  0  0  0
   -4.3195    1.4655    0.2361 C   0  0  0  0  0  0  0  0  0  0  0  0
   -3.1134    1.7060   -0.3894 C   0  0  0  0  0  0  0  0  0  0  0  0
   -2.4294    0.5053   -0.5357 C   0  0  0  0  0  0  0  0  0  0  0  0
   -1.2034    0.1534   -1.0796 C   0  0  0  0  0  0  0  0  0  0  0  0
   -0.7536   -1.1500   -1.0968 C   0  0  0  0  0  0  0  0  0  0  0  0
    0.5432   -1.5832   -1.6696 C   0  0  0  0  0  0  0  0  0  0  0  0
    1.6706   -0.8085   -1.3092 N   0  0  0  0  0  0  0  0  0  0  0  0
    2.3493   -0.8412   -0.0667 C   0  0  0  0  0  0  0  0  0  0  0  0
    1.9032   -1.6358    0.7965 O   0  0  0  0  0  0  0  0  0  0  0  0
    3.5101   -0.0028    0.2160 C   0  0  0  0  0  0  0  0  0  0  0  0
    4.0779    0.8879   -0.6428 C   0  0  0  0  0  0  0  0  0  0  0  0
    5.1368    1.5730   -0.2258 C   0  0  0  0  0  0  0  0  0  0  0  0
    5.5864    1.3351    1.0458 C   0  0  0  0  0  0  0  0  0  0  0  0
    4.4866    0.1474    1.5970 S   0  0  0  0  0  0  0  0  0  0  0  0
   -1.5852   -2.1050   -0.5424 C   0  0  0  0  0  0  0  0  0  0  0  0
   -2.8189   -1.7601    0.0066 C   0  0  0  0  0  0  0  0  0  0  0  0
   -3.2582   -0.4512    0.0176 C   0  0  0  0  0  0  0  0  0  0  0  0
   -4.3819    0.1424    0.4728 N   0  0  0  0  0  0  0  0  0  0  0  0
  1  2  1  0
  2  3  2  0
  3  4  1  0
  4  5  2  0
  5  6  1  0
  6  7  1  0
  7  8  1  0
  8  9  1  0
  9 10  2  0
  9 11  1  0
 11 12  2  0
 12 13  1  0
 13 14  2  0
 14 15  1  0
  6 16  2  0
 16 17  1  0
 17 18  2  0
 18 19  1  0
 19  2  1  0
 18  4  1  0
 15 11  1  0
M  END
>  <zinc_id>  (1) 
ZINC000004138128

>  <smiles>  (1) 
Cc1cc2cc(CNC(=O)c3cccs3)ccc2[nH]1

$$$$
