
     RDKit          3D

 20 22  0  0  0  0  0  0  0  0999 V2000
   -0.1173   -2.3908    0.2264 N   0  0  0  0  0  0  0  0  0  0  0  0
    0.3960   -1.3357    0.1929 C   0  0  0  0  0  0  0  0  0  0  0  0
    1.0514   -0.0180    0.1750 C   0  0  0  0  0  0  0  0  0  0  0  0
    0.4624    1.0266    0.8285 C   0  0  0  0  0  0  0  0  0  0  0  0
   -0.7504    1.1601    1.5542 N   0  0  0  0  0  0  0  0  0  0  0  0
   -1.7309    0.1581    1.7219 C   0  0  0  0  0  0  0  0  0  0  0  0
   -2.4404   -0.0883    0.4171 C   0  0  0  0  0  0  0  0  0  0  0  0
   -2.1572    0.6138   -0.7333 C   0  0  0  0  0  0  0  0  0  0  0  0
   -2.8233    0.3892   -1.9167 C   0  0  0  0  0  0  0  0  0  0  0  0
   -3.8244   -0.5795   -1.9748 C   0  0  0  0  0  0  0  0  0  0  0  0
   -4.1154   -1.2866   -0.8314 C   0  0  0  0  0  0  0  0  0  0  0  0
   -3.4437   -1.0532    0.3428 C   0  0  0  0  0  0  0  0  0  0  0  0
   -3.7459   -1.7730    1.4902 O   0  0  0  0  0  0  0  0  0  0  0  0
    1.5787    2.3136    0.5587 S   0  0  0  0  0  0  0  0  0  0  0  0
    2.7369    1.4777   -0.3662 C   0  0  0  0  0  0  0  0  0  0  0  0
    2.2196    0.2132   -0.4393 C   0  0  0  0  0  0  0  0  0  0  0  0
    3.1055   -0.7290   -1.2370 C   0  0  0  0  0  0  0  0  0  0  0  0
    4.5252   -0.6483   -0.7364 C   0  0  0  0  0  0  0  0  0  0  0  0
    5.0213    0.7489   -0.5610 C   0  0  0  0  0  0  0  0  0  0  0  0
    4.0520    1.8014   -1.0385 C   0  0  0  0  0  0  0  0  0  0  0  0
  1  2  3  0
  2  3  1  0
  3  4  2  0
  4  5  1  0
  5  6  1  0
  6  7  1  0
  7  8  2  0
  8  9  1  0
  9 10  2  0
 10 11  1  0
 11 12  2  0
 12 13  1  0
  4 14  1  0
 14 15  1  0
 15 16  2  0
 16 17  1  0
 17 18  1  0
 18 19  1  0
 19 20  1  0
 16  3  1  0
 12  7  1  0
 20 15  1  0
M  END
>  <zinc_id>  (1) 
ZINC000000562967

>  <smiles>  (1) 
N#Cc1c(NCc2ccccc2O)sc2c1CCCC2

$$$$
