
     RDKit          3D

 31 34  0  0  0  0  0  0  0  0999 V2000
    2.2349    1.5369    2.8643 C   0  0  0  0  0  0  0  0  0  0  0  0
    3.3345    0.5456    3.0944 C   0  0  0  0  0  0  0  0  0  0  0  0
    4.2840    0.5173    1.9457 C   0  0  0  0  0  0  0  0  0  0  0  0
    5.5037    1.1172    2.0384 C   0  0  0  0  0  0  0  0  0  0  0  0
    6.3616    1.0797    0.9699 C   0  0  0  0  0  0  0  0  0  0  0  0
    6.0421    0.4543   -0.2114 C   0  0  0  0  0  0  0  0  0  0  0  0
    4.7899   -0.1507   -0.2806 C   0  0  0  0  0  0  0  0  0  0  0  0
    4.3556   -0.8464   -1.5314 C   0  0  0  0  0  0  0  0  0  0  0  0
    3.3969    0.0057   -2.3430 C   0  0  0  0  0  0  0  0  0  0  0  0
    3.9193   -0.1237    0.7773 C   0  0  0  0  0  0  0  0  0  0  0  0
    2.6128   -0.7604    0.7195 N   0  0  0  0  0  0  0  0  0  0  0  0
    2.5123   -2.1169    1.0999 C   0  0  0  0  0  0  0  0  0  0  0  0
    3.5503   -2.7181    1.4610 O   0  0  0  0  0  0  0  0  0  0  0  0
    1.2461   -2.8293    1.0860 C   0  0  0  0  0  0  0  0  0  0  0  0
    0.1191   -2.0957    0.7097 O   0  0  0  0  0  0  0  0  0  0  0  0
   -0.1155   -1.4696   -0.4870 C   0  0  0  0  0  0  0  0  0  0  0  0
    0.7782   -1.5621   -1.3601 O   0  0  0  0  0  0  0  0  0  0  0  0
   -1.3217   -0.7153   -0.7955 C   0  0  0  0  0  0  0  0  0  0  0  0
   -2.3717   -0.5109   -0.0088 O   0  0  0  0  0  0  0  0  0  0  0  0
   -3.2668    0.2195   -0.6338 C   0  0  0  0  0  0  0  0  0  0  0  0
   -2.8368    0.5410   -1.8993 C   0  0  0  0  0  0  0  0  0  0  0  0
   -3.5723    1.3062   -2.7957 C   0  0  0  0  0  0  0  0  0  0  0  0
   -4.8160    1.7624   -2.3608 C   0  0  0  0  0  0  0  0  0  0  0  0
   -5.2587    1.4494   -1.0999 C   0  0  0  0  0  0  0  0  0  0  0  0
   -6.4787    1.8960   -0.6794 C   0  0  0  0  0  0  0  0  0  0  0  0
   -6.9682    1.6065    0.5754 C   0  0  0  0  0  0  0  0  0  0  0  0
   -6.2202    0.8420    1.4559 C   0  0  0  0  0  0  0  0  0  0  0  0
   -4.9889    0.3916    1.0301 C   0  0  0  0  0  0  0  0  0  0  0  0
   -4.5099    0.6891   -0.2316 C   0  0  0  0  0  0  0  0  0  0  0  0
   -1.5823   -0.0720   -1.9817 C   0  0  0  0  0  0  0  0  0  0  0  0
   -0.7336    0.0105   -3.1979 C   0  0  0  0  0  0  0  0  0  0  0  0
  1  2  1  0
  2  3  1  0
  3  4  2  0
  4  5  1  0
  5  6  2  0
  6  7  1  0
  7  8  1  0
  8  9  1  0
  7 10  2  0
 10 11  1  0
 11 12  1  0
 12 13  2  0
 12 14  1  0
 14 15  1  0
 15 16  1  0
 16 17  2  0
 16 18  1  0
 18 19  1  0
 19 20  1  0
 20 21  2  0
 21 22  1  0
 22 23  2  0
 23 24  1  0
 24 25  2  0
 25 26  1  0
 26 27  2  0
 27 28  1  0
 28 29  2  0
 21 30  1  0
 30 31  1  0
 10  3  1  0
 30 18  2  0
 29 20  1  0
 29 24  1  0
M  END
>  <zinc_id>  (1) 
ZINC000002639735

>  <smiles>  (1) 
CCc1cccc(CC)c1NC(=O)COC(=O)c1oc2c(ccc3ccccc32)c1C

$$$$
