
     RDKit          3D

 21 24  0  0  0  0  0  0  0  0999 V2000
    0.7500    1.7230   -2.1453 N   0  0  0  0  0  0  0  0  0  0  0  0
    0.2395    0.8646   -1.1334 C   0  0  0  0  0  0  0  0  0  0  0  0
   -1.0849    0.8089   -0.9856 N   0  0  0  0  0  0  0  0  0  0  0  0
   -1.7241    0.0598   -0.0902 C   0  0  0  0  0  0  0  0  0  0  0  0
   -3.1722    0.0744   -0.0147 C   0  0  0  0  0  0  0  0  0  0  0  0
   -3.9407    0.8526   -0.8538 C   0  0  0  0  0  0  0  0  0  0  0  0
   -5.2996    0.8724   -0.7899 C   0  0  0  0  0  0  0  0  0  0  0  0
   -5.9575    0.1224    0.1078 N   0  0  0  0  0  0  0  0  0  0  0  0
   -5.2268   -0.6472    0.9394 C   0  0  0  0  0  0  0  0  0  0  0  0
   -3.8613   -0.6971    0.9094 C   0  0  0  0  0  0  0  0  0  0  0  0
   -0.9548   -0.6931    0.7200 N   0  0  0  0  0  0  0  0  0  0  0  0
    0.4059   -0.6756    0.6134 C   0  0  0  0  0  0  0  0  0  0  0  0
    1.6718   -1.4693    1.4385 S   0  0  0  0  0  0  0  0  0  0  0  0
    3.0026   -0.8110    0.6028 C   0  0  0  0  0  0  0  0  0  0  0  0
    2.4101    0.0217   -0.3097 C   0  0  0  0  0  0  0  0  0  0  0  0
    1.0696    0.0914   -0.3040 C   0  0  0  0  0  0  0  0  0  0  0  0
    3.2689    0.8220   -1.2774 C   0  0  0  0  0  0  0  0  0  0  0  0
    4.4198    1.4541   -0.5700 C   0  0  0  0  0  0  0  0  0  0  0  0
    4.3634    1.2982    0.9277 C   0  0  0  0  0  0  0  0  0  0  0  0
    5.1846    0.1002    1.3274 C   0  0  0  0  0  0  0  0  0  0  0  0
    4.4356   -1.1404    0.8875 C   0  0  0  0  0  0  0  0  0  0  0  0
  1  2  1  0
  2  3  2  0
  3  4  1  0
  4  5  1  0
  5  6  2  0
  6  7  1  0
  7  8  2  0
  8  9  1  0
  9 10  2  0
  4 11  2  0
 11 12  1  0
 12 13  1  0
 13 14  1  0
 14 15  2  0
 15 16  1  0
 15 17  1  0
 17 18  1  0
 18 19  1  0
 19 20  1  0
 20 21  1  0
 16  2  1  0
 10  5  1  0
 16 12  2  0
 21 14  1  0
M  END
>  <zinc_id>  (1) 
ZINC000000137198

>  <smiles>  (1) 
Nc1nc(-c2ccncc2)nc2sc3c(c12)CCCCC3

$$$$
