
     RDKit          3D

 20 21  0  0  0  0  0  0  0  0999 V2000
   -0.1990    2.0158    3.4298 C   0  0  0  0  0  0  0  0  0  0  0  0
   -0.5162    0.8827    2.5341 C   0  0  0  0  0  0  0  0  0  0  0  0
   -1.5864    0.2810    2.6734 O   0  0  0  0  0  0  0  0  0  0  0  0
    0.5080    0.5528    1.5144 C   0  0  0  0  0  0  0  0  0  0  0  0
    2.0145    1.2994    1.2147 S   0  0  0  0  0  0  0  0  0  0  0  0
    2.5596    0.3582   -0.0893 C   0  0  0  0  0  0  0  0  0  0  0  0
    3.8128    0.3727   -0.9128 C   0  0  0  0  0  0  0  0  0  0  0  0
    5.0205    0.6201    0.0081 C   0  0  0  0  0  0  0  0  0  0  0  0
    3.7652    1.4159   -1.9879 C   0  0  0  0  0  0  0  0  0  0  0  0
    4.0807   -1.0112   -1.5007 C   0  0  0  0  0  0  0  0  0  0  0  0
    1.5478   -0.5103   -0.2506 C   0  0  0  0  0  0  0  0  0  0  0  0
    0.4835   -0.4342    0.5587 C   0  0  0  0  0  0  0  0  0  0  0  0
   -0.8880   -1.5976    0.3567 S   0  0  0  0  0  0  0  0  0  0  0  0
   -2.2022   -0.9664   -0.6034 C   0  0  0  0  0  0  0  0  0  0  0  0
   -3.3088   -0.4320    0.0069 C   0  0  0  0  0  0  0  0  0  0  0  0
   -4.3701    0.0798   -0.7126 C   0  0  0  0  0  0  0  0  0  0  0  0
   -4.3175    0.0550   -2.0740 C   0  0  0  0  0  0  0  0  0  0  0  0
   -3.2053   -0.4795   -2.7184 C   0  0  0  0  0  0  0  0  0  0  0  0
   -2.1597   -0.9846   -1.9707 C   0  0  0  0  0  0  0  0  0  0  0  0
   -1.0393   -1.5177   -2.6390 N   0  0  0  0  0  0  0  0  0  0  0  0
  1  2  1  0
  2  3  2  0
  2  4  1  0
  4  5  1  0
  5  6  1  0
  6  7  1  0
  7  8  1  0
  7  9  1  0
  7 10  1  0
  6 11  2  0
 11 12  1  0
 12 13  1  0
 13 14  1  0
 14 15  2  0
 15 16  1  0
 16 17  2  0
 17 18  1  0
 18 19  2  0
 19 20  1  0
 12  4  2  0
 19 14  1  0
M  END
>  <zinc_id>  (1) 
ZINC000000082450

>  <smiles>  (1) 
CC(=O)c1sc(C(C)(C)C)cc1Sc1ccccc1N

$$$$
