
     RDKit          3D

 19 21  0  0  0  0  0  0  0  0999 V2000
   -4.5533    2.2006   -1.7506 C   0  0  0  0  0  0  0  0  0  0  0  0
   -3.7595    1.3018   -0.8311 C   0  0  0  0  0  0  0  0  0  0  0  0
   -4.2929    0.3151    0.4477 S   0  0  0  0  0  0  0  0  0  0  0  0
   -2.7865   -0.3377    0.9372 C   0  0  0  0  0  0  0  0  0  0  0  0
   -2.3810   -1.2172    1.9080 N   0  0  0  0  0  0  0  0  0  0  0  0
   -1.0880   -1.5563    2.0643 C   0  0  0  0  0  0  0  0  0  0  0  0
   -0.2131   -0.9890    1.2202 N   0  0  0  0  0  0  0  0  0  0  0  0
   -0.5595   -0.1310    0.2635 C   0  0  0  0  0  0  0  0  0  0  0  0
    0.4779    0.3858   -0.5517 N   0  0  0  0  0  0  0  0  0  0  0  0
    1.8352    0.0128   -0.3673 C   0  0  0  0  0  0  0  0  0  0  0  0
    2.2236   -0.8742    0.6158 C   0  0  0  0  0  0  0  0  0  0  0  0
    3.5503   -1.2190    0.7725 C   0  0  0  0  0  0  0  0  0  0  0  0
    4.5465   -0.7050   -0.0314 C   0  0  0  0  0  0  0  0  0  0  0  0
    5.8813   -1.0612    0.1373 O   0  0  0  0  0  0  0  0  0  0  0  0
    4.1599    0.1819   -1.0147 C   0  0  0  0  0  0  0  0  0  0  0  0
    2.8326    0.5258   -1.1702 C   0  0  0  0  0  0  0  0  0  0  0  0
   -1.9044    0.2428    0.0757 C   0  0  0  0  0  0  0  0  0  0  0  0
   -2.4055    1.0933   -0.8422 C   0  0  0  0  0  0  0  0  0  0  0  0
   -1.5637    1.8306   -1.8828 C   0  0  0  0  0  0  0  0  0  0  0  0
  1  2  1  0
  2  3  1  0
  3  4  1  0
  4  5  2  0
  5  6  1  0
  6  7  2  0
  7  8  1  0
  8  9  1  0
  9 10  1  0
 10 11  2  0
 11 12  1  0
 12 13  2  0
 13 14  1  0
 13 15  1  0
 15 16  2  0
  8 17  2  0
 17 18  1  0
 18 19  1  0
 18  2  2  0
 17  4  1  0
 16 10  1  0
M  END
>  <zinc_id>  (1) 
ZINC000000148656

>  <smiles>  (1) 
Cc1sc2ncnc(Nc3ccc(O)cc3)c2c1C

$$$$
