
     RDKit          3D

 21 23  0  0  0  0  0  0  0  0999 V2000
    2.1662   -1.9325   -1.3384 C   0  0  0  0  0  0  0  0  0  0  0  0
    1.2284   -0.8226   -0.9494 C   0  0  0  0  0  0  0  0  0  0  0  0
   -0.1124   -0.7159   -1.2458 C   0  0  0  0  0  0  0  0  0  0  0  0
   -0.6195    0.4674   -0.7074 C   0  0  0  0  0  0  0  0  0  0  0  0
   -2.0028    0.9079   -0.7836 C   0  0  0  0  0  0  0  0  0  0  0  0
   -3.0402    0.1496   -0.4426 C   0  0  0  0  0  0  0  0  0  0  0  0
   -4.4118    0.4605   -0.4742 N   0  0  0  0  0  0  0  0  0  0  0  0
   -5.2074   -0.6214    0.0157 C   0  0  0  0  0  0  0  0  0  0  0  0
   -6.4698   -0.6630    0.1178 O   0  0  0  0  0  0  0  0  0  0  0  0
   -4.2714   -1.6397    0.3616 N   0  0  0  0  0  0  0  0  0  0  0  0
   -2.9360   -1.1818    0.0861 C   0  0  0  0  0  0  0  0  0  0  0  0
   -1.9250   -1.8921    0.3042 O   0  0  0  0  0  0  0  0  0  0  0  0
    0.4673    1.0484   -0.0859 C   0  0  0  0  0  0  0  0  0  0  0  0
    0.4359    2.3315    0.6360 C   0  0  0  0  0  0  0  0  0  0  0  0
    1.5650    0.2859   -0.2264 N   0  0  0  0  0  0  0  0  0  0  0  0
    2.8859    0.4881    0.2669 C   0  0  0  0  0  0  0  0  0  0  0  0
    3.6559    1.5725   -0.0454 C   0  0  0  0  0  0  0  0  0  0  0  0
    4.9316    1.7342    0.4557 C   0  0  0  0  0  0  0  0  0  0  0  0
    5.4711    0.7925    1.2956 C   0  0  0  0  0  0  0  0  0  0  0  0
    4.7306   -0.3079    1.6313 C   0  0  0  0  0  0  0  0  0  0  0  0
    3.4585   -0.4615    1.1282 C   0  0  0  0  0  0  0  0  0  0  0  0
  1  2  1  0
  2  3  2  0
  3  4  1  0
  4  5  1  0
  5  6  2  0
  6  7  1  0
  7  8  1  0
  8  9  2  0
  8 10  1  0
 10 11  1  0
 11 12  2  0
  4 13  2  0
 13 14  1  0
 13 15  1  0
 15 16  1  0
 16 17  2  0
 17 18  1  0
 18 19  2  0
 19 20  1  0
 20 21  2  0
 15  2  1  0
 21 16  1  0
 11  6  1  0
M  END
>  <zinc_id>  (1) 
ZINC000000076968

>  <smiles>  (1) 
Cc1cc(/C=C2/NC(=O)NC2=O)c(C)n1-c1ccccc1

$$$$
