
     RDKit          3D

 31 35  0  0  0  0  0  0  0  0999 V2000
    5.0548    4.1219    1.1572 C   0  0  0  0  0  0  0  0  0  0  0  0
    5.3951    2.7749    1.3304 O   0  0  0  0  0  0  0  0  0  0  0  0
    4.7715    1.7254    0.6763 C   0  0  0  0  0  0  0  0  0  0  0  0
    3.7400    1.8850   -0.2243 C   0  0  0  0  0  0  0  0  0  0  0  0
    3.1750    0.7836   -0.8315 C   0  0  0  0  0  0  0  0  0  0  0  0
    3.5888   -0.4376   -0.5811 C   0  0  0  0  0  0  0  0  0  0  0  0
    3.0031   -1.7647   -1.2431 C   0  0  1  0  0  0  0  0  0  0  0  0
    2.8573   -2.6076    0.0699 N   0  0  0  0  0  0  0  0  0  0  0  0
    2.3119   -1.8832    1.1036 C   0  0  0  0  0  0  0  0  0  0  0  0
    0.7986   -1.7982    0.9921 C   0  0  0  0  0  0  0  0  0  0  0  0
    0.5909   -1.3356   -0.4171 C   0  0  0  0  0  0  0  0  0  0  0  0
    1.5058   -1.3190   -1.3519 C   0  0  0  0  0  0  0  0  0  0  0  0
    0.9794   -0.8497   -2.4764 N   0  0  0  0  0  0  0  0  0  0  0  0
   -0.3270   -0.5325   -2.3250 C   0  0  0  0  0  0  0  0  0  0  0  0
   -1.3226   -0.0234   -3.1382 C   0  0  0  0  0  0  0  0  0  0  0  0
   -2.5870    0.1756   -2.6165 C   0  0  0  0  0  0  0  0  0  0  0  0
   -2.8910   -0.1189   -1.3027 C   0  0  0  0  0  0  0  0  0  0  0  0
   -4.1489    0.0698   -0.7517 O   0  0  0  0  0  0  0  0  0  0  0  0
   -4.3454   -0.2674    0.6073 C   0  0  0  0  0  0  0  0  0  0  0  0
   -5.7561    0.0226    0.9530 C   0  0  0  0  0  0  0  0  0  0  0  0
   -6.1158    1.2555    1.4309 C   0  0  0  0  0  0  0  0  0  0  0  0
   -7.4380    1.5667    1.7682 C   0  0  0  0  0  0  0  0  0  0  0  0
   -8.3726    0.5848    1.6023 C   0  0  0  0  0  0  0  0  0  0  0  0
   -8.0292   -0.6561    1.1245 C   0  0  0  0  0  0  0  0  0  0  0  0
   -6.7032   -0.9625    0.7882 C   0  0  0  0  0  0  0  0  0  0  0  0
   -1.8679   -0.6239   -0.5306 C   0  0  0  0  0  0  0  0  0  0  0  0
   -0.5900   -0.8433   -0.9941 C   0  0  0  0  0  0  0  0  0  0  0  0
    4.6138   -0.6490    0.3089 C   0  0  0  0  0  0  0  0  0  0  0  0
    5.1934    0.4361    0.9274 C   0  0  0  0  0  0  0  0  0  0  0  0
    6.2451    0.2841    1.8466 O   0  0  0  0  0  0  0  0  0  0  0  0
    6.6703   -1.0404    2.0973 C   0  0  0  0  0  0  0  0  0  0  0  0
  1  2  1  0
  2  3  1  0
  3  4  2  0
  4  5  1  0
  5  6  2  0
  7  6  1  1
  7  8  1  0
  8  9  1  0
  9 10  1  0
 10 11  1  0
 11 12  2  0
 12 13  1  0
 13 14  1  0
 14 15  2  0
 15 16  1  0
 16 17  2  0
 17 18  1  0
 18 19  1  0
 19 20  1  0
 20 21  2  0
 21 22  1  0
 22 23  2  0
 23 24  1  0
 24 25  2  0
 17 26  1  0
 26 27  2  0
  6 28  1  0
 28 29  2  0
 29 30  1  0
 30 31  1  0
 29  3  1  0
 12  7  1  0
 27 14  1  0
 27 11  1  0
 25 20  1  0
M  END
>  <zinc_id>  (1) 
ZINC000001322729

>  <smiles>  (1) 
COc1ccc([C@H]2NCCc3c2[nH]c2ccc(OCc4ccccc4)cc32)cc1OC

$$$$
