
     RDKit          3D

 20 21  0  0  0  0  0  0  0  0999 V2000
    7.8299   -0.8822    0.3829 C   0  0  0  0  0  0  0  0  0  0  0  0
    7.0723    0.7610    0.4892 S   0  0  0  0  0  0  0  0  0  0  0  0
    5.3157    0.6115    0.2604 C   0  0  0  0  0  0  0  0  0  0  0  0
    4.4598    1.6883    0.2869 C   0  0  0  0  0  0  0  0  0  0  0  0
    3.0901    1.4981    0.0996 C   0  0  0  0  0  0  0  0  0  0  0  0
    2.5668    0.2654   -0.1112 C   0  0  0  0  0  0  0  0  0  0  0  0
    1.1354    0.0038   -0.3144 C   0  0  0  0  0  0  0  0  0  0  0  0
    0.2575    0.9455   -0.3068 N   0  0  0  0  0  0  0  0  0  0  0  0
   -1.1165    0.7078   -0.5003 N   0  0  0  0  0  0  0  0  0  0  0  0
   -1.8888    0.0386    0.4891 C   0  0  0  0  0  0  0  0  0  0  0  0
   -1.2727   -0.3184    1.5266 O   0  0  0  0  0  0  0  0  0  0  0  0
   -3.3185   -0.2207    0.3121 C   0  0  0  0  0  0  0  0  0  0  0  0
   -3.9709    0.1800   -0.8327 C   0  0  0  0  0  0  0  0  0  0  0  0
   -5.3325   -0.0878   -0.9583 C   0  0  0  0  0  0  0  0  0  0  0  0
   -6.0391   -0.7397    0.0282 C   0  0  0  0  0  0  0  0  0  0  0  0
   -7.5081   -1.0136   -0.1381 C   0  0  0  0  0  0  0  0  0  0  0  0
   -5.3743   -1.1176    1.1326 N   0  0  0  0  0  0  0  0  0  0  0  0
   -4.0514   -0.8673    1.2750 C   0  0  0  0  0  0  0  0  0  0  0  0
    3.4008   -0.8283   -0.1423 C   0  0  0  0  0  0  0  0  0  0  0  0
    4.7446   -0.6243    0.0435 C   0  0  0  0  0  0  0  0  0  0  0  0
  1  2  1  0
  2  3  1  0
  3  4  2  0
  4  5  1  0
  5  6  2  0
  6  7  1  0
  7  8  2  0
  8  9  1  0
  9 10  1  0
 10 11  2  0
 10 12  1  0
 12 13  2  0
 13 14  1  0
 14 15  2  0
 15 16  1  0
 15 17  1  0
 17 18  2  0
  6 19  1  0
 19 20  2  0
 20  3  1  0
 18 12  1  0
M  END
>  <zinc_id>  (1) 
ZINC000000261578

>  <smiles>  (1) 
CSc1ccc(/C=N/NC(=O)c2ccc(C)nc2)cc1

$$$$
