
     RDKit          3D

 20 21  0  0  0  0  0  0  0  0999 V2000
    2.6959   -2.1939    1.0756 C   0  0  0  0  0  0  0  0  0  0  0  0
    2.7791   -1.8818   -0.3843 C   0  0  0  0  0  0  0  0  0  0  0  0
    1.9408   -2.9024   -1.1646 C   0  0  0  0  0  0  0  0  0  0  0  0
    4.2133   -1.9556   -0.9166 C   0  0  0  0  0  0  0  0  0  0  0  0
    2.2168   -0.5315   -0.6192 C   0  0  0  0  0  0  0  0  0  0  0  0
    2.9250    0.3430   -1.1222 O   0  0  0  0  0  0  0  0  0  0  0  0
    0.8218   -0.2519   -0.2525 C   0  0  0  0  0  0  0  0  0  0  0  0
    0.0890   -1.1914    0.2889 C   0  0  0  0  0  0  0  0  0  0  0  0
   -1.2725   -0.9918    0.6633 C   0  0  0  0  0  0  0  0  0  0  0  0
   -2.2369   -0.4669   -0.1367 C   0  0  0  0  0  0  0  0  0  0  0  0
   -3.5208   -0.2957    0.3044 C   0  0  0  0  0  0  0  0  0  0  0  0
   -3.8392   -0.6653    1.5857 C   0  0  0  0  0  0  0  0  0  0  0  0
   -2.9078   -1.2013    2.4406 C   0  0  0  0  0  0  0  0  0  0  0  0
   -1.6156   -1.3635    1.9687 C   0  0  0  0  0  0  0  0  0  0  0  0
    0.3470    1.1332   -0.4792 C   0  0  0  0  0  0  0  0  0  0  0  0
   -0.7762    1.7357   -0.1791 N   0  0  0  0  0  0  0  0  0  0  0  0
   -0.9663    2.9776   -0.4882 C   0  0  0  0  0  0  0  0  0  0  0  0
   -2.1663    3.6750   -0.1828 O   0  0  0  0  0  0  0  0  0  0  0  0
    0.0500    3.6315   -1.1394 C   0  0  0  0  0  0  0  0  0  0  0  0
    1.2229    2.3969   -1.2625 S   0  0  0  0  0  0  0  0  0  0  0  0
  1  2  1  0
  2  3  1  0
  2  4  1  0
  2  5  1  0
  5  6  2  0
  5  7  1  0
  7  8  2  0
  8  9  1  0
  9 10  2  0
 10 11  1  0
 11 12  2  0
 12 13  1  0
 13 14  2  0
  7 15  1  0
 15 16  2  0
 16 17  1  0
 17 18  1  0
 17 19  2  0
 19 20  1  0
 14  9  1  0
 20 15  1  0
M  END
>  <zinc_id>  (1) 
ZINC000004073094

>  <smiles>  (1) 
CC(C)(C)C(=O)/C(=C/c1ccccc1)c1nc(O)cs1

$$$$
