
     RDKit          3D

 30 32  0  0  0  0  0  0  0  0999 V2000
    7.3186    0.0186    1.9177 C   0  0  0  0  0  0  0  0  0  0  0  0
    6.9835    0.3059    0.4874 C   0  0  0  0  0  0  0  0  0  0  0  0
    5.4447    0.8524    0.4662 C   0  0  1  0  0  0  0  0  0  0  0  0
    5.4616    1.0409   -1.1818 C   0  0  0  0  0  0  0  0  0  0  0  0
    4.7461   -0.5444    0.4814 C   0  0  0  0  0  0  0  0  0  0  0  0
    5.3639   -1.7237    0.4976 C   0  0  0  0  0  0  0  0  0  0  0  0
    4.6629   -2.8989    0.5101 C   0  0  0  0  0  0  0  0  0  0  0  0
    3.2926   -2.8500    0.5058 C   0  0  0  0  0  0  0  0  0  0  0  0
    2.6020   -1.6504    0.4892 C   0  0  0  0  0  0  0  0  0  0  0  0
    3.3891   -0.4848    0.4770 C   0  0  0  0  0  0  0  0  0  0  0  0
    2.6809    0.7495    0.4598 N   0  0  0  0  0  0  0  0  0  0  0  0
    1.2692    0.8425    0.4562 C   0  0  0  0  0  0  0  0  0  0  0  0
    0.6233   -0.2363    0.4691 O   0  0  0  0  0  0  0  0  0  0  0  0
    0.5613    2.1713    0.4377 C   0  0  0  0  0  0  0  0  0  0  0  0
   -0.8179    1.9644    0.4394 O   0  0  0  0  0  0  0  0  0  0  0  0
   -1.5124    1.2681   -0.5428 C   0  0  0  0  0  0  0  0  0  0  0  0
   -0.8383    0.7959   -1.4954 O   0  0  0  0  0  0  0  0  0  0  0  0
   -2.9591    1.1507   -0.3756 C   0  0  0  0  0  0  0  0  0  0  0  0
   -3.3314    0.4575    0.8742 C   0  0  0  0  0  0  0  0  0  0  0  0
   -2.5964   -0.6713    1.2507 C   0  0  0  0  0  0  0  0  0  0  0  0
   -2.9597   -1.2970    2.4132 C   0  0  0  0  0  0  0  0  0  0  0  0
   -3.9968   -0.8763    3.2168 C   0  0  0  0  0  0  0  0  0  0  0  0
   -4.7136    0.2388    2.8333 C   0  0  0  0  0  0  0  0  0  0  0  0
   -4.3712    0.8921    1.6654 C   0  0  0  0  0  0  0  0  0  0  0  0
   -3.6796    0.6054   -1.5261 C   0  0  0  0  0  0  0  0  0  0  0  0
   -3.1862   -0.4459   -2.2727 C   0  0  0  0  0  0  0  0  0  0  0  0
   -3.8641   -0.9689   -3.3663 C   0  0  0  0  0  0  0  0  0  0  0  0
   -5.0762   -0.4355   -3.7395 C   0  0  0  0  0  0  0  0  0  0  0  0
   -5.5934    0.6186   -3.0084 C   0  0  0  0  0  0  0  0  0  0  0  0
   -4.9034    1.1107   -1.9388 C   0  0  0  0  0  0  0  0  0  0  0  0
  1  2  1  0
  2  3  1  0
  3  4  1  6
  3  5  1  0
  5  6  2  0
  6  7  1  0
  7  8  2  0
  8  9  1  0
  9 10  2  0
 10 11  1  0
 11 12  1  0
 12 13  2  0
 12 14  1  0
 14 15  1  0
 15 16  1  0
 16 17  2  0
 16 18  1  0
 18 19  1  0
 19 20  2  0
 20 21  1  0
 21 22  2  0
 22 23  1  0
 23 24  2  0
 18 25  1  0
 25 26  2  0
 26 27  1  0
 27 28  2  0
 28 29  1  0
 29 30  2  0
 10  5  1  0
 24 19  1  0
 30 25  1  0
M  END
>  <zinc_id>  (1) 
ZINC000003237119

>  <smiles>  (1) 
CC[C@@H](C)c1ccccc1NC(=O)COC(=O)C(c1ccccc1)c1ccccc1

$$$$
