
     RDKit          3D

 31 34  0  0  0  0  0  0  0  0999 V2000
   -3.3425    1.3992    5.1065 C   0  0  0  0  0  0  0  0  0  0  0  0
   -2.2933    1.2763    4.4221 O   0  0  0  0  0  0  0  0  0  0  0  0
   -1.1818    1.1586    3.7100 C   0  0  0  0  0  0  0  0  0  0  0  0
   -0.0518    1.9561    3.9375 C   0  0  0  0  0  0  0  0  0  0  0  0
    1.0625    1.7278    3.1159 C   0  0  0  0  0  0  0  0  0  0  0  0
    1.0139    0.7697    2.1510 C   0  0  0  0  0  0  0  0  0  0  0  0
   -0.0712    0.0077    1.9367 C   0  0  0  0  0  0  0  0  0  0  0  0
   -1.2013    0.1632    2.6944 C   0  0  0  0  0  0  0  0  0  0  0  0
   -2.3575   -0.5543    2.5749 O   0  0  0  0  0  0  0  0  0  0  0  0
   -2.8099   -1.5187    1.7923 C   0  0  0  0  0  0  0  0  0  0  0  0
   -3.0199   -1.3709    0.3744 C   0  0  0  0  0  0  0  0  0  0  0  0
   -3.5304   -0.1628   -0.1131 C   0  0  0  0  0  0  0  0  0  0  0  0
   -3.7861    0.0703   -1.4289 C   0  0  0  0  0  0  0  0  0  0  0  0
   -3.5416   -0.9073   -2.3528 C   0  0  0  0  0  0  0  0  0  0  0  0
   -3.0412   -2.1117   -1.9439 C   0  0  0  0  0  0  0  0  0  0  0  0
   -2.7921   -2.3146   -0.5895 C   0  0  0  0  0  0  0  0  0  0  0  0
    2.3495    0.6200    1.3444 C   0  0  1  0  0  0  0  0  0  0  0  0
    1.8400    0.1094   -0.0379 C   0  0  0  0  0  0  0  0  0  0  0  0
    0.7653   -0.6893   -0.0747 C   0  0  0  0  0  0  0  0  0  0  0  0
    0.2516   -1.1395   -1.3285 C   0  0  0  0  0  0  0  0  0  0  0  0
    0.8718   -0.7427   -2.4915 C   0  0  0  0  0  0  0  0  0  0  0  0
    1.9809    0.0813   -2.4422 C   0  0  0  0  0  0  0  0  0  0  0  0
    2.6584    0.5287   -3.5582 O   0  0  0  0  0  0  0  0  0  0  0  0
    2.2831    0.2123   -4.8789 C   0  0  0  0  0  0  0  0  0  0  0  0
    2.2869   -1.2715   -5.1712 C   0  0  0  0  0  0  0  0  0  0  0  0
    1.8490   -1.4917   -6.6150 C   0  0  0  0  0  0  0  0  0  0  0  0
    3.7346   -1.7512   -5.1294 C   0  0  0  0  0  0  0  0  0  0  0  0
    2.4189    0.4720   -1.2082 C   0  0  0  0  0  0  0  0  0  0  0  0
    2.3845    2.1838    0.8840 N   0  0  0  0  0  0  0  0  0  0  0  0
    2.9567    2.8311    2.0119 C   0  0  0  0  0  0  0  0  0  0  0  0
    2.3129    2.4958    3.3080 C   0  0  0  0  0  0  0  0  0  0  0  0
  1  2  1  0
  2  3  1  0
  3  4  2  0
  4  5  1  0
  5  6  2  0
  6  7  1  0
  7  8  2  0
  8  9  1  0
  9 10  1  0
 10 11  1  0
 11 12  2  0
 12 13  1  0
 13 14  2  0
 14 15  1  0
 15 16  2  0
  6 17  1  0
 17 18  1  6
 18 19  2  0
 19 20  1  0
 20 21  2  0
 21 22  1  0
 22 23  1  0
 23 24  1  0
 24 25  1  0
 25 26  1  0
 25 27  1  0
 22 28  2  0
 17 29  1  0
 29 30  1  0
 30 31  1  0
  8  3  1  0
 16 11  1  0
 28 18  1  0
 31  5  1  0
M  END
>  <zinc_id>  (1) 
ZINC000003702399

>  <smiles>  (1) 
COc1cc2c(cc1OCc1ccccc1)[C@@H](c1cccc(OCC(C)C)c1)NCC2

$$$$
