
     RDKit          3D

 32 36  0  0  0  0  0  0  0  0999 V2000
   -5.9928    4.6412   -0.4070 C   0  0  0  0  0  0  0  0  0  0  0  0
   -4.8917    3.7720   -0.3296 O   0  0  0  0  0  0  0  0  0  0  0  0
   -5.0417    2.3846   -0.2291 C   0  0  0  0  0  0  0  0  0  0  0  0
   -6.2889    1.7937   -0.2006 C   0  0  0  0  0  0  0  0  0  0  0  0
   -6.3724    0.4143   -0.0998 C   0  0  0  0  0  0  0  0  0  0  0  0
   -5.2066   -0.3578   -0.0288 C   0  0  0  0  0  0  0  0  0  0  0  0
   -3.9604    0.2281   -0.0569 C   0  0  0  0  0  0  0  0  0  0  0  0
   -2.7491   -0.5930    0.0183 C   0  0  0  0  0  0  0  0  0  0  0  0
   -1.5197   -0.0643   -0.0057 N   0  0  0  0  0  0  0  0  0  0  0  0
   -0.3875   -0.7872    0.0613 C   0  0  0  0  0  0  0  0  0  0  0  0
    0.9037   -0.2163    0.0349 N   0  0  0  0  0  0  0  0  0  0  0  0
    1.7951   -0.4095    1.1292 C   0  0  0  0  0  0  0  0  0  0  0  0
    3.2063   -0.7010    0.7558 C   0  0  0  0  0  0  0  0  0  0  0  0
    3.4109   -0.6828   -0.7210 C   0  0  0  0  0  0  0  0  0  0  0  0
    4.8733   -0.6746   -1.1015 C   0  0  0  0  0  0  0  0  0  0  0  0
    5.5772    0.5130   -0.5601 C   0  0  0  0  0  0  0  0  0  0  0  0
    6.1515    0.4126    0.6883 C   0  0  0  0  0  0  0  0  0  0  0  0
    6.8193    1.4405    1.2763 C   0  0  0  0  0  0  0  0  0  0  0  0
    6.9355    2.6329    0.6141 C   0  0  0  0  0  0  0  0  0  0  0  0
    6.3723    2.7660   -0.6364 C   0  0  0  0  0  0  0  0  0  0  0  0
    5.6994    1.7144   -1.2170 C   0  0  0  0  0  0  0  0  0  0  0  0
    2.7959    0.5763   -1.2992 C   0  0  0  0  0  0  0  0  0  0  0  0
    1.3008    0.5601   -1.1114 C   0  0  0  0  0  0  0  0  0  0  0  0
   -0.5301   -2.1587    0.1607 C   0  0  0  0  0  0  0  0  0  0  0  0
    0.5858   -2.9570    0.2331 C   0  0  0  0  0  0  0  0  0  0  0  0
    0.4227   -4.3062    0.3306 C   0  0  0  0  0  0  0  0  0  0  0  0
   -0.8080   -4.9290    0.3615 C   0  0  0  0  0  0  0  0  0  0  0  0
   -1.9293   -4.1304    0.2891 C   0  0  0  0  0  0  0  0  0  0  0  0
   -1.7817   -2.7533    0.1893 C   0  0  0  0  0  0  0  0  0  0  0  0
   -2.8376   -1.9308    0.1159 N   0  0  0  0  0  0  0  0  0  0  0  0
   -3.9013    1.6005   -0.1574 C   0  0  0  0  0  0  0  0  0  0  0  0
   -2.6512    2.2018   -0.1866 O   0  0  0  0  0  0  0  0  0  0  0  0
  1  2  1  0
  2  3  1  0
  3  4  2  0
  4  5  1  0
  5  6  2  0
  6  7  1  0
  7  8  1  0
  8  9  2  0
  9 10  1  0
 10 11  1  0
 11 12  1  0
 12 13  1  0
 13 14  1  0
 14 15  1  0
 15 16  1  0
 16 17  2  0
 17 18  1  0
 18 19  2  0
 19 20  1  0
 20 21  2  0
 14 22  1  0
 22 23  1  0
 10 24  2  0
 24 25  1  0
 25 26  2  0
 26 27  1  0
 27 28  2  0
 28 29  1  0
 29 30  2  0
  7 31  2  0
 31 32  1  0
 31  3  1  0
 30  8  1  0
 23 11  1  0
 29 24  1  0
 21 16  1  0
M  END
>  <zinc_id>  (1) 
ZINC000002231040

>  <smiles>  (1) 
COc1cccc(-c2nc(N3CCC(Cc4ccccc4)CC3)c3ccccc3n2)c1O

$$$$
