
     RDKit          3D

 24 27  0  0  0  0  0  0  0  0999 V2000
    1.2105    1.1904    2.0944 C   0  0  0  0  0  0  0  0  0  0  0  0
    1.6286    0.3429    0.9414 C   0  0  0  0  0  0  0  0  0  0  0  0
    2.6394   -0.5416    0.9735 N   0  0  0  0  0  0  0  0  0  0  0  0
    2.7164   -1.1099   -0.2367 C   0  0  0  0  0  0  0  0  0  0  0  0
    3.5617   -2.0682   -0.7391 C   0  0  0  0  0  0  0  0  0  0  0  0
    3.4378   -2.4939   -2.0361 C   0  0  0  0  0  0  0  0  0  0  0  0
    2.4618   -1.9534   -2.8260 C   0  0  0  0  0  0  0  0  0  0  0  0
    1.6276   -1.0016   -2.3156 C   0  0  0  0  0  0  0  0  0  0  0  0
    1.7156   -0.5530   -1.0405 C   0  0  0  0  0  0  0  0  0  0  0  0
    1.0341    0.3689   -0.2736 C   0  0  0  0  0  0  0  0  0  0  0  0
   -0.1570    1.2293   -0.7479 C   0  0  2  0  0  0  0  0  0  0  0  0
    0.1250    2.5321    0.1823 C   0  0  0  0  0  0  0  0  0  0  0  0
    1.4503    2.9777   -0.2220 N   0  0  0  0  0  4  0  0  0  0  0  0
    2.1298    2.4202   -1.0889 O   0  0  0  0  0  0  0  0  0  0  0  0
    1.9584    4.0718    0.3981 O   0  0  0  0  0  1  0  0  0  0  0  0
   -1.3004    0.6173    0.1053 C   0  0  0  0  0  0  0  0  0  0  0  0
   -1.6083    0.9916    1.3564 C   0  0  0  0  0  0  0  0  0  0  0  0
   -2.6557    0.3903    2.0605 C   0  0  0  0  0  0  0  0  0  0  0  0
   -3.3802   -0.6041    1.4515 C   0  0  0  0  0  0  0  0  0  0  0  0
   -3.0868   -1.0104    0.1656 C   0  0  0  0  0  0  0  0  0  0  0  0
   -2.0334   -0.3659   -0.4672 C   0  0  0  0  0  0  0  0  0  0  0  0
   -3.9488   -2.0215   -0.2331 O   0  0  0  0  0  0  0  0  0  0  0  0
   -5.0586   -1.9890    0.6776 C   0  0  0  0  0  0  0  0  0  0  0  0
   -4.4679   -1.4200    1.8199 O   0  0  0  0  0  0  0  0  0  0  0  0
  1  2  1  0
  2  3  1  0
  3  4  1  0
  4  5  2  0
  5  6  1  0
  6  7  2  0
  7  8  1  0
  8  9  2  0
  9 10  1  0
 10 11  1  0
 11 12  1  1
 12 13  1  0
 13 14  2  0
 13 15  1  0
 11 16  1  0
 16 17  2  0
 17 18  1  0
 18 19  2  0
 19 20  1  0
 20 21  2  0
 20 22  1  0
 22 23  1  0
 23 24  1  0
 10  2  2  0
 21 16  1  0
  9  4  1  0
 24 19  1  0
M  CHG  2  13   1  15  -1
M  END
>  <zinc_id>  (1) 
ZINC000000134654

>  <smiles>  (1) 
Cc1[nH]c2ccccc2c1[C@H](C[N+](=O)[O-])c1ccc2c(c1)OCO2

$$$$
