
     RDKit          3D

 21 23  0  0  0  0  0  0  0  0999 V2000
    0.9340   -2.3201   -2.5168 O   0  0  0  0  0  0  0  0  0  0  0  0
   -0.3855   -2.2828   -2.1874 C   0  0  0  0  0  0  0  0  0  0  0  0
   -0.7026   -2.3430   -0.7571 C   0  0  0  0  0  0  0  0  0  0  0  0
   -0.1754   -1.2869    0.0382 N   0  0  0  0  0  0  0  0  0  0  0  0
   -1.1838   -0.3773    0.5488 C   0  0  0  0  0  0  0  0  0  0  0  0
   -1.2981   -0.2350    1.8803 N   0  0  0  0  0  0  0  0  0  0  0  0
   -2.2161    0.5936    2.4393 C   0  0  0  0  0  0  0  0  0  0  0  0
   -3.0242    1.2830    1.6182 N   0  0  0  0  0  0  0  0  0  0  0  0
   -2.9415    1.1688    0.2826 C   0  0  0  0  0  0  0  0  0  0  0  0
   -3.6412    1.7562   -0.6806 N   0  0  0  0  0  0  0  0  0  0  0  0
   -3.1981    1.3260   -1.9005 C   0  0  0  0  0  0  0  0  0  0  0  0
   -2.1768    0.4323   -1.6262 C   0  0  0  0  0  0  0  0  0  0  0  0
   -2.0032    0.3224   -0.2712 C   0  0  0  0  0  0  0  0  0  0  0  0
    1.1684   -1.0233    0.3907 C   0  0  0  0  0  0  0  0  0  0  0  0
    1.2161    0.2065    1.2713 C   0  0  0  0  0  0  0  0  0  0  0  0
    2.5423    0.4145    1.9390 C   0  0  0  0  0  0  0  0  0  0  0  0
    3.2970    1.5472    1.2376 C   0  0  0  0  0  0  0  0  0  0  0  0
    4.5752    0.9281    0.6567 C   0  0  0  0  0  0  0  0  0  0  0  0
    4.2525    0.4725   -0.7406 C   0  0  0  0  0  0  0  0  0  0  0  0
    2.7602    0.3802   -0.9710 C   0  0  0  0  0  0  0  0  0  0  0  0
    2.2009   -0.9627   -0.6512 C   0  0  0  0  0  0  0  0  0  0  0  0
  1  2  1  0
  2  3  1  0
  3  4  1  0
  4  5  1  0
  5  6  2  0
  6  7  1  0
  7  8  2  0
  8  9  1  0
  9 10  1  0
 10 11  1  0
 11 12  2  0
 12 13  1  0
  4 14  1  0
 14 15  1  0
 15 16  1  0
 16 17  1  0
 17 18  1  0
 18 19  1  0
 19 20  1  0
 20 21  1  0
 13  5  1  0
 21 14  1  0
 13  9  2  0
M  END
>  <zinc_id>  (1) 
ZINC000000024362

>  <smiles>  (1) 
OCCN(c1ncnc2[nH]ccc12)C1CCCCCCC1

$$$$
