
     RDKit          3D

 22 24  0  0  0  0  0  0  0  0999 V2000
    4.8338   -0.7844    0.1484 C   0  0  0  0  0  0  0  0  0  0  0  0
    3.9925   -1.2924   -0.9777 C   0  0  0  0  0  0  0  0  0  0  0  0
    2.6203   -0.9954   -0.8394 O   0  0  0  0  0  0  0  0  0  0  0  0
    1.8558   -1.4299    0.2267 C   0  0  0  0  0  0  0  0  0  0  0  0
    2.4384   -2.1214    1.1000 O   0  0  0  0  0  0  0  0  0  0  0  0
    0.4395   -1.0973    0.3264 C   0  0  0  0  0  0  0  0  0  0  0  0
   -0.2272   -1.5191    1.3261 C   0  0  0  0  0  0  0  0  0  0  0  0
    0.4783   -2.3272    2.3354 N   0  0  0  0  0  0  0  0  0  0  0  0
   -1.5779   -1.2843    1.5554 O   0  0  0  0  0  0  0  0  0  0  0  0
   -2.1872   -0.5228    0.5764 C   0  0  0  0  0  0  0  0  0  0  0  0
   -1.6261   -0.0305   -0.4941 C   0  0  0  0  0  0  0  0  0  0  0  0
   -2.4187    0.7506   -1.4224 C   0  0  0  0  0  0  0  0  0  0  0  0
   -1.9620    1.7781   -1.9167 O   0  0  0  0  0  0  0  0  0  0  0  0
   -3.7650    0.2722   -1.7440 C   0  0  0  0  0  0  0  0  0  0  0  0
   -4.3760   -0.3953   -0.5690 C   0  0  0  0  0  0  0  0  0  0  0  0
   -3.6735   -0.1946    0.7177 C   0  0  0  0  0  0  0  0  0  0  0  0
   -0.1164   -0.2600   -0.7890 C   0  0  1  0  0  0  0  0  0  0  0  0
    0.5464    1.1283   -0.5254 C   0  0  0  0  0  0  0  0  0  0  0  0
    1.6264    1.6791   -1.0556 C   0  0  0  0  0  0  0  0  0  0  0  0
    1.9616    2.8979   -0.6325 C   0  0  0  0  0  0  0  0  0  0  0  0
    1.1694    3.4890    0.3147 C   0  0  0  0  0  0  0  0  0  0  0  0
   -0.0323    2.2596    0.5588 S   0  0  0  0  0  0  0  0  0  0  0  0
  1  2  1  0
  2  3  1  0
  3  4  1  0
  4  5  2  0
  4  6  1  0
  6  7  2  0
  7  8  1  0
  7  9  1  0
  9 10  1  0
 10 11  2  0
 11 12  1  0
 12 13  2  0
 12 14  1  0
 14 15  1  0
 15 16  1  0
 11 17  1  0
 17 18  1  6
 18 19  2  0
 19 20  1  0
 20 21  2  0
 21 22  1  0
 17  6  1  0
 22 18  1  0
 16 10  1  0
M  END
>  <zinc_id>  (1) 
ZINC000000061403

>  <smiles>  (1) 
CCOC(=O)C1=C(N)OC2=C(C(=O)CCC2)[C@@H]1c1cccs1

$$$$
