
     RDKit          3D

 21 23  0  0  0  0  0  0  0  0999 V2000
   -4.3703    0.3960    0.3464 C   0  0  0  0  0  0  0  0  0  0  0  0
   -2.9432   -0.1382    0.9495 C   0  0  1  0  0  0  0  0  0  0  0  0
   -3.0937   -1.7019    0.5067 C   0  0  0  0  0  0  0  0  0  0  0  0
   -3.9754   -1.8787   -0.6176 C   0  0  0  0  0  0  0  0  0  0  0  0
   -3.9152   -0.8124   -1.6519 C   0  0  0  0  0  0  0  0  0  0  0  0
   -2.7926    0.1129   -1.5803 C   0  0  0  0  0  0  0  0  0  0  0  0
   -2.0469    0.2805   -0.3511 C   0  0  1  0  0  0  0  0  0  0  0  0
   -1.7228    1.6544   -0.0122 N   0  0  0  0  0  0  0  0  0  0  0  0
   -0.5183    1.6044    0.7365 C   0  0  0  0  0  0  0  0  0  0  0  0
    0.0194    2.5133    1.4302 O   0  0  0  0  0  0  0  0  0  0  0  0
    0.0631    0.3019    0.6044 N   0  0  0  0  0  0  0  0  0  0  0  0
    1.3004   -0.1430    1.2212 C   0  0  0  0  0  0  0  0  0  0  0  0
    2.4741    0.1053    0.3701 C   0  0  0  0  0  0  0  0  0  0  0  0
    2.3322    0.6945   -0.8534 C   0  0  0  0  0  0  0  0  0  0  0  0
    3.4248    0.9442   -1.6851 C   0  0  0  0  0  0  0  0  0  0  0  0
    4.6726    0.5766   -1.2368 C   0  0  0  0  0  0  0  0  0  0  0  0
    4.8240   -0.0157   -0.0093 C   0  0  0  0  0  0  0  0  0  0  0  0
    3.7194   -0.2566    0.8071 C   0  0  0  0  0  0  0  0  0  0  0  0
    3.8557   -0.8433    2.0268 F   0  0  0  0  0  0  0  0  0  0  0  0
   -0.7894   -0.4617   -0.2336 C   0  0  0  0  0  0  0  0  0  0  0  0
   -0.5179   -1.5562   -0.7675 O   0  0  0  0  0  0  0  0  0  0  0  0
  2  1  1  6
  2  3  1  0
  3  4  1  0
  4  5  1  0
  5  6  1  0
  7  6  1  6
  7  8  1  0
  8  9  1  0
  9 10  2  0
  9 11  1  0
 11 12  1  0
 12 13  1  0
 13 14  2  0
 14 15  1  0
 15 16  2  0
 16 17  1  0
 17 18  2  0
 18 19  1  0
 11 20  1  0
 20 21  2  0
  7  2  1  0
 18 13  1  0
 20  7  1  0
M  END
>  <zinc_id>  (1) 
ZINC000003355399

>  <smiles>  (1) 
C[C@H]1CCCC[C@@]12NC(=O)N(Cc1ccccc1F)C2=O

$$$$
