MODEL 1
REMARK VINA RESULT:      -7.0      0.000      0.000
REMARK  Name = 
REMARK  6 active torsions:
REMARK  status: ('A' for Active; 'I' for Inactive)
REMARK    1  A    between atoms: C_8  and  C_9
REMARK    2  A    between atoms: C_15  and  C_16
REMARK    3  A    between atoms: N_22  and  C_23
REMARK    4  A    between atoms: C_23  and  C_24
REMARK    5  A    between atoms: C_24  and  C_26
REMARK    6  A    between atoms: C_26  and  N_27
REMARK                            x       y       z     vdW  Elec       q    Type
REMARK                         _______ _______ _______ _____ _____    ______ ____
ROOT
ATOM      1  C   UNL     1      41.340  -3.656   8.923  0.00  0.00    +0.000 C 
ATOM      2  C   UNL     1      40.995  -3.085  10.260  0.00  0.00    +0.000 A 
ATOM      3  C   UNL     1      41.429  -3.691  11.419  0.00  0.00    +0.000 A 
ATOM      4  C   UNL     1      41.113  -3.169  12.674  0.00  0.00    +0.000 A 
ATOM      5  C   UNL     1      40.346  -2.020  12.729  0.00  0.00    +0.000 A 
ATOM      6  C   UNL     1      39.884  -1.374  11.602  0.00  0.00    +0.000 A 
ATOM      7  C   UNL     1      40.233  -1.944  10.379  0.00  0.00    +0.000 A 
ATOM      8  C   UNL     1      39.151  -0.262  11.959  0.00  0.00    +0.000 A 
ATOM      9  C   UNL     1      39.175  -0.245  13.347  0.00  0.00    +0.000 A 
ATOM     10  N   UNL     1      39.892  -1.300  13.803  0.00  0.00    +0.000 N 
ENDROOT
BRANCH   8  11
ATOM     11  C   UNL     1      38.494   0.688  11.041  0.00  0.00    +0.000 A 
ATOM     12  C   UNL     1      39.247   1.655  10.407  0.00  0.00    +0.000 A 
ATOM     13  C   UNL     1      38.708   2.561   9.554  0.00  0.00    +0.000 A 
ATOM     14  C   UNL     1      37.357   2.517   9.310  0.00  0.00    +0.000 A 
ATOM     15  C   UNL     1      36.551   1.554   9.931  0.00  0.00    +0.000 A 
ATOM     16  C   UNL     1      37.160   0.658  10.789  0.00  0.00    +0.000 A 
ENDBRANCH   8  11
BRANCH   9  17
ATOM     17  C   UNL     1      38.471   0.782  14.103  0.00  0.00    +0.000 A 
ATOM     18  C   UNL     1      37.174   0.565  14.484  0.00  0.00    +0.000 A 
ATOM     19  C   UNL     1      36.453   1.489  15.195  0.00  0.00    +0.000 A 
ATOM     20  C   UNL     1      37.047   2.697  15.551  0.00  0.00    +0.000 A 
ATOM     21  C   UNL     1      38.353   2.910  15.164  0.00  0.00    +0.000 A 
ATOM     22  C   UNL     1      39.078   1.981  14.448  0.00  0.00    +0.000 A 
ENDBRANCH   9  17
BRANCH  10  23
ATOM     23  C   UNL     1      40.179  -1.663  15.176  0.00  0.00    +0.000 C 
BRANCH  23  24
ATOM     24  C   UNL     1      38.898  -2.642  15.576  0.00  0.00    +0.000 C 
ATOM     25  O   UNL     1      39.764  -3.623  16.359  0.00  0.00    +0.000 OA
BRANCH  24  26
ATOM     26  C   UNL     1      38.519  -1.737  16.931  0.00  0.00    +0.000 C 
BRANCH  26  27
ATOM     27  N   UNL     1      37.443  -2.575  17.433  0.00  0.00    +0.000 NA
ATOM     28  C   UNL     1      37.090  -2.228  18.779  0.00  0.00    +0.000 C 
ATOM     29  C   UNL     1      36.554  -0.814  18.791  0.00  0.00    +0.000 C 
ATOM     30  C   UNL     1      35.331  -0.675  17.917  0.00  0.00    +0.000 C 
ATOM     31  C   UNL     1      35.082  -1.897  17.084  0.00  0.00    +0.000 C 
ATOM     32  C   UNL     1      36.288  -2.606  16.623  0.00  0.00    +0.000 C 
ENDBRANCH  26  27
ENDBRANCH  24  26
ENDBRANCH  23  24
ENDBRANCH  10  23
TORSDOF 6
ENDMDL
MODEL 2
REMARK VINA RESULT:      -6.7      2.323      5.422
REMARK  Name = 
REMARK  6 active torsions:
REMARK  status: ('A' for Active; 'I' for Inactive)
REMARK    1  A    between atoms: C_8  and  C_9
REMARK    2  A    between atoms: C_15  and  C_16
REMARK    3  A    between atoms: N_22  and  C_23
REMARK    4  A    between atoms: C_23  and  C_24
REMARK    5  A    between atoms: C_24  and  C_26
REMARK    6  A    between atoms: C_26  and  N_27
REMARK                            x       y       z     vdW  Elec       q    Type
REMARK                         _______ _______ _______ _____ _____    ______ ____
ROOT
ATOM      1  C   UNL     1      35.267   5.926  13.832  0.00  0.00    +0.000 C 
ATOM      2  C   UNL     1      35.553   4.490  14.129  0.00  0.00    +0.000 A 
ATOM      3  C   UNL     1      34.676   3.736  14.878  0.00  0.00    +0.000 A 
ATOM      4  C   UNL     1      34.931   2.394  15.164  0.00  0.00    +0.000 A 
ATOM      5  C   UNL     1      36.096   1.834  14.674  0.00  0.00    +0.000 A 
ATOM      6  C   UNL     1      37.008   2.541  13.920  0.00  0.00    +0.000 A 
ATOM      7  C   UNL     1      36.696   3.875  13.669  0.00  0.00    +0.000 A 
ATOM      8  C   UNL     1      38.067   1.728  13.571  0.00  0.00    +0.000 A 
ATOM      9  C   UNL     1      37.776   0.495  14.137  0.00  0.00    +0.000 A 
ATOM     10  N   UNL     1      36.595   0.562  14.797  0.00  0.00    +0.000 N 
ENDROOT
BRANCH   8  11
ATOM     11  C   UNL     1      39.241   2.114  12.766  0.00  0.00    +0.000 A 
ATOM     12  C   UNL     1      40.300   2.760  13.371  0.00  0.00    +0.000 A 
ATOM     13  C   UNL     1      41.408   3.145  12.690  0.00  0.00    +0.000 A 
ATOM     14  C   UNL     1      41.481   2.884  11.343  0.00  0.00    +0.000 A 
ATOM     15  C   UNL     1      40.430   2.233  10.685  0.00  0.00    +0.000 A 
ATOM     16  C   UNL     1      39.328   1.864  11.434  0.00  0.00    +0.000 A 
ENDBRANCH   8  11
BRANCH   9  17
ATOM     17  C   UNL     1      38.692  -0.631  14.009  0.00  0.00    +0.000 A 
ATOM     18  C   UNL     1      39.863  -0.628  14.719  0.00  0.00    +0.000 A 
ATOM     19  C   UNL     1      40.770  -1.654  14.644  0.00  0.00    +0.000 A 
ATOM     20  C   UNL     1      40.506  -2.745  13.821  0.00  0.00    +0.000 A 
ATOM     21  C   UNL     1      39.326  -2.741  13.107  0.00  0.00    +0.000 A 
ATOM     22  C   UNL     1      38.414  -1.710  13.183  0.00  0.00    +0.000 A 
ENDBRANCH   9  17
BRANCH  10  23
ATOM     23  C   UNL     1      35.911  -0.488  15.522  0.00  0.00    +0.000 C 
BRANCH  23  24
ATOM     24  C   UNL     1      36.542  -0.354  17.053  0.00  0.00    +0.000 C 
ATOM     25  O   UNL     1      35.203   0.017  17.681  0.00  0.00    +0.000 OA
BRANCH  24  26
ATOM     26  C   UNL     1      36.353  -1.986  17.367  0.00  0.00    +0.000 C 
BRANCH  26  27
ATOM     27  N   UNL     1      37.589  -2.448  16.758  0.00  0.00    +0.000 NA
ATOM     28  C   UNL     1      38.721  -2.185  17.598  0.00  0.00    +0.000 C 
ATOM     29  C   UNL     1      38.569  -2.975  18.879  0.00  0.00    +0.000 C 
ATOM     30  C   UNL     1      38.497  -4.459  18.611  0.00  0.00    +0.000 C 
ATOM     31  C   UNL     1      38.367  -4.772  17.150  0.00  0.00    +0.000 C 
ATOM     32  C   UNL     1      37.585  -3.803  16.364  0.00  0.00    +0.000 C 
ENDBRANCH  26  27
ENDBRANCH  24  26
ENDBRANCH  23  24
ENDBRANCH  10  23
TORSDOF 6
ENDMDL
MODEL 3
REMARK VINA RESULT:      -6.6      2.232      6.356
REMARK  Name = 
REMARK  6 active torsions:
REMARK  status: ('A' for Active; 'I' for Inactive)
REMARK    1  A    between atoms: C_8  and  C_9
REMARK    2  A    between atoms: C_15  and  C_16
REMARK    3  A    between atoms: N_22  and  C_23
REMARK    4  A    between atoms: C_23  and  C_24
REMARK    5  A    between atoms: C_24  and  C_26
REMARK    6  A    between atoms: C_26  and  N_27
REMARK                            x       y       z     vdW  Elec       q    Type
REMARK                         _______ _______ _______ _____ _____    ______ ____
ROOT
ATOM      1  C   UNL     1      42.009  -3.350  12.020  0.00  0.00    +0.000 C 
ATOM      2  C   UNL     1      41.120  -2.388  12.739  0.00  0.00    +0.000 A 
ATOM      3  C   UNL     1      41.184  -1.037  12.478  0.00  0.00    +0.000 A 
ATOM      4  C   UNL     1      40.360  -0.128  13.143  0.00  0.00    +0.000 A 
ATOM      5  C   UNL     1      39.470  -0.619  14.079  0.00  0.00    +0.000 A 
ATOM      6  C   UNL     1      39.363  -1.961  14.380  0.00  0.00    +0.000 A 
ATOM      7  C   UNL     1      40.212  -2.817  13.682  0.00  0.00    +0.000 A 
ATOM      8  C   UNL     1      38.396  -2.155  15.344  0.00  0.00    +0.000 A 
ATOM      9  C   UNL     1      37.910  -0.887  15.628  0.00  0.00    +0.000 A 
ATOM     10  N   UNL     1      38.556   0.030  14.869  0.00  0.00    +0.000 N 
ENDROOT
BRANCH   8  11
ATOM     11  C   UNL     1      37.987  -3.447  15.927  0.00  0.00    +0.000 A 
ATOM     12  C   UNL     1      36.838  -4.066  15.476  0.00  0.00    +0.000 A 
ATOM     13  C   UNL     1      36.403  -5.252  15.970  0.00  0.00    +0.000 A 
ATOM     14  C   UNL     1      37.132  -5.864  16.960  0.00  0.00    +0.000 A 
ATOM     15  C   UNL     1      38.304  -5.274  17.450  0.00  0.00    +0.000 A 
ATOM     16  C   UNL     1      38.696  -4.065  16.906  0.00  0.00    +0.000 A 
ENDBRANCH   8  11
BRANCH   9  17
ATOM     17  C   UNL     1      36.881  -0.681  16.639  0.00  0.00    +0.000 A 
ATOM     18  C   UNL     1      35.576  -0.533  16.247  0.00  0.00    +0.000 A 
ATOM     19  C   UNL     1      34.559  -0.335  17.145  0.00  0.00    +0.000 A 
ATOM     20  C   UNL     1      34.846  -0.280  18.507  0.00  0.00    +0.000 A 
ATOM     21  C   UNL     1      36.161  -0.428  18.894  0.00  0.00    +0.000 A 
ATOM     22  C   UNL     1      37.184  -0.628  17.991  0.00  0.00    +0.000 A 
ENDBRANCH   9  17
BRANCH  10  23
ATOM     23  C   UNL     1      38.362   1.465  14.836  0.00  0.00    +0.000 C 
BRANCH  23  24
ATOM     24  C   UNL     1      37.151   1.651  13.715  0.00  0.00    +0.000 C 
ATOM     25  O   UNL     1      36.375   2.647  14.569  0.00  0.00    +0.000 OA
BRANCH  24  26
ATOM     26  C   UNL     1      37.980   2.847  12.891  0.00  0.00    +0.000 C 
BRANCH  26  27
ATOM     27  N   UNL     1      37.425   2.599  11.571  0.00  0.00    +0.000 NA
ATOM     28  C   UNL     1      37.942   3.520  10.601  0.00  0.00    +0.000 C 
ATOM     29  C   UNL     1      39.433   3.302  10.471  0.00  0.00    +0.000 C 
ATOM     30  C   UNL     1      39.752   1.896  10.025  0.00  0.00    +0.000 C 
ATOM     31  C   UNL     1      38.547   1.004  10.037  0.00  0.00    +0.000 C 
ATOM     32  C   UNL     1      37.570   1.275  11.105  0.00  0.00    +0.000 C 
ENDBRANCH  26  27
ENDBRANCH  24  26
ENDBRANCH  23  24
ENDBRANCH  10  23
TORSDOF 6
ENDMDL
MODEL 4
REMARK VINA RESULT:      -6.6      2.443      5.902
REMARK  Name = 
REMARK  6 active torsions:
REMARK  status: ('A' for Active; 'I' for Inactive)
REMARK    1  A    between atoms: C_8  and  C_9
REMARK    2  A    between atoms: C_15  and  C_16
REMARK    3  A    between atoms: N_22  and  C_23
REMARK    4  A    between atoms: C_23  and  C_24
REMARK    5  A    between atoms: C_24  and  C_26
REMARK    6  A    between atoms: C_26  and  N_27
REMARK                            x       y       z     vdW  Elec       q    Type
REMARK                         _______ _______ _______ _____ _____    ______ ____
ROOT
ATOM      1  C   UNL     1      41.680  -3.731  11.335  0.00  0.00    +0.000 C 
ATOM      2  C   UNL     1      40.651  -2.725  11.737  0.00  0.00    +0.000 A 
ATOM      3  C   UNL     1      40.312  -1.687  10.896  0.00  0.00    +0.000 A 
ATOM      4  C   UNL     1      39.354  -0.740  11.259  0.00  0.00    +0.000 A 
ATOM      5  C   UNL     1      38.748  -0.868  12.495  0.00  0.00    +0.000 A 
ATOM      6  C   UNL     1      39.049  -1.885  13.376  0.00  0.00    +0.000 A 
ATOM      7  C   UNL     1      40.013  -2.798  12.955  0.00  0.00    +0.000 A 
ATOM      8  C   UNL     1      38.292  -1.759  14.522  0.00  0.00    +0.000 A 
ATOM      9  C   UNL     1      37.514  -0.628  14.318  0.00  0.00    +0.000 A 
ATOM     10  N   UNL     1      37.789  -0.098  13.103  0.00  0.00    +0.000 N 
ENDROOT
BRANCH   8  11
ATOM     11  C   UNL     1      38.323  -2.652  15.696  0.00  0.00    +0.000 A 
ATOM     12  C   UNL     1      37.703  -3.883  15.634  0.00  0.00    +0.000 A 
ATOM     13  C   UNL     1      37.691  -4.751  16.676  0.00  0.00    +0.000 A 
ATOM     14  C   UNL     1      38.320  -4.392  17.843  0.00  0.00    +0.000 A 
ATOM     15  C   UNL     1      38.963  -3.153  17.954  0.00  0.00    +0.000 A 
ATOM     16  C   UNL     1      38.941  -2.312  16.857  0.00  0.00    +0.000 A 
ENDBRANCH   8  11
BRANCH   9  17
ATOM     17  C   UNL     1      36.592  -0.150  15.341  0.00  0.00    +0.000 A 
ATOM     18  C   UNL     1      36.716   1.130  15.810  0.00  0.00    +0.000 A 
ATOM     19  C   UNL     1      35.883   1.644  16.772  0.00  0.00    +0.000 A 
ATOM     20  C   UNL     1      34.871   0.847  17.300  0.00  0.00    +0.000 A 
ATOM     21  C   UNL     1      34.753  -0.442  16.824  0.00  0.00    +0.000 A 
ATOM     22  C   UNL     1      35.589  -0.958  15.856  0.00  0.00    +0.000 A 
ENDBRANCH   9  17
BRANCH  10  23
ATOM     23  C   UNL     1      37.207   1.074  12.483  0.00  0.00    +0.000 C 
BRANCH  23  24
ATOM     24  C   UNL     1      38.435   2.190  12.569  0.00  0.00    +0.000 C 
ATOM     25  O   UNL     1      38.362   2.535  11.086  0.00  0.00    +0.000 OA
BRANCH  24  26
ATOM     26  C   UNL     1      37.399   3.424  13.013  0.00  0.00    +0.000 C 
BRANCH  26  27
ATOM     27  N   UNL     1      38.404   4.384  13.438  0.00  0.00    +0.000 NA
ATOM     28  C   UNL     1      37.807   5.600  13.906  0.00  0.00    +0.000 C 
ATOM     29  C   UNL     1      36.981   5.294  15.136  0.00  0.00    +0.000 C 
ATOM     30  C   UNL     1      37.826   4.710  16.242  0.00  0.00    +0.000 C 
ATOM     31  C   UNL     1      39.213   4.370  15.784  0.00  0.00    +0.000 C 
ATOM     32  C   UNL     1      39.322   3.897  14.394  0.00  0.00    +0.000 C 
ENDBRANCH  26  27
ENDBRANCH  24  26
ENDBRANCH  23  24
ENDBRANCH  10  23
TORSDOF 6
ENDMDL
MODEL 5
REMARK VINA RESULT:      -6.5      1.783      6.227
REMARK  Name = 
REMARK  6 active torsions:
REMARK  status: ('A' for Active; 'I' for Inactive)
REMARK    1  A    between atoms: C_8  and  C_9
REMARK    2  A    between atoms: C_15  and  C_16
REMARK    3  A    between atoms: N_22  and  C_23
REMARK    4  A    between atoms: C_23  and  C_24
REMARK    5  A    between atoms: C_24  and  C_26
REMARK    6  A    between atoms: C_26  and  N_27
REMARK                            x       y       z     vdW  Elec       q    Type
REMARK                         _______ _______ _______ _____ _____    ______ ____
ROOT
ATOM      1  C   UNL     1      35.400  -0.626  19.766  0.00  0.00    +0.000 C 
ATOM      2  C   UNL     1      36.151  -0.870  18.497  0.00  0.00    +0.000 A 
ATOM      3  C   UNL     1      36.812  -2.061  18.287  0.00  0.00    +0.000 A 
ATOM      4  C   UNL     1      37.518  -2.302  17.107  0.00  0.00    +0.000 A 
ATOM      5  C   UNL     1      37.540  -1.309  16.146  0.00  0.00    +0.000 A 
ATOM      6  C   UNL     1      36.897  -0.099  16.303  0.00  0.00    +0.000 A 
ATOM      7  C   UNL     1      36.209   0.080  17.502  0.00  0.00    +0.000 A 
ATOM      8  C   UNL     1      37.089   0.689  15.189  0.00  0.00    +0.000 A 
ATOM      9  C   UNL     1      37.874  -0.075  14.337  0.00  0.00    +0.000 A 
ATOM     10  N   UNL     1      38.141  -1.271  14.914  0.00  0.00    +0.000 N 
ENDROOT
BRANCH   8  11
ATOM     11  C   UNL     1      36.559   2.050  14.974  0.00  0.00    +0.000 A 
ATOM     12  C   UNL     1      37.421   3.127  14.990  0.00  0.00    +0.000 A 
ATOM     13  C   UNL     1      37.000   4.404  14.803  0.00  0.00    +0.000 A 
ATOM     14  C   UNL     1      35.664   4.636  14.590  0.00  0.00    +0.000 A 
ATOM     15  C   UNL     1      34.751   3.573  14.566  0.00  0.00    +0.000 A 
ATOM     16  C   UNL     1      35.240   2.296  14.762  0.00  0.00    +0.000 A 
ENDBRANCH   8  11
BRANCH   9  17
ATOM     17  C   UNL     1      38.318   0.442  13.049  0.00  0.00    +0.000 A 
ATOM     18  C   UNL     1      39.569   0.989  12.941  0.00  0.00    +0.000 A 
ATOM     19  C   UNL     1      40.049   1.495  11.760  0.00  0.00    +0.000 A 
ATOM     20  C   UNL     1      39.248   1.458  10.621  0.00  0.00    +0.000 A 
ATOM     21  C   UNL     1      37.989   0.907  10.738  0.00  0.00    +0.000 A 
ATOM     22  C   UNL     1      37.507   0.398  11.925  0.00  0.00    +0.000 A 
ENDBRANCH   9  17
BRANCH  10  23
ATOM     23  C   UNL     1      38.916  -2.372  14.379  0.00  0.00    +0.000 C 
BRANCH  23  24
ATOM     24  C   UNL     1      40.438  -2.081  14.977  0.00  0.00    +0.000 C 
ATOM     25  O   UNL     1      40.511  -3.411  15.718  0.00  0.00    +0.000 OA
BRANCH  24  26
ATOM     26  C   UNL     1      41.185  -2.685  13.608  0.00  0.00    +0.000 C 
BRANCH  26  27
ATOM     27  N   UNL     1      42.546  -2.296  13.937  0.00  0.00    +0.000 NA
ATOM     28  C   UNL     1      43.451  -2.586  12.863  0.00  0.00    +0.000 C 
ATOM     29  C   UNL     1      43.061  -1.753  11.662  0.00  0.00    +0.000 C 
ATOM     30  C   UNL     1      43.124  -0.276  11.966  0.00  0.00    +0.000 C 
ATOM     31  C   UNL     1      43.334   0.000  13.425  0.00  0.00    +0.000 C 
ATOM     32  C   UNL     1      42.697  -0.954  14.348  0.00  0.00    +0.000 C 
ENDBRANCH  26  27
ENDBRANCH  24  26
ENDBRANCH  23  24
ENDBRANCH  10  23
TORSDOF 6
ENDMDL
MODEL 6
REMARK VINA RESULT:      -6.4     27.968     31.066
REMARK  Name = 
REMARK  6 active torsions:
REMARK  status: ('A' for Active; 'I' for Inactive)
REMARK    1  A    between atoms: C_8  and  C_9
REMARK    2  A    between atoms: C_15  and  C_16
REMARK    3  A    between atoms: N_22  and  C_23
REMARK    4  A    between atoms: C_23  and  C_24
REMARK    5  A    between atoms: C_24  and  C_26
REMARK    6  A    between atoms: C_26  and  N_27
REMARK                            x       y       z     vdW  Elec       q    Type
REMARK                         _______ _______ _______ _____ _____    ______ ____
ROOT
ATOM      1  C   UNL     1      22.813  15.122  39.800  0.00  0.00    +0.000 C 
ATOM      2  C   UNL     1      24.274  15.251  39.514  0.00  0.00    +0.000 A 
ATOM      3  C   UNL     1      25.194  15.268  40.540  0.00  0.00    +0.000 A 
ATOM      4  C   UNL     1      26.561  15.389  40.287  0.00  0.00    +0.000 A 
ATOM      5  C   UNL     1      26.975  15.492  38.972  0.00  0.00    +0.000 A 
ATOM      6  C   UNL     1      26.098  15.480  37.908  0.00  0.00    +0.000 A 
ATOM      7  C   UNL     1      24.747  15.357  38.225  0.00  0.00    +0.000 A 
ATOM      8  C   UNL     1      26.791  15.597  36.721  0.00  0.00    +0.000 A 
ATOM      9  C   UNL     1      28.126  15.682  37.090  0.00  0.00    +0.000 A 
ATOM     10  N   UNL     1      28.232  15.619  38.439  0.00  0.00    +0.000 N 
ENDROOT
BRANCH   8  11
ATOM     11  C   UNL     1      26.210  15.621  35.365  0.00  0.00    +0.000 A 
ATOM     12  C   UNL     1      25.637  16.783  34.889  0.00  0.00    +0.000 A 
ATOM     13  C   UNL     1      25.083  16.874  33.654  0.00  0.00    +0.000 A 
ATOM     14  C   UNL     1      25.090  15.765  32.843  0.00  0.00    +0.000 A 
ATOM     15  C   UNL     1      25.659  14.564  33.283  0.00  0.00    +0.000 A 
ATOM     16  C   UNL     1      26.209  14.534  34.551  0.00  0.00    +0.000 A 
ENDBRANCH   8  11
BRANCH   9  17
ATOM     17  C   UNL     1      29.176  15.849  36.094  0.00  0.00    +0.000 A 
ATOM     18  C   UNL     1      29.356  17.072  35.505  0.00  0.00    +0.000 A 
ATOM     19  C   UNL     1      30.324  17.297  34.560  0.00  0.00    +0.000 A 
ATOM     20  C   UNL     1      31.163  16.255  34.175  0.00  0.00    +0.000 A 
ATOM     21  C   UNL     1      30.976  15.025  34.771  0.00  0.00    +0.000 A 
ATOM     22  C   UNL     1      30.003  14.799  35.721  0.00  0.00    +0.000 A 
ENDBRANCH   9  17
BRANCH  10  23
ATOM     23  C   UNL     1      29.432  15.663  39.248  0.00  0.00    +0.000 C 
BRANCH  23  24
ATOM     24  C   UNL     1      29.872  14.064  39.348  0.00  0.00    +0.000 C 
ATOM     25  O   UNL     1      31.355  14.356  39.151  0.00  0.00    +0.000 OA
BRANCH  24  26
ATOM     26  C   UNL     1      29.979  14.109  41.016  0.00  0.00    +0.000 C 
BRANCH  26  27
ATOM     27  N   UNL     1      29.964  12.675  41.254  0.00  0.00    +0.000 NA
ATOM     28  C   UNL     1      29.652  12.371  42.619  0.00  0.00    +0.000 C 
ATOM     29  C   UNL     1      28.249  12.854  42.915  0.00  0.00    +0.000 C 
ATOM     30  C   UNL     1      27.231  12.185  42.023  0.00  0.00    +0.000 C 
ATOM     31  C   UNL     1      27.869  11.388  40.925  0.00  0.00    +0.000 C 
ATOM     32  C   UNL     1      29.126  11.939  40.390  0.00  0.00    +0.000 C 
ENDBRANCH  26  27
ENDBRANCH  24  26
ENDBRANCH  23  24
ENDBRANCH  10  23
TORSDOF 6
ENDMDL
MODEL 7
REMARK VINA RESULT:      -6.4     27.243     30.700
REMARK  Name = 
REMARK  6 active torsions:
REMARK  status: ('A' for Active; 'I' for Inactive)
REMARK    1  A    between atoms: C_8  and  C_9
REMARK    2  A    between atoms: C_15  and  C_16
REMARK    3  A    between atoms: N_22  and  C_23
REMARK    4  A    between atoms: C_23  and  C_24
REMARK    5  A    between atoms: C_24  and  C_26
REMARK    6  A    between atoms: C_26  and  N_27
REMARK                            x       y       z     vdW  Elec       q    Type
REMARK                         _______ _______ _______ _____ _____    ______ ____
ROOT
ATOM      1  C   UNL     1      32.335  16.003  33.377  0.00  0.00    +0.000 C 
ATOM      2  C   UNL     1      31.512  15.988  34.624  0.00  0.00    +0.000 A 
ATOM      3  C   UNL     1      32.107  16.069  35.864  0.00  0.00    +0.000 A 
ATOM      4  C   UNL     1      31.350  16.055  37.037  0.00  0.00    +0.000 A 
ATOM      5  C   UNL     1      29.976  15.958  36.924  0.00  0.00    +0.000 A 
ATOM      6  C   UNL     1      29.328  15.874  35.710  0.00  0.00    +0.000 A 
ATOM      7  C   UNL     1      30.139  15.893  34.577  0.00  0.00    +0.000 A 
ATOM      8  C   UNL     1      27.965  15.789  35.905  0.00  0.00    +0.000 A 
ATOM      9  C   UNL     1      27.795  15.822  37.282  0.00  0.00    +0.000 A 
ATOM     10  N   UNL     1      29.002  15.923  37.888  0.00  0.00    +0.000 N 
ENDROOT
BRANCH   8  11
ATOM     11  C   UNL     1      26.934  15.687  34.855  0.00  0.00    +0.000 A 
ATOM     12  C   UNL     1      26.399  16.837  34.311  0.00  0.00    +0.000 A 
ATOM     13  C   UNL     1      25.446  16.816  33.345  0.00  0.00    +0.000 A 
ATOM     14  C   UNL     1      24.993  15.602  32.889  0.00  0.00    +0.000 A 
ATOM     15  C   UNL     1      25.506  14.408  33.411  0.00  0.00    +0.000 A 
ATOM     16  C   UNL     1      26.475  14.495  34.393  0.00  0.00    +0.000 A 
ENDBRANCH   8  11
BRANCH   9  17
ATOM     17  C   UNL     1      26.471  15.720  37.882  0.00  0.00    +0.000 A 
ATOM     18  C   UNL     1      25.609  16.780  37.788  0.00  0.00    +0.000 A 
ATOM     19  C   UNL     1      24.349  16.752  38.332  0.00  0.00    +0.000 A 
ATOM     20  C   UNL     1      23.918  15.613  39.006  0.00  0.00    +0.000 A 
ATOM     21  C   UNL     1      24.792  14.550  39.098  0.00  0.00    +0.000 A 
ATOM     22  C   UNL     1      26.057  14.578  38.552  0.00  0.00    +0.000 A 
ENDBRANCH   9  17
BRANCH  10  23
ATOM     23  C   UNL     1      29.290  15.995  39.306  0.00  0.00    +0.000 C 
BRANCH  23  24
ATOM     24  C   UNL     1      29.512  14.402  39.722  0.00  0.00    +0.000 C 
ATOM     25  O   UNL     1      30.887  14.649  40.332  0.00  0.00    +0.000 OA
BRANCH  24  26
ATOM     26  C   UNL     1      28.718  14.583  41.182  0.00  0.00    +0.000 C 
BRANCH  26  27
ATOM     27  N   UNL     1      28.820  13.206  41.635  0.00  0.00    +0.000 NA
ATOM     28  C   UNL     1      28.192  13.023  42.911  0.00  0.00    +0.000 C 
ATOM     29  C   UNL     1      26.713  13.303  42.768  0.00  0.00    +0.000 C 
ATOM     30  C   UNL     1      26.065  12.374  41.769  0.00  0.00    +0.000 C 
ATOM     31  C   UNL     1      27.070  11.564  41.006  0.00  0.00    +0.000 C 
ATOM     32  C   UNL     1      28.345  12.243  40.719  0.00  0.00    +0.000 C 
ENDBRANCH  26  27
ENDBRANCH  24  26
ENDBRANCH  23  24
ENDBRANCH  10  23
TORSDOF 6
ENDMDL
MODEL 8
REMARK VINA RESULT:      -6.4      5.166      8.414
REMARK  Name = 
REMARK  6 active torsions:
REMARK  status: ('A' for Active; 'I' for Inactive)
REMARK    1  A    between atoms: C_8  and  C_9
REMARK    2  A    between atoms: C_15  and  C_16
REMARK    3  A    between atoms: N_22  and  C_23
REMARK    4  A    between atoms: C_23  and  C_24
REMARK    5  A    between atoms: C_24  and  C_26
REMARK    6  A    between atoms: C_26  and  N_27
REMARK                            x       y       z     vdW  Elec       q    Type
REMARK                         _______ _______ _______ _____ _____    ______ ____
ROOT
ATOM      1  C   UNL     1      39.715   7.267  20.172  0.00  0.00    +0.000 C 
ATOM      2  C   UNL     1      39.124   6.657  18.942  0.00  0.00    +0.000 A 
ATOM      3  C   UNL     1      39.235   5.305  18.703  0.00  0.00    +0.000 A 
ATOM      4  C   UNL     1      38.689   4.722  17.558  0.00  0.00    +0.000 A 
ATOM      5  C   UNL     1      38.030   5.541  16.661  0.00  0.00    +0.000 A 
ATOM      6  C   UNL     1      37.890   6.900  16.850  0.00  0.00    +0.000 A 
ATOM      7  C   UNL     1      38.456   7.421  18.011  0.00  0.00    +0.000 A 
ATOM      8  C   UNL     1      37.191   7.455  15.799  0.00  0.00    +0.000 A 
ATOM      9  C   UNL     1      36.904   6.392  14.955  0.00  0.00    +0.000 A 
ATOM     10  N   UNL     1      37.408   5.247  15.475  0.00  0.00    +0.000 N 
ENDROOT
BRANCH   8  11
ATOM     11  C   UNL     1      36.836   8.878  15.636  0.00  0.00    +0.000 A 
ATOM     12  C   UNL     1      35.667   9.357  16.192  0.00  0.00    +0.000 A 
ATOM     13  C   UNL     1      35.280  10.653  16.078  0.00  0.00    +0.000 A 
ATOM     14  C   UNL     1      36.080  11.524  15.381  0.00  0.00    +0.000 A 
ATOM     15  C   UNL     1      37.275  11.083  14.798  0.00  0.00    +0.000 A 
ATOM     16  C   UNL     1      37.616   9.752  14.950  0.00  0.00    +0.000 A 
ENDBRANCH   8  11
BRANCH   9  17
ATOM     17  C   UNL     1      36.189   6.593  13.701  0.00  0.00    +0.000 A 
ATOM     18  C   UNL     1      34.823   6.692  13.715  0.00  0.00    +0.000 A 
ATOM     19  C   UNL     1      34.089   6.881  12.572  0.00  0.00    +0.000 A 
ATOM     20  C   UNL     1      34.741   6.978  11.346  0.00  0.00    +0.000 A 
ATOM     21  C   UNL     1      36.116   6.876  11.338  0.00  0.00    +0.000 A 
ATOM     22  C   UNL     1      36.854   6.687  12.488  0.00  0.00    +0.000 A 
ENDBRANCH   9  17
BRANCH  10  23
ATOM     23  C   UNL     1      37.335   3.907  14.932  0.00  0.00    +0.000 C 
BRANCH  23  24
ATOM     24  C   UNL     1      36.255   3.154  15.944  0.00  0.00    +0.000 C 
ATOM     25  O   UNL     1      35.044   3.539  15.101  0.00  0.00    +0.000 OA
BRANCH  24  26
ATOM     26  C   UNL     1      36.442   1.676  15.185  0.00  0.00    +0.000 C 
BRANCH  26  27
ATOM     27  N   UNL     1      36.984   0.940  16.314  0.00  0.00    +0.000 NA
ATOM     28  C   UNL     1      36.043   0.862  17.393  0.00  0.00    +0.000 C 
ATOM     29  C   UNL     1      34.836   0.078  16.929  0.00  0.00    +0.000 C 
ATOM     30  C   UNL     1      35.212  -1.324  16.510  0.00  0.00    +0.000 C 
ATOM     31  C   UNL     1      36.697  -1.521  16.441  0.00  0.00    +0.000 C 
ATOM     32  C   UNL     1      37.472  -0.347  16.006  0.00  0.00    +0.000 C 
ENDBRANCH  26  27
ENDBRANCH  24  26
ENDBRANCH  23  24
ENDBRANCH  10  23
TORSDOF 6
ENDMDL
MODEL 9
REMARK VINA RESULT:      -6.2     22.754     25.839
REMARK  Name = 
REMARK  6 active torsions:
REMARK  status: ('A' for Active; 'I' for Inactive)
REMARK    1  A    between atoms: C_8  and  C_9
REMARK    2  A    between atoms: C_15  and  C_16
REMARK    3  A    between atoms: N_22  and  C_23
REMARK    4  A    between atoms: C_23  and  C_24
REMARK    5  A    between atoms: C_24  and  C_26
REMARK    6  A    between atoms: C_26  and  N_27
REMARK                            x       y       z     vdW  Elec       q    Type
REMARK                         _______ _______ _______ _____ _____    ______ ____
ROOT
ATOM      1  C   UNL     1      11.251   1.499   7.695  0.00  0.00    +0.000 C 
ATOM      2  C   UNL     1      12.130   0.427   7.138  0.00  0.00    +0.000 A 
ATOM      3  C   UNL     1      12.674   0.545   5.877  0.00  0.00    +0.000 A 
ATOM      4  C   UNL     1      13.496  -0.449   5.344  0.00  0.00    +0.000 A 
ATOM      5  C   UNL     1      13.753  -1.566   6.117  0.00  0.00    +0.000 A 
ATOM      6  C   UNL     1      13.235  -1.737   7.384  0.00  0.00    +0.000 A 
ATOM      7  C   UNL     1      12.423  -0.709   7.859  0.00  0.00    +0.000 A 
ATOM      8  C   UNL     1      13.660  -2.937   7.913  0.00  0.00    +0.000 A 
ATOM      9  C   UNL     1      14.457  -3.503   6.928  0.00  0.00    +0.000 A 
ATOM     10  N   UNL     1      14.511  -2.678   5.855  0.00  0.00    +0.000 N 
ENDROOT
BRANCH   8  11
ATOM     11  C   UNL     1      13.323  -3.477   9.244  0.00  0.00    +0.000 A 
ATOM     12  C   UNL     1      14.134  -3.189  10.322  0.00  0.00    +0.000 A 
ATOM     13  C   UNL     1      13.885  -3.654  11.572  0.00  0.00    +0.000 A 
ATOM     14  C   UNL     1      12.781  -4.446  11.774  0.00  0.00    +0.000 A 
ATOM     15  C   UNL     1      11.929  -4.767  10.710  0.00  0.00    +0.000 A 
ATOM     16  C   UNL     1      12.235  -4.262   9.461  0.00  0.00    +0.000 A 
ENDBRANCH   8  11
BRANCH   9  17
ATOM     17  C   UNL     1      15.071  -4.811   7.112  0.00  0.00    +0.000 A 
ATOM     18  C   UNL     1      14.448  -5.922   6.608  0.00  0.00    +0.000 A 
ATOM     19  C   UNL     1      14.970  -7.183   6.746  0.00  0.00    +0.000 A 
ATOM     20  C   UNL     1      16.176  -7.356   7.420  0.00  0.00    +0.000 A 
ATOM     21  C   UNL     1      16.798  -6.234   7.926  0.00  0.00    +0.000 A 
ATOM     22  C   UNL     1      16.273  -4.967   7.787  0.00  0.00    +0.000 A 
ENDBRANCH   9  17
BRANCH  10  23
ATOM     23  C   UNL     1      15.230  -2.869   4.612  0.00  0.00    +0.000 C 
BRANCH  23  24
ATOM     24  C   UNL     1      16.739  -2.267   4.960  0.00  0.00    +0.000 C 
ATOM     25  O   UNL     1      17.464  -3.494   4.418  0.00  0.00    +0.000 OA
BRANCH  24  26
ATOM     26  C   UNL     1      16.838  -1.441   3.510  0.00  0.00    +0.000 C 
BRANCH  26  27
ATOM     27  N   UNL     1      16.858  -0.092   4.051  0.00  0.00    +0.000 NA
ATOM     28  C   UNL     1      18.139   0.233   4.608  0.00  0.00    +0.000 C 
ATOM     29  C   UNL     1      19.168   0.216   3.499  0.00  0.00    +0.000 C 
ATOM     30  C   UNL     1      18.838   1.219   2.420  0.00  0.00    +0.000 C 
ATOM     31  C   UNL     1      17.474   1.818   2.593  0.00  0.00    +0.000 C 
ATOM     32  C   UNL     1      16.453   0.915   3.150  0.00  0.00    +0.000 C 
ENDBRANCH  26  27
ENDBRANCH  24  26
ENDBRANCH  23  24
ENDBRANCH  10  23
TORSDOF 6
ENDMDL
MODEL 10
REMARK VINA RESULT:      -6.1     28.065     31.626
REMARK  Name = 
REMARK  6 active torsions:
REMARK  status: ('A' for Active; 'I' for Inactive)
REMARK    1  A    between atoms: C_8  and  C_9
REMARK    2  A    between atoms: C_15  and  C_16
REMARK    3  A    between atoms: N_22  and  C_23
REMARK    4  A    between atoms: C_23  and  C_24
REMARK    5  A    between atoms: C_24  and  C_26
REMARK    6  A    between atoms: C_26  and  N_27
REMARK                            x       y       z     vdW  Elec       q    Type
REMARK                         _______ _______ _______ _____ _____    ______ ____
ROOT
ATOM      1  C   UNL     1      19.463  11.995  -1.450  0.00  0.00    +0.000 C 
ATOM      2  C   UNL     1      18.157  12.270  -0.777  0.00  0.00    +0.000 A 
ATOM      3  C   UNL     1      17.445  11.254  -0.177  0.00  0.00    +0.000 A 
ATOM      4  C   UNL     1      16.224  11.496   0.454  0.00  0.00    +0.000 A 
ATOM      5  C   UNL     1      15.741  12.790   0.463  0.00  0.00    +0.000 A 
ATOM      6  C   UNL     1      16.410  13.845  -0.122  0.00  0.00    +0.000 A 
ATOM      7  C   UNL     1      17.623  13.539  -0.735  0.00  0.00    +0.000 A 
ATOM      8  C   UNL     1      15.694  15.012   0.043  0.00  0.00    +0.000 A 
ATOM      9  C   UNL     1      14.559  14.641   0.750  0.00  0.00    +0.000 A 
ATOM     10  N   UNL     1      14.590  13.310   0.999  0.00  0.00    +0.000 N 
ENDROOT
BRANCH   8  11
ATOM     11  C   UNL     1      16.080  16.353  -0.437  0.00  0.00    +0.000 A 
ATOM     12  C   UNL     1      16.699  17.234   0.425  0.00  0.00    +0.000 A 
ATOM     13  C   UNL     1      17.077  18.482   0.050  0.00  0.00    +0.000 A 
ATOM     14  C   UNL     1      16.833  18.887  -1.239  0.00  0.00    +0.000 A 
ATOM     15  C   UNL     1      16.206  18.028  -2.150  0.00  0.00    +0.000 A 
ATOM     16  C   UNL     1      15.846  16.769  -1.709  0.00  0.00    +0.000 A 
ENDBRANCH   8  11
BRANCH   9  17
ATOM     17  C   UNL     1      13.530  15.615   1.091  0.00  0.00    +0.000 A 
ATOM     18  C   UNL     1      13.587  16.256   2.300  0.00  0.00    +0.000 A 
ATOM     19  C   UNL     1      12.652  17.182   2.685  0.00  0.00    +0.000 A 
ATOM     20  C   UNL     1      11.599  17.492   1.828  0.00  0.00    +0.000 A 
ATOM     21  C   UNL     1      11.547  16.842   0.613  0.00  0.00    +0.000 A 
ATOM     22  C   UNL     1      12.487  15.911   0.226  0.00  0.00    +0.000 A 
ENDBRANCH   9  17
BRANCH  10  23
ATOM     23  C   UNL     1      13.617  12.507   1.710  0.00  0.00    +0.000 C 
BRANCH  23  24
ATOM     24  C   UNL     1      13.236  11.324   0.608  0.00  0.00    +0.000 C 
ATOM     25  O   UNL     1      12.233  10.644   1.534  0.00  0.00    +0.000 OA
BRANCH  24  26
ATOM     26  C   UNL     1      12.069  12.267  -0.131  0.00  0.00    +0.000 C 
BRANCH  26  27
ATOM     27  N   UNL     1      12.118  11.649  -1.445  0.00  0.00    +0.000 NA
ATOM     28  C   UNL     1      11.716  12.564  -2.473  0.00  0.00    +0.000 C 
ATOM     29  C   UNL     1      12.703  13.709  -2.517  0.00  0.00    +0.000 C 
ATOM     30  C   UNL     1      14.102  13.224  -2.817  0.00  0.00    +0.000 C 
ATOM     31  C   UNL     1      14.211  11.729  -2.774  0.00  0.00    +0.000 C 
ATOM     32  C   UNL     1      13.356  11.061  -1.779  0.00  0.00    +0.000 C 
ENDBRANCH  26  27
ENDBRANCH  24  26
ENDBRANCH  23  24
ENDBRANCH  10  23
TORSDOF 6
ENDMDL
