MODEL 1
REMARK VINA RESULT:      -6.2      0.000      0.000
REMARK  Name = 
REMARK  4 active torsions:
REMARK  status: ('A' for Active; 'I' for Inactive)
REMARK    1  A    between atoms: S_2  and  C_3
REMARK    2  A    between atoms: C_3  and  C_4
REMARK    3  A    between atoms: N_6  and  C_7
REMARK    4  A    between atoms: C_10  and  N_11
REMARK                            x       y       z     vdW  Elec       q    Type
REMARK                         _______ _______ _______ _____ _____    ______ ____
ROOT
ATOM      1  C   UNL     1      20.018   9.876  38.220  0.00  0.00    +0.000 A 
ATOM      2  N   UNL     1      19.574  10.129  36.977  0.00  0.00    +0.000 NA
ATOM      3  N   UNL     1      18.259  10.273  36.952  0.00  0.00    +0.000 N 
ATOM      4  C   UNL     1      17.809  10.114  38.210  0.00  0.00    +0.000 A 
ATOM      5  C   UNL     1      18.896   9.865  39.015  0.00  0.00    +0.000 A 
ATOM      6  C   UNL     1      18.458   9.682  40.414  0.00  0.00    +0.000 C 
ATOM      7  C   UNL     1      16.967   9.374  40.271  0.00  0.00    +0.000 C 
ATOM      8  N   UNL     1      16.651  10.095  39.069  0.00  0.00    +0.000 NA
ENDROOT
BRANCH   3   9
ATOM      9  C   UNL     1      17.441  10.547  35.820  0.00  0.00    +0.000 A 
ATOM     10  C   UNL     1      16.301  11.334  35.922  0.00  0.00    +0.000 A 
ATOM     11  C   UNL     1      15.505  11.604  34.831  0.00  0.00    +0.000 A 
ATOM     12  C   UNL     1      15.798  11.106  33.581  0.00  0.00    +0.000 A 
ATOM     13  C   UNL     1      16.940  10.316  33.466  0.00  0.00    +0.000 A 
ATOM     14  C   UNL     1      17.732  10.051  34.568  0.00  0.00    +0.000 A 
BRANCH  12  15
ATOM     15  N   UNL     1      14.998  11.366  32.434  0.00  0.00    +0.000 N 
ATOM     16  O   UNL     1      14.637  10.425  31.704  0.00  0.00    +0.000 OA
ATOM     17  O   UNL     1      14.611  12.633  32.107  0.00  0.00    +0.000 OA
ENDBRANCH  12  15
ENDBRANCH   3   9
BRANCH   1  18
ATOM     18  C   UNL     1      21.425   9.652  38.673  0.00  0.00    +0.000 C 
BRANCH  18  20
ATOM     19  C   UNL     1      23.418   9.160  36.499  0.00  0.00    +0.000 C 
ATOM     20  S   UNL     1      22.509  10.422  37.434  0.00  0.00    +0.000 S 
ENDBRANCH  18  20
ENDBRANCH   1  18
TORSDOF 4
ENDMDL
MODEL 2
REMARK VINA RESULT:      -6.2      1.896      3.173
REMARK  Name = 
REMARK  4 active torsions:
REMARK  status: ('A' for Active; 'I' for Inactive)
REMARK    1  A    between atoms: S_2  and  C_3
REMARK    2  A    between atoms: C_3  and  C_4
REMARK    3  A    between atoms: N_6  and  C_7
REMARK    4  A    between atoms: C_10  and  N_11
REMARK                            x       y       z     vdW  Elec       q    Type
REMARK                         _______ _______ _______ _____ _____    ______ ____
ROOT
ATOM      1  C   UNL     1      17.335   9.772  39.309  0.00  0.00    +0.000 A 
ATOM      2  N   UNL     1      16.565  10.162  38.280  0.00  0.00    +0.000 NA
ATOM      3  N   UNL     1      17.268  10.280  37.166  0.00  0.00    +0.000 N 
ATOM      4  C   UNL     1      18.542   9.962  37.454  0.00  0.00    +0.000 A 
ATOM      5  C   UNL     1      18.602   9.641  38.791  0.00  0.00    +0.000 A 
ATOM      6  C   UNL     1      19.985   9.282  39.164  0.00  0.00    +0.000 C 
ATOM      7  C   UNL     1      20.816   9.882  38.029  0.00  0.00    +0.000 C 
ATOM      8  N   UNL     1      19.882   9.817  36.939  0.00  0.00    +0.000 NA
ENDROOT
BRANCH   3   9
ATOM      9  C   UNL     1      16.793  10.670  35.882  0.00  0.00    +0.000 A 
ATOM     10  C   UNL     1      15.766  11.594  35.738  0.00  0.00    +0.000 A 
ATOM     11  C   UNL     1      15.301  11.977  34.499  0.00  0.00    +0.000 A 
ATOM     12  C   UNL     1      15.832  11.463  33.338  0.00  0.00    +0.000 A 
ATOM     13  C   UNL     1      16.864  10.536  33.469  0.00  0.00    +0.000 A 
ATOM     14  C   UNL     1      17.323  10.158  34.717  0.00  0.00    +0.000 A 
BRANCH  12  15
ATOM     15  N   UNL     1      15.377  11.837  32.043  0.00  0.00    +0.000 N 
ATOM     16  O   UNL     1      15.907  11.342  31.032  0.00  0.00    +0.000 OA
ATOM     17  O   UNL     1      14.362  12.735  31.876  0.00  0.00    +0.000 OA
ENDBRANCH  12  15
ENDBRANCH   3   9
BRANCH   1  18
ATOM     18  C   UNL     1      16.931   9.525  40.727  0.00  0.00    +0.000 C 
BRANCH  18  20
ATOM     19  C   UNL     1      18.365   7.352  42.198  0.00  0.00    +0.000 C 
ATOM     20  S   UNL     1      17.050   7.732  41.006  0.00  0.00    +0.000 S 
ENDBRANCH  18  20
ENDBRANCH   1  18
TORSDOF 4
ENDMDL
MODEL 3
REMARK VINA RESULT:      -5.9      2.275      2.564
REMARK  Name = 
REMARK  4 active torsions:
REMARK  status: ('A' for Active; 'I' for Inactive)
REMARK    1  A    between atoms: S_2  and  C_3
REMARK    2  A    between atoms: C_3  and  C_4
REMARK    3  A    between atoms: N_6  and  C_7
REMARK    4  A    between atoms: C_10  and  N_11
REMARK                            x       y       z     vdW  Elec       q    Type
REMARK                         _______ _______ _______ _____ _____    ______ ____
ROOT
ATOM      1  C   UNL     1      19.208   8.854  39.972  0.00  0.00    +0.000 A 
ATOM      2  N   UNL     1      19.141   9.109  38.654  0.00  0.00    +0.000 NA
ATOM      3  N   UNL     1      17.950   9.570  38.310  0.00  0.00    +0.000 N 
ATOM      4  C   UNL     1      17.199   9.626  39.423  0.00  0.00    +0.000 A 
ATOM      5  C   UNL     1      17.970   9.182  40.472  0.00  0.00    +0.000 A 
ATOM      6  C   UNL     1      17.192   9.223  41.727  0.00  0.00    +0.000 C 
ATOM      7  C   UNL     1      15.745   9.282  41.234  0.00  0.00    +0.000 C 
ATOM      8  N   UNL     1      15.910   9.961  39.978  0.00  0.00    +0.000 NA
ENDROOT
BRANCH   3   9
ATOM      9  C   UNL     1      17.512   9.945  37.009  0.00  0.00    +0.000 A 
ATOM     10  C   UNL     1      16.731  11.076  36.805  0.00  0.00    +0.000 A 
ATOM     11  C   UNL     1      16.303  11.446  35.548  0.00  0.00    +0.000 A 
ATOM     12  C   UNL     1      16.630  10.714  34.429  0.00  0.00    +0.000 A 
ATOM     13  C   UNL     1      17.414   9.579  34.621  0.00  0.00    +0.000 A 
ATOM     14  C   UNL     1      17.837   9.215  35.886  0.00  0.00    +0.000 A 
BRANCH  12  15
ATOM     15  N   UNL     1      16.206  11.069  33.118  0.00  0.00    +0.000 N 
ATOM     16  O   UNL     1      16.641  10.442  32.135  0.00  0.00    +0.000 OA
ATOM     17  O   UNL     1      15.326  12.091  32.905  0.00  0.00    +0.000 OA
ENDBRANCH  12  15
ENDBRANCH   3   9
BRANCH   1  18
ATOM     18  C   UNL     1      20.367   8.327  40.755  0.00  0.00    +0.000 C 
BRANCH  18  20
ATOM     19  C   UNL     1      18.913   5.769  40.221  0.00  0.00    +0.000 C 
ATOM     20  S   UNL     1      19.855   6.725  41.444  0.00  0.00    +0.000 S 
ENDBRANCH  18  20
ENDBRANCH   1  18
TORSDOF 4
ENDMDL
MODEL 4
REMARK VINA RESULT:      -5.7     18.123     19.425
REMARK  Name = 
REMARK  4 active torsions:
REMARK  status: ('A' for Active; 'I' for Inactive)
REMARK    1  A    between atoms: S_2  and  C_3
REMARK    2  A    between atoms: C_3  and  C_4
REMARK    3  A    between atoms: N_6  and  C_7
REMARK    4  A    between atoms: C_10  and  N_11
REMARK                            x       y       z     vdW  Elec       q    Type
REMARK                         _______ _______ _______ _____ _____    ______ ____
ROOT
ATOM      1  C   UNL     1      30.557  22.782  29.633  0.00  0.00    +0.000 A 
ATOM      2  N   UNL     1      30.675  22.981  28.309  0.00  0.00    +0.000 NA
ATOM      3  N   UNL     1      29.497  22.955  27.709  0.00  0.00    +0.000 N 
ATOM      4  C   UNL     1      28.565  22.734  28.652  0.00  0.00    +0.000 A 
ATOM      5  C   UNL     1      29.210  22.624  29.862  0.00  0.00    +0.000 A 
ATOM      6  C   UNL     1      28.230  22.380  30.939  0.00  0.00    +0.000 C 
ATOM      7  C   UNL     1      26.998  21.883  30.179  0.00  0.00    +0.000 C 
ATOM      8  N   UNL     1      27.158  22.562  28.923  0.00  0.00    +0.000 NA
ENDROOT
BRANCH   3   9
ATOM      9  C   UNL     1      29.231  23.125  26.321  0.00  0.00    +0.000 A 
ATOM     10  C   UNL     1      30.098  22.638  25.351  0.00  0.00    +0.000 A 
ATOM     11  C   UNL     1      29.848  22.798  24.006  0.00  0.00    +0.000 A 
ATOM     12  C   UNL     1      28.724  23.451  23.553  0.00  0.00    +0.000 A 
ATOM     13  C   UNL     1      27.846  23.944  24.516  0.00  0.00    +0.000 A 
ATOM     14  C   UNL     1      28.107  23.778  25.864  0.00  0.00    +0.000 A 
BRANCH  12  15
ATOM     15  N   UNL     1      28.435  23.634  22.172  0.00  0.00    +0.000 N 
ATOM     16  O   UNL     1      29.341  23.971  21.389  0.00  0.00    +0.000 OA
ATOM     17  O   UNL     1      27.177  23.449  21.676  0.00  0.00    +0.000 OA
ENDBRANCH  12  15
ENDBRANCH   3   9
BRANCH   1  18
ATOM     18  C   UNL     1      31.639  22.739  30.664  0.00  0.00    +0.000 C 
BRANCH  18  20
ATOM     19  C   UNL     1      33.893  20.952  31.480  0.00  0.00    +0.000 C 
ATOM     20  S   UNL     1      32.860  21.517  30.098  0.00  0.00    +0.000 S 
ENDBRANCH  18  20
ENDBRANCH   1  18
TORSDOF 4
ENDMDL
MODEL 5
REMARK VINA RESULT:      -5.6      4.306      6.498
REMARK  Name = 
REMARK  4 active torsions:
REMARK  status: ('A' for Active; 'I' for Inactive)
REMARK    1  A    between atoms: S_2  and  C_3
REMARK    2  A    between atoms: C_3  and  C_4
REMARK    3  A    between atoms: N_6  and  C_7
REMARK    4  A    between atoms: C_10  and  N_11
REMARK                            x       y       z     vdW  Elec       q    Type
REMARK                         _______ _______ _______ _____ _____    ______ ____
ROOT
ATOM      1  C   UNL     1      17.009   9.932  39.453  0.00  0.00    +0.000 A 
ATOM      2  N   UNL     1      18.351   9.883  39.389  0.00  0.00    +0.000 NA
ATOM      3  N   UNL     1      18.804  10.466  38.291  0.00  0.00    +0.000 N 
ATOM      4  C   UNL     1      17.741  10.917  37.602  0.00  0.00    +0.000 A 
ATOM      5  C   UNL     1      16.610  10.592  38.315  0.00  0.00    +0.000 A 
ATOM      6  C   UNL     1      15.407  11.065  37.601  0.00  0.00    +0.000 C 
ATOM      7  C   UNL     1      15.914  11.277  36.173  0.00  0.00    +0.000 C 
ATOM      8  N   UNL     1      17.292  11.605  36.416  0.00  0.00    +0.000 NA
ENDROOT
BRANCH   3   9
ATOM      9  C   UNL     1      20.160  10.606  37.885  0.00  0.00    +0.000 A 
ATOM     10  C   UNL     1      20.714   9.786  36.909  0.00  0.00    +0.000 A 
ATOM     11  C   UNL     1      22.026   9.916  36.510  0.00  0.00    +0.000 A 
ATOM     12  C   UNL     1      22.858  10.866  37.059  0.00  0.00    +0.000 A 
ATOM     13  C   UNL     1      22.314  11.695  38.037  0.00  0.00    +0.000 A 
ATOM     14  C   UNL     1      20.996  11.557  38.431  0.00  0.00    +0.000 A 
BRANCH  12  15
ATOM     15  N   UNL     1      24.216  11.027  36.669  0.00  0.00    +0.000 N 
ATOM     16  O   UNL     1      24.884  11.972  37.126  0.00  0.00    +0.000 OA
ATOM     17  O   UNL     1      24.815  10.164  35.798  0.00  0.00    +0.000 OA
ENDBRANCH  12  15
ENDBRANCH   3   9
BRANCH   1  18
ATOM     18  C   UNL     1      16.114   9.394  40.522  0.00  0.00    +0.000 C 
BRANCH  18  20
ATOM     19  C   UNL     1      16.095   7.403  42.754  0.00  0.00    +0.000 C 
ATOM     20  S   UNL     1      16.980   7.987  41.280  0.00  0.00    +0.000 S 
ENDBRANCH  18  20
ENDBRANCH   1  18
TORSDOF 4
ENDMDL
MODEL 6
REMARK VINA RESULT:      -5.3     19.944     21.772
REMARK  Name = 
REMARK  4 active torsions:
REMARK  status: ('A' for Active; 'I' for Inactive)
REMARK    1  A    between atoms: S_2  and  C_3
REMARK    2  A    between atoms: C_3  and  C_4
REMARK    3  A    between atoms: N_6  and  C_7
REMARK    4  A    between atoms: C_10  and  N_11
REMARK                            x       y       z     vdW  Elec       q    Type
REMARK                         _______ _______ _______ _____ _____    ______ ____
ROOT
ATOM      1  C   UNL     1      28.866  23.750  23.026  0.00  0.00    +0.000 A 
ATOM      2  N   UNL     1      29.938  23.707  23.835  0.00  0.00    +0.000 NA
ATOM      3  N   UNL     1      29.607  23.327  25.057  0.00  0.00    +0.000 N 
ATOM      4  C   UNL     1      28.280  23.109  25.070  0.00  0.00    +0.000 A 
ATOM      5  C   UNL     1      27.801  23.369  23.807  0.00  0.00    +0.000 A 
ATOM      6  C   UNL     1      26.342  23.146  23.764  0.00  0.00    +0.000 C 
ATOM      7  C   UNL     1      25.941  23.190  25.240  0.00  0.00    +0.000 C 
ATOM      8  N   UNL     1      27.144  22.715  25.866  0.00  0.00    +0.000 NA
ENDROOT
BRANCH   3   9
ATOM      9  C   UNL     1      30.472  23.168  26.176  0.00  0.00    +0.000 A 
ATOM     10  C   UNL     1      30.388  22.057  27.007  0.00  0.00    +0.000 A 
ATOM     11  C   UNL     1      31.222  21.895  28.091  0.00  0.00    +0.000 A 
ATOM     12  C   UNL     1      32.184  22.828  28.408  0.00  0.00    +0.000 A 
ATOM     13  C   UNL     1      32.280  23.946  27.582  0.00  0.00    +0.000 A 
ATOM     14  C   UNL     1      31.437  24.099  26.496  0.00  0.00    +0.000 A 
BRANCH  12  15
ATOM     15  N   UNL     1      33.061  22.692  29.519  0.00  0.00    +0.000 N 
ATOM     16  O   UNL     1      34.096  22.010  29.412  0.00  0.00    +0.000 OA
ATOM     17  O   UNL     1      32.796  23.294  30.715  0.00  0.00    +0.000 OA
ENDBRANCH  12  15
ENDBRANCH   3   9
BRANCH   1  18
ATOM     18  C   UNL     1      28.811  24.128  21.580  0.00  0.00    +0.000 C 
BRANCH  18  20
ATOM     19  C   UNL     1      29.499  26.830  20.500  0.00  0.00    +0.000 C 
ATOM     20  S   UNL     1      28.327  25.878  21.508  0.00  0.00    +0.000 S 
ENDBRANCH  18  20
ENDBRANCH   1  18
TORSDOF 4
ENDMDL
MODEL 7
REMARK VINA RESULT:      -5.2     25.329     27.039
REMARK  Name = 
REMARK  4 active torsions:
REMARK  status: ('A' for Active; 'I' for Inactive)
REMARK    1  A    between atoms: S_2  and  C_3
REMARK    2  A    between atoms: C_3  and  C_4
REMARK    3  A    between atoms: N_6  and  C_7
REMARK    4  A    between atoms: C_10  and  N_11
REMARK                            x       y       z     vdW  Elec       q    Type
REMARK                         _______ _______ _______ _____ _____    ______ ____
ROOT
ATOM      1  C   UNL     1      -1.143  -3.243  23.107  0.00  0.00    +0.000 A 
ATOM      2  N   UNL     1      -0.141  -4.126  23.257  0.00  0.00    +0.000 NA
ATOM      3  N   UNL     1       0.871  -3.852  22.450  0.00  0.00    +0.000 N 
ATOM      4  C   UNL     1       0.540  -2.758  21.741  0.00  0.00    +0.000 A 
ATOM      5  C   UNL     1      -0.716  -2.364  22.140  0.00  0.00    +0.000 A 
ATOM      6  C   UNL     1      -1.132  -1.162  21.390  0.00  0.00    +0.000 C 
ATOM      7  C   UNL     1      -0.198  -1.170  20.178  0.00  0.00    +0.000 C 
ATOM      8  N   UNL     1       0.959  -1.821  20.727  0.00  0.00    +0.000 NA
ENDROOT
BRANCH   3   9
ATOM      9  C   UNL     1       2.097  -4.564  22.329  0.00  0.00    +0.000 A 
ATOM     10  C   UNL     1       3.122  -4.404  23.253  0.00  0.00    +0.000 A 
ATOM     11  C   UNL     1       4.312  -5.090  23.144  0.00  0.00    +0.000 A 
ATOM     12  C   UNL     1       4.546  -5.970  22.112  0.00  0.00    +0.000 A 
ATOM     13  C   UNL     1       3.525  -6.140  21.180  0.00  0.00    +0.000 A 
ATOM     14  C   UNL     1       2.335  -5.446  21.298  0.00  0.00    +0.000 A 
BRANCH  12  15
ATOM     15  N   UNL     1       5.762  -6.694  21.970  0.00  0.00    +0.000 N 
ATOM     16  O   UNL     1       6.020  -7.632  22.747  0.00  0.00    +0.000 OA
ATOM     17  O   UNL     1       6.666  -6.387  20.995  0.00  0.00    +0.000 OA
ENDBRANCH  12  15
ENDBRANCH   3   9
BRANCH   1  18
ATOM     18  C   UNL     1      -2.453  -3.199  23.826  0.00  0.00    +0.000 C 
BRANCH  18  20
ATOM     19  C   UNL     1      -4.482  -2.836  21.660  0.00  0.00    +0.000 C 
ATOM     20  S   UNL     1      -3.669  -4.029  22.760  0.00  0.00    +0.000 S 
ENDBRANCH  18  20
ENDBRANCH   1  18
TORSDOF 4
ENDMDL
MODEL 8
REMARK VINA RESULT:      -5.2     18.809     20.552
REMARK  Name = 
REMARK  4 active torsions:
REMARK  status: ('A' for Active; 'I' for Inactive)
REMARK    1  A    between atoms: S_2  and  C_3
REMARK    2  A    between atoms: C_3  and  C_4
REMARK    3  A    between atoms: N_6  and  C_7
REMARK    4  A    between atoms: C_10  and  N_11
REMARK                            x       y       z     vdW  Elec       q    Type
REMARK                         _______ _______ _______ _____ _____    ______ ____
ROOT
ATOM      1  C   UNL     1      32.518  21.982  29.364  0.00  0.00    +0.000 A 
ATOM      2  N   UNL     1      31.531  21.767  28.477  0.00  0.00    +0.000 NA
ATOM      3  N   UNL     1      31.495  22.714  27.554  0.00  0.00    +0.000 N 
ATOM      4  C   UNL     1      32.482  23.586  27.829  0.00  0.00    +0.000 A 
ATOM      5  C   UNL     1      33.131  23.143  28.957  0.00  0.00    +0.000 A 
ATOM      6  C   UNL     1      34.229  24.067  29.305  0.00  0.00    +0.000 C 
ATOM      7  C   UNL     1      33.858  25.345  28.550  0.00  0.00    +0.000 C 
ATOM      8  N   UNL     1      33.145  24.802  27.427  0.00  0.00    +0.000 NA
ENDROOT
BRANCH   3   9
ATOM      9  C   UNL     1      30.592  22.820  26.460  0.00  0.00    +0.000 A 
ATOM     10  C   UNL     1      31.045  23.010  25.161  0.00  0.00    +0.000 A 
ATOM     11  C   UNL     1      30.177  23.113  24.096  0.00  0.00    +0.000 A 
ATOM     12  C   UNL     1      28.812  23.032  24.266  0.00  0.00    +0.000 A 
ATOM     13  C   UNL     1      28.346  22.841  25.564  0.00  0.00    +0.000 A 
ATOM     14  C   UNL     1      29.226  22.739  26.626  0.00  0.00    +0.000 A 
BRANCH  12  15
ATOM     15  N   UNL     1      27.889  23.134  23.189  0.00  0.00    +0.000 N 
ATOM     16  O   UNL     1      26.667  23.058  23.411  0.00  0.00    +0.000 OA
ATOM     17  O   UNL     1      28.310  23.313  21.903  0.00  0.00    +0.000 OA
ENDBRANCH  12  15
ENDBRANCH   3   9
BRANCH   1  18
ATOM     18  C   UNL     1      32.893  21.153  30.550  0.00  0.00    +0.000 C 
BRANCH  18  20
ATOM     19  C   UNL     1      30.541  21.698  32.315  0.00  0.00    +0.000 C 
ATOM     20  S   UNL     1      32.301  22.038  32.023  0.00  0.00    +0.000 S 
ENDBRANCH  18  20
ENDBRANCH   1  18
TORSDOF 4
ENDMDL
MODEL 9
REMARK VINA RESULT:      -5.1     11.060     11.674
REMARK  Name = 
REMARK  4 active torsions:
REMARK  status: ('A' for Active; 'I' for Inactive)
REMARK    1  A    between atoms: S_2  and  C_3
REMARK    2  A    between atoms: C_3  and  C_4
REMARK    3  A    between atoms: N_6  and  C_7
REMARK    4  A    between atoms: C_10  and  N_11
REMARK                            x       y       z     vdW  Elec       q    Type
REMARK                         _______ _______ _______ _____ _____    ______ ____
ROOT
ATOM      1  C   UNL     1      21.953  20.487  38.103  0.00  0.00    +0.000 A 
ATOM      2  N   UNL     1      20.751  20.371  37.515  0.00  0.00    +0.000 NA
ATOM      3  N   UNL     1      20.430  21.467  36.848  0.00  0.00    +0.000 N 
ATOM      4  C   UNL     1      21.443  22.340  36.991  0.00  0.00    +0.000 A 
ATOM      5  C   UNL     1      22.404  21.743  37.773  0.00  0.00    +0.000 A 
ATOM      6  C   UNL     1      23.544  22.662  37.964  0.00  0.00    +0.000 C 
ATOM      7  C   UNL     1      22.950  24.028  37.615  0.00  0.00    +0.000 C 
ATOM      8  N   UNL     1      21.941  23.653  36.662  0.00  0.00    +0.000 NA
ENDROOT
BRANCH   3   9
ATOM      9  C   UNL     1      19.241  21.709  36.105  0.00  0.00    +0.000 A 
ATOM     10  C   UNL     1      19.000  21.073  34.893  0.00  0.00    +0.000 A 
ATOM     11  C   UNL     1      17.851  21.302  34.168  0.00  0.00    +0.000 A 
ATOM     12  C   UNL     1      16.880  22.173  34.609  0.00  0.00    +0.000 A 
ATOM     13  C   UNL     1      17.109  22.815  35.824  0.00  0.00    +0.000 A 
ATOM     14  C   UNL     1      18.266  22.580  36.543  0.00  0.00    +0.000 A 
BRANCH  12  15
ATOM     15  N   UNL     1      15.683  22.431  33.886  0.00  0.00    +0.000 N 
ATOM     16  O   UNL     1      15.213  21.559  33.133  0.00  0.00    +0.000 OA
ATOM     17  O   UNL     1      15.027  23.623  33.995  0.00  0.00    +0.000 OA
ENDBRANCH  12  15
ENDBRANCH   3   9
BRANCH   1  18
ATOM     18  C   UNL     1      22.675  19.482  38.943  0.00  0.00    +0.000 C 
BRANCH  18  20
ATOM     19  C   UNL     1      21.244  16.883  38.563  0.00  0.00    +0.000 C 
ATOM     20  S   UNL     1      22.643  17.910  38.030  0.00  0.00    +0.000 S 
ENDBRANCH  18  20
ENDBRANCH   1  18
TORSDOF 4
ENDMDL
MODEL 10
REMARK VINA RESULT:      -5.1     18.374     20.591
REMARK  Name = 
REMARK  4 active torsions:
REMARK  status: ('A' for Active; 'I' for Inactive)
REMARK    1  A    between atoms: S_2  and  C_3
REMARK    2  A    between atoms: C_3  and  C_4
REMARK    3  A    between atoms: N_6  and  C_7
REMARK    4  A    between atoms: C_10  and  N_11
REMARK                            x       y       z     vdW  Elec       q    Type
REMARK                         _______ _______ _______ _____ _____    ______ ____
ROOT
ATOM      1  C   UNL     1      33.563  -4.655  33.655  0.00  0.00    +0.000 A 
ATOM      2  N   UNL     1      33.488  -3.409  33.158  0.00  0.00    +0.000 NA
ATOM      3  N   UNL     1      33.668  -2.499  34.101  0.00  0.00    +0.000 N 
ATOM      4  C   UNL     1      33.869  -3.150  35.260  0.00  0.00    +0.000 A 
ATOM      5  C   UNL     1      33.807  -4.500  34.999  0.00  0.00    +0.000 A 
ATOM      6  C   UNL     1      34.022  -5.266  36.243  0.00  0.00    +0.000 C 
ATOM      7  C   UNL     1      33.742  -4.235  37.338  0.00  0.00    +0.000 C 
ATOM      8  N   UNL     1      34.124  -3.019  36.674  0.00  0.00    +0.000 NA
ENDROOT
BRANCH   3   9
ATOM      9  C   UNL     1      33.657  -1.084  33.950  0.00  0.00    +0.000 A 
ATOM     10  C   UNL     1      34.147  -0.474  32.802  0.00  0.00    +0.000 A 
ATOM     11  C   UNL     1      34.139   0.895  32.647  0.00  0.00    +0.000 A 
ATOM     12  C   UNL     1      33.645   1.730  33.625  0.00  0.00    +0.000 A 
ATOM     13  C   UNL     1      33.150   1.129  34.780  0.00  0.00    +0.000 A 
ATOM     14  C   UNL     1      33.163  -0.246  34.925  0.00  0.00    +0.000 A 
BRANCH  12  15
ATOM     15  N   UNL     1      33.622   3.146  33.497  0.00  0.00    +0.000 N 
ATOM     16  O   UNL     1      33.391   3.665  32.390  0.00  0.00    +0.000 OA
ATOM     17  O   UNL     1      33.849   3.963  34.567  0.00  0.00    +0.000 OA
ENDBRANCH  12  15
ENDBRANCH   3   9
BRANCH   1  18
ATOM     18  C   UNL     1      33.417  -5.953  32.928  0.00  0.00    +0.000 C 
BRANCH  18  20
ATOM     19  C   UNL     1      33.385  -7.073  30.155  0.00  0.00    +0.000 C 
ATOM     20  S   UNL     1      33.328  -5.559  31.155  0.00  0.00    +0.000 S 
ENDBRANCH  18  20
ENDBRANCH   1  18
TORSDOF 4
ENDMDL
