MODEL 1
REMARK VINA RESULT:      -8.5      0.000      0.000
REMARK  Name = 
REMARK  6 active torsions:
REMARK  status: ('A' for Active; 'I' for Inactive)
REMARK    1  A    between atoms: O_2  and  C_3
REMARK    2  A    between atoms: C_6  and  C_7
REMARK    3  A    between atoms: C_9  and  C_10
REMARK    4  A    between atoms: C_13  and  O_14
REMARK    5  A    between atoms: C_21  and  C_22
REMARK    6  A    between atoms: C_22  and  C_24
REMARK                            x       y       z     vdW  Elec       q    Type
REMARK                         _______ _______ _______ _____ _____    ______ ____
ROOT
ATOM      1  C   UNL     1      36.495  -2.465  15.071  0.00  0.00    +0.000 A 
ATOM      2  C   UNL     1      37.765  -2.370  14.572  0.00  0.00    +0.000 A 
ATOM      3  C   UNL     1      38.457  -1.182  14.389  0.00  0.00    +0.000 A 
ATOM      4  C   UNL     1      37.822   0.026  14.738  0.00  0.00    +0.000 A 
ATOM      5  C   UNL     1      38.313   1.274  14.629  0.00  0.00    +0.000 A 
ATOM      6  N   UNL     1      39.633   1.621  14.102  0.00  0.00    +0.000 NA
ATOM      7  C   UNL     1      37.506   2.307  15.024  0.00  0.00    +0.000 A 
ATOM      8  S   UNL     1      36.092   1.523  15.534  0.00  0.00    +0.000 S 
ATOM      9  C   UNL     1      36.553  -0.103  15.235  0.00  0.00    +0.000 A 
ATOM     10  N   UNL     1      35.911  -1.305  15.396  0.00  0.00    +0.000 NA
ENDROOT
BRANCH   1  14
ATOM     11  C   UNL     1      34.413  -6.164  15.565  0.00  0.00    +0.000 A 
ATOM     12  C   UNL     1      35.628  -5.922  16.164  0.00  0.00    +0.000 A 
ATOM     13  C   UNL     1      36.323  -4.749  16.028  0.00  0.00    +0.000 A 
ATOM     14  C   UNL     1      35.790  -3.746  15.252  0.00  0.00    +0.000 A 
ATOM     15  C   UNL     1      34.575  -3.963  14.642  0.00  0.00    +0.000 A 
ATOM     16  C   UNL     1      33.897  -5.146  14.794  0.00  0.00    +0.000 A 
BRANCH  11  18
ATOM     17  C   UNL     1      33.837  -8.343  14.719  0.00  0.00    +0.000 C 
ATOM     18  O   UNL     1      33.758  -7.354  15.733  0.00  0.00    +0.000 OA
ENDBRANCH  11  18
ENDBRANCH   1  14
BRANCH   3  19
ATOM     19  C   UNL     1      39.826  -1.250  13.883  0.00  0.00    +0.000 A 
ATOM     20  C   UNL     1      40.845  -1.393  14.793  0.00  0.00    +0.000 A 
ATOM     21  C   UNL     1      42.153  -1.462  14.378  0.00  0.00    +0.000 A 
ATOM     22  C   UNL     1      42.464  -1.390  13.038  0.00  0.00    +0.000 A 
ATOM     23  C   UNL     1      41.433  -1.248  12.154  0.00  0.00    +0.000 A 
ATOM     24  C   UNL     1      40.116  -1.176  12.538  0.00  0.00    +0.000 A 
BRANCH  22  25
ATOM     25  O   UNL     1      43.796  -1.460  12.617  0.00  0.00    +0.000 OA
ATOM     26  C   UNL     1      44.879  -1.168  13.446  0.00  0.00    +0.000 C 
ENDBRANCH  22  25
ENDBRANCH   3  19
BRANCH   7  27
ATOM     27  C   UNL     1      37.775   3.757  15.023  0.00  0.00    +0.000 C 
ATOM     28  O   UNL     1      37.403   4.470  14.058  0.00  0.00    +0.000 OA
BRANCH  27  29
ATOM     29  C   UNL     1      38.470   4.396  16.123  0.00  0.00    +0.000 A 
ATOM     30  C   UNL     1      38.003   4.288  17.424  0.00  0.00    +0.000 A 
ATOM     31  C   UNL     1      38.675   4.907  18.464  0.00  0.00    +0.000 A 
ATOM     32  C   UNL     1      39.803   5.621  18.191  0.00  0.00    +0.000 A 
ATOM     33  C   UNL     1      40.534   6.290  19.298  0.00  0.00    +0.000 C 
ATOM     34  C   UNL     1      40.302   5.752  16.910  0.00  0.00    +0.000 A 
ATOM     35  C   UNL     1      39.610   5.121  15.870  0.00  0.00    +0.000 A 
ATOM     36  C   UNL     1      40.087   5.211  14.467  0.00  0.00    +0.000 C 
ENDBRANCH  27  29
ENDBRANCH   7  27
TORSDOF 6
ENDMDL
MODEL 2
REMARK VINA RESULT:      -8.4      3.912      6.322
REMARK  Name = 
REMARK  6 active torsions:
REMARK  status: ('A' for Active; 'I' for Inactive)
REMARK    1  A    between atoms: O_2  and  C_3
REMARK    2  A    between atoms: C_6  and  C_7
REMARK    3  A    between atoms: C_9  and  C_10
REMARK    4  A    between atoms: C_13  and  O_14
REMARK    5  A    between atoms: C_21  and  C_22
REMARK    6  A    between atoms: C_22  and  C_24
REMARK                            x       y       z     vdW  Elec       q    Type
REMARK                         _______ _______ _______ _____ _____    ______ ____
ROOT
ATOM      1  C   UNL     1      36.265   1.818  16.067  0.00  0.00    +0.000 A 
ATOM      2  C   UNL     1      35.981   2.682  15.045  0.00  0.00    +0.000 A 
ATOM      3  C   UNL     1      36.454   3.982  14.953  0.00  0.00    +0.000 A 
ATOM      4  C   UNL     1      37.290   4.467  15.979  0.00  0.00    +0.000 A 
ATOM      5  C   UNL     1      37.839   5.691  16.081  0.00  0.00    +0.000 A 
ATOM      6  N   UNL     1      37.657   6.783  15.125  0.00  0.00    +0.000 NA
ATOM      7  C   UNL     1      38.616   5.944  17.179  0.00  0.00    +0.000 A 
ATOM      8  S   UNL     1      38.564   4.483  18.038  0.00  0.00    +0.000 S 
ATOM      9  C   UNL     1      37.555   3.578  16.986  0.00  0.00    +0.000 A 
ATOM     10  N   UNL     1      37.061   2.299  17.030  0.00  0.00    +0.000 NA
ENDROOT
BRANCH   1  14
ATOM     11  C   UNL     1      34.785  -2.189  16.212  0.00  0.00    +0.000 A 
ATOM     12  C   UNL     1      34.315  -1.204  17.051  0.00  0.00    +0.000 A 
ATOM     13  C   UNL     1      34.766   0.090  17.032  0.00  0.00    +0.000 A 
ATOM     14  C   UNL     1      35.744   0.441  16.131  0.00  0.00    +0.000 A 
ATOM     15  C   UNL     1      36.231  -0.526  15.280  0.00  0.00    +0.000 A 
ATOM     16  C   UNL     1      35.763  -1.815  15.317  0.00  0.00    +0.000 A 
BRANCH  11  18
ATOM     17  C   UNL     1      33.969  -4.143  15.068  0.00  0.00    +0.000 C 
ATOM     18  O   UNL     1      34.301  -3.467  16.271  0.00  0.00    +0.000 OA
ENDBRANCH  11  18
ENDBRANCH   1  14
BRANCH   3  19
ATOM     19  C   UNL     1      36.094   4.767  13.775  0.00  0.00    +0.000 A 
ATOM     20  C   UNL     1      35.017   5.615  13.868  0.00  0.00    +0.000 A 
ATOM     21  C   UNL     1      34.629   6.379  12.793  0.00  0.00    +0.000 A 
ATOM     22  C   UNL     1      35.319   6.308  11.603  0.00  0.00    +0.000 A 
ATOM     23  C   UNL     1      36.386   5.459  11.537  0.00  0.00    +0.000 A 
ATOM     24  C   UNL     1      36.797   4.682  12.593  0.00  0.00    +0.000 A 
BRANCH  22  25
ATOM     25  O   UNL     1      34.923   7.087  10.510  0.00  0.00    +0.000 OA
ATOM     26  C   UNL     1      34.538   8.422  10.619  0.00  0.00    +0.000 C 
ENDBRANCH  22  25
ENDBRANCH   3  19
BRANCH   7  27
ATOM     27  C   UNL     1      39.340   7.175  17.549  0.00  0.00    +0.000 C 
ATOM     28  O   UNL     1      38.851   8.301  17.284  0.00  0.00    +0.000 OA
BRANCH  27  29
ATOM     29  C   UNL     1      40.623   7.122  18.221  0.00  0.00    +0.000 A 
ATOM     30  C   UNL     1      41.799   6.954  17.506  0.00  0.00    +0.000 A 
ATOM     31  C   UNL     1      43.017   6.901  18.162  0.00  0.00    +0.000 A 
ATOM     32  C   UNL     1      43.043   7.019  19.519  0.00  0.00    +0.000 A 
ATOM     33  C   UNL     1      44.344   6.964  20.234  0.00  0.00    +0.000 C 
ATOM     34  C   UNL     1      41.896   7.188  20.268  0.00  0.00    +0.000 A 
ATOM     35  C   UNL     1      40.673   7.238  19.590  0.00  0.00    +0.000 A 
ATOM     36  C   UNL     1      39.396   7.423  20.325  0.00  0.00    +0.000 C 
ENDBRANCH  27  29
ENDBRANCH   7  27
TORSDOF 6
ENDMDL
MODEL 3
REMARK VINA RESULT:      -8.3      4.584      9.651
REMARK  Name = 
REMARK  6 active torsions:
REMARK  status: ('A' for Active; 'I' for Inactive)
REMARK    1  A    between atoms: O_2  and  C_3
REMARK    2  A    between atoms: C_6  and  C_7
REMARK    3  A    between atoms: C_9  and  C_10
REMARK    4  A    between atoms: C_13  and  O_14
REMARK    5  A    between atoms: C_21  and  C_22
REMARK    6  A    between atoms: C_22  and  C_24
REMARK                            x       y       z     vdW  Elec       q    Type
REMARK                         _______ _______ _______ _____ _____    ______ ____
ROOT
ATOM      1  C   UNL     1      39.341   5.947  17.096  0.00  0.00    +0.000 A 
ATOM      2  C   UNL     1      38.782   4.717  16.884  0.00  0.00    +0.000 A 
ATOM      3  C   UNL     1      37.716   4.468  16.033  0.00  0.00    +0.000 A 
ATOM      4  C   UNL     1      37.155   5.549  15.325  0.00  0.00    +0.000 A 
ATOM      5  C   UNL     1      36.119   5.520  14.467  0.00  0.00    +0.000 A 
ATOM      6  N   UNL     1      35.353   4.328  14.105  0.00  0.00    +0.000 NA
ATOM      7  C   UNL     1      35.737   6.706  13.899  0.00  0.00    +0.000 A 
ATOM      8  S   UNL     1      36.819   7.826  14.569  0.00  0.00    +0.000 S 
ATOM      9  C   UNL     1      37.737   6.766  15.559  0.00  0.00    +0.000 A 
ATOM     10  N   UNL     1      38.793   6.959  16.414  0.00  0.00    +0.000 NA
ENDROOT
BRANCH   1  14
ATOM     11  C   UNL     1      42.661   6.610  19.705  0.00  0.00    +0.000 A 
ATOM     12  C   UNL     1      41.395   6.356  20.181  0.00  0.00    +0.000 A 
ATOM     13  C   UNL     1      40.308   6.139  19.375  0.00  0.00    +0.000 A 
ATOM     14  C   UNL     1      40.475   6.174  18.010  0.00  0.00    +0.000 A 
ATOM     15  C   UNL     1      41.732   6.425  17.508  0.00  0.00    +0.000 A 
ATOM     16  C   UNL     1      42.806   6.638  18.336  0.00  0.00    +0.000 A 
BRANCH  11  18
ATOM     17  C   UNL     1      43.517   6.703  21.953  0.00  0.00    +0.000 C 
ATOM     18  O   UNL     1      43.714   6.819  20.553  0.00  0.00    +0.000 OA
ENDBRANCH  11  18
ENDBRANCH   1  14
BRANCH   3  19
ATOM     19  C   UNL     1      37.258   3.089  15.882  0.00  0.00    +0.000 A 
ATOM     20  C   UNL     1      36.263   2.643  16.719  0.00  0.00    +0.000 A 
ATOM     21  C   UNL     1      35.792   1.356  16.626  0.00  0.00    +0.000 A 
ATOM     22  C   UNL     1      36.310   0.489  15.688  0.00  0.00    +0.000 A 
ATOM     23  C   UNL     1      37.297   0.957  14.869  0.00  0.00    +0.000 A 
ATOM     24  C   UNL     1      37.790   2.238  14.938  0.00  0.00    +0.000 A 
BRANCH  22  25
ATOM     25  O   UNL     1      35.829  -0.821  15.594  0.00  0.00    +0.000 OA
ATOM     26  C   UNL     1      36.600  -1.944  15.889  0.00  0.00    +0.000 C 
ENDBRANCH  22  25
ENDBRANCH   3  19
BRANCH   7  27
ATOM     27  C   UNL     1      34.655   6.974  12.932  0.00  0.00    +0.000 C 
ATOM     28  O   UNL     1      33.453   6.884  13.286  0.00  0.00    +0.000 OA
BRANCH  27  29
ATOM     29  C   UNL     1      34.944   7.344  11.561  0.00  0.00    +0.000 A 
ATOM     30  C   UNL     1      35.328   6.393  10.629  0.00  0.00    +0.000 A 
ATOM     31  C   UNL     1      35.605   6.762   9.323  0.00  0.00    +0.000 A 
ATOM     32  C   UNL     1      35.493   8.073   8.968  0.00  0.00    +0.000 A 
ATOM     33  C   UNL     1      35.786   8.481   7.571  0.00  0.00    +0.000 C 
ATOM     34  C   UNL     1      35.113   9.050   9.866  0.00  0.00    +0.000 A 
ATOM     35  C   UNL     1      34.837   8.661  11.181  0.00  0.00    +0.000 A 
ATOM     36  C   UNL     1      34.418   9.654  12.203  0.00  0.00    +0.000 C 
ENDBRANCH  27  29
ENDBRANCH   7  27
TORSDOF 6
ENDMDL
MODEL 4
REMARK VINA RESULT:      -8.2      4.740      7.249
REMARK  Name = 
REMARK  6 active torsions:
REMARK  status: ('A' for Active; 'I' for Inactive)
REMARK    1  A    between atoms: O_2  and  C_3
REMARK    2  A    between atoms: C_6  and  C_7
REMARK    3  A    between atoms: C_9  and  C_10
REMARK    4  A    between atoms: C_13  and  O_14
REMARK    5  A    between atoms: C_21  and  C_22
REMARK    6  A    between atoms: C_22  and  C_24
REMARK                            x       y       z     vdW  Elec       q    Type
REMARK                         _______ _______ _______ _____ _____    ______ ____
ROOT
ATOM      1  C   UNL     1      36.495   3.030  15.706  0.00  0.00    +0.000 A 
ATOM      2  C   UNL     1      37.488   3.650  16.414  0.00  0.00    +0.000 A 
ATOM      3  C   UNL     1      37.887   4.965  16.231  0.00  0.00    +0.000 A 
ATOM      4  C   UNL     1      37.233   5.736  15.250  0.00  0.00    +0.000 A 
ATOM      5  C   UNL     1      37.476   7.016  14.913  0.00  0.00    +0.000 A 
ATOM      6  N   UNL     1      38.502   7.868  15.513  0.00  0.00    +0.000 NA
ATOM      7  C   UNL     1      36.716   7.561  13.914  0.00  0.00    +0.000 A 
ATOM      8  S   UNL     1      35.688   6.288  13.469  0.00  0.00    +0.000 S 
ATOM      9  C   UNL     1      36.244   5.087  14.560  0.00  0.00    +0.000 A 
ATOM     10  N   UNL     1      35.887   3.781  14.780  0.00  0.00    +0.000 NA
ENDROOT
BRANCH   1  14
ATOM     11  C   UNL     1      35.311  -1.019  16.390  0.00  0.00    +0.000 A 
ATOM     12  C   UNL     1      36.215  -0.676  15.410  0.00  0.00    +0.000 A 
ATOM     13  C   UNL     1      36.617   0.611  15.163  0.00  0.00    +0.000 A 
ATOM     14  C   UNL     1      36.097   1.629  15.929  0.00  0.00    +0.000 A 
ATOM     15  C   UNL     1      35.192   1.312  16.916  0.00  0.00    +0.000 A 
ATOM     16  C   UNL     1      34.805   0.015  17.145  0.00  0.00    +0.000 A 
BRANCH  11  18
ATOM     17  C   UNL     1      35.159  -3.279  15.574  0.00  0.00    +0.000 C 
ATOM     18  O   UNL     1      34.942  -2.321  16.597  0.00  0.00    +0.000 OA
ENDBRANCH  11  18
ENDBRANCH   1  14
BRANCH   3  19
ATOM     19  C   UNL     1      38.938   5.496  17.097  0.00  0.00    +0.000 A 
ATOM     20  C   UNL     1      38.605   5.831  18.387  0.00  0.00    +0.000 A 
ATOM     21  C   UNL     1      39.549   6.337  19.247  0.00  0.00    +0.000 A 
ATOM     22  C   UNL     1      40.851   6.513  18.829  0.00  0.00    +0.000 A 
ATOM     23  C   UNL     1      41.156   6.171  17.543  0.00  0.00    +0.000 A 
ATOM     24  C   UNL     1      40.233   5.665  16.659  0.00  0.00    +0.000 A 
BRANCH  22  25
ATOM     25  O   UNL     1      41.811   7.026  19.707  0.00  0.00    +0.000 OA
ATOM     26  C   UNL     1      42.453   6.258  20.677  0.00  0.00    +0.000 C 
ENDBRANCH  22  25
ENDBRANCH   3  19
BRANCH   7  27
ATOM     27  C   UNL     1      36.754   8.922  13.346  0.00  0.00    +0.000 C 
ATOM     28  O   UNL     1      37.602   9.218  12.469  0.00  0.00    +0.000 OA
BRANCH  27  29
ATOM     29  C   UNL     1      35.824   9.946  13.779  0.00  0.00    +0.000 A 
ATOM     30  C   UNL     1      36.024  10.640  14.962  0.00  0.00    +0.000 A 
ATOM     31  C   UNL     1      35.126  11.613  15.366  0.00  0.00    +0.000 A 
ATOM     32  C   UNL     1      34.043  11.879  14.582  0.00  0.00    +0.000 A 
ATOM     33  C   UNL     1      33.071  12.921  15.003  0.00  0.00    +0.000 C 
ATOM     34  C   UNL     1      33.808  11.211  13.397  0.00  0.00    +0.000 A 
ATOM     35  C   UNL     1      34.725  10.230  13.004  0.00  0.00    +0.000 A 
ATOM     36  C   UNL     1      34.543   9.472  11.740  0.00  0.00    +0.000 C 
ENDBRANCH  27  29
ENDBRANCH   7  27
TORSDOF 6
ENDMDL
MODEL 5
REMARK VINA RESULT:      -8.1      4.485      8.572
REMARK  Name = 
REMARK  6 active torsions:
REMARK  status: ('A' for Active; 'I' for Inactive)
REMARK    1  A    between atoms: O_2  and  C_3
REMARK    2  A    between atoms: C_6  and  C_7
REMARK    3  A    between atoms: C_9  and  C_10
REMARK    4  A    between atoms: C_13  and  O_14
REMARK    5  A    between atoms: C_21  and  C_22
REMARK    6  A    between atoms: C_22  and  C_24
REMARK                            x       y       z     vdW  Elec       q    Type
REMARK                         _______ _______ _______ _____ _____    ______ ____
ROOT
ATOM      1  C   UNL     1      35.988   5.959  13.107  0.00  0.00    +0.000 A 
ATOM      2  C   UNL     1      35.846   4.712  13.652  0.00  0.00    +0.000 A 
ATOM      3  C   UNL     1      36.403   4.306  14.854  0.00  0.00    +0.000 A 
ATOM      4  C   UNL     1      37.175   5.231  15.584  0.00  0.00    +0.000 A 
ATOM      5  C   UNL     1      37.805   5.033  16.756  0.00  0.00    +0.000 A 
ATOM      6  N   UNL     1      37.815   3.779  17.510  0.00  0.00    +0.000 NA
ATOM      7  C   UNL     1      38.511   6.082  17.279  0.00  0.00    +0.000 A 
ATOM      8  S   UNL     1      38.285   7.312  16.134  0.00  0.00    +0.000 S 
ATOM      9  C   UNL     1      37.297   6.470  15.013  0.00  0.00    +0.000 A 
ATOM     10  N   UNL     1      36.725   6.822  13.817  0.00  0.00    +0.000 NA
ENDROOT
BRANCH   1  14
ATOM     11  C   UNL     1      34.185   7.132   9.414  0.00  0.00    +0.000 A 
ATOM     12  C   UNL     1      35.361   6.419   9.460  0.00  0.00    +0.000 A 
ATOM     13  C   UNL     1      35.967   6.026  10.626  0.00  0.00    +0.000 A 
ATOM     14  C   UNL     1      35.380   6.356  11.825  0.00  0.00    +0.000 A 
ATOM     15  C   UNL     1      34.201   7.068  11.805  0.00  0.00    +0.000 A 
ATOM     16  C   UNL     1      33.613   7.450  10.626  0.00  0.00    +0.000 A 
BRANCH  11  18
ATOM     17  C   UNL     1      33.295   6.502   7.267  0.00  0.00    +0.000 C 
ATOM     18  O   UNL     1      33.619   7.500   8.223  0.00  0.00    +0.000 OA
ENDBRANCH  11  18
ENDBRANCH   1  14
BRANCH   3  19
ATOM     19  C   UNL     1      36.124   2.951  15.323  0.00  0.00    +0.000 A 
ATOM     20  C   UNL     1      36.945   1.936  14.893  0.00  0.00    +0.000 A 
ATOM     21  C   UNL     1      36.733   0.641  15.299  0.00  0.00    +0.000 A 
ATOM     22  C   UNL     1      35.691   0.338  16.148  0.00  0.00    +0.000 A 
ATOM     23  C   UNL     1      34.890   1.363  16.561  0.00  0.00    +0.000 A 
ATOM     24  C   UNL     1      35.077   2.668  16.172  0.00  0.00    +0.000 A 
BRANCH  22  25
ATOM     25  O   UNL     1      35.477  -0.981  16.560  0.00  0.00    +0.000 OA
ATOM     26  C   UNL     1      34.375  -1.379  17.317  0.00  0.00    +0.000 C 
ENDBRANCH  22  25
ENDBRANCH   3  19
BRANCH   7  27
ATOM     27  C   UNL     1      39.285   6.157  18.533  0.00  0.00    +0.000 C 
ATOM     28  O   UNL     1      39.769   5.116  19.041  0.00  0.00    +0.000 OA
BRANCH  27  29
ATOM     29  C   UNL     1      39.506   7.420  19.208  0.00  0.00    +0.000 A 
ATOM     30  C   UNL     1      38.548   7.957  20.055  0.00  0.00    +0.000 A 
ATOM     31  C   UNL     1      38.771   9.166  20.690  0.00  0.00    +0.000 A 
ATOM     32  C   UNL     1      39.947   9.821  20.472  0.00  0.00    +0.000 A 
ATOM     33  C   UNL     1      40.198  11.119  21.148  0.00  0.00    +0.000 C 
ATOM     34  C   UNL     1      40.926   9.321  19.638  0.00  0.00    +0.000 A 
ATOM     35  C   UNL     1      40.684   8.098  19.003  0.00  0.00    +0.000 A 
ATOM     36  C   UNL     1      41.692   7.493  18.095  0.00  0.00    +0.000 C 
ENDBRANCH  27  29
ENDBRANCH   7  27
TORSDOF 6
ENDMDL
MODEL 6
REMARK VINA RESULT:      -8.0      3.935      6.917
REMARK  Name = 
REMARK  6 active torsions:
REMARK  status: ('A' for Active; 'I' for Inactive)
REMARK    1  A    between atoms: O_2  and  C_3
REMARK    2  A    between atoms: C_6  and  C_7
REMARK    3  A    between atoms: C_9  and  C_10
REMARK    4  A    between atoms: C_13  and  O_14
REMARK    5  A    between atoms: C_21  and  C_22
REMARK    6  A    between atoms: C_22  and  C_24
REMARK                            x       y       z     vdW  Elec       q    Type
REMARK                         _______ _______ _______ _____ _____    ______ ____
ROOT
ATOM      1  C   UNL     1      36.459   2.447  15.917  0.00  0.00    +0.000 A 
ATOM      2  C   UNL     1      35.944   3.297  14.977  0.00  0.00    +0.000 A 
ATOM      3  C   UNL     1      36.333   4.616  14.804  0.00  0.00    +0.000 A 
ATOM      4  C   UNL     1      37.332   5.138  15.650  0.00  0.00    +0.000 A 
ATOM      5  C   UNL     1      37.838   6.385  15.652  0.00  0.00    +0.000 A 
ATOM      6  N   UNL     1      37.426   7.467  14.758  0.00  0.00    +0.000 NA
ATOM      7  C   UNL     1      38.803   6.672  16.578  0.00  0.00    +0.000 A 
ATOM      8  S   UNL     1      38.983   5.211  17.420  0.00  0.00    +0.000 S 
ATOM      9  C   UNL     1      37.828   4.262  16.578  0.00  0.00    +0.000 A 
ATOM     10  N   UNL     1      37.407   2.963  16.708  0.00  0.00    +0.000 NA
ENDROOT
BRANCH   1  14
ATOM     11  C   UNL     1      35.160  -1.595  16.406  0.00  0.00    +0.000 A 
ATOM     12  C   UNL     1      35.968  -1.207  15.362  0.00  0.00    +0.000 A 
ATOM     13  C   UNL     1      36.403   0.079  15.174  0.00  0.00    +0.000 A 
ATOM     14  C   UNL     1      36.020   1.049  16.071  0.00  0.00    +0.000 A 
ATOM     15  C   UNL     1      35.212   0.686  17.125  0.00  0.00    +0.000 A 
ATOM     16  C   UNL     1      34.789  -0.608  17.293  0.00  0.00    +0.000 A 
BRANCH  11  18
ATOM     17  C   UNL     1      34.850  -3.782  15.447  0.00  0.00    +0.000 C 
ATOM     18  O   UNL     1      34.752  -2.894  16.550  0.00  0.00    +0.000 OA
ENDBRANCH  11  18
ENDBRANCH   1  14
BRANCH   3  19
ATOM     19  C   UNL     1      35.716   5.384  13.725  0.00  0.00    +0.000 A 
ATOM     20  C   UNL     1      34.591   6.117  14.016  0.00  0.00    +0.000 A 
ATOM     21  C   UNL     1      33.965   6.858  13.042  0.00  0.00    +0.000 A 
ATOM     22  C   UNL     1      34.460   6.881  11.756  0.00  0.00    +0.000 A 
ATOM     23  C   UNL     1      35.580   6.145  11.495  0.00  0.00    +0.000 A 
ATOM     24  C   UNL     1      36.227   5.393  12.446  0.00  0.00    +0.000 A 
BRANCH  22  25
ATOM     25  O   UNL     1      33.822   7.637  10.768  0.00  0.00    +0.000 OA
ATOM     26  C   UNL     1      34.503   8.468   9.879  0.00  0.00    +0.000 C 
ENDBRANCH  22  25
ENDBRANCH   3  19
BRANCH   7  27
ATOM     27  C   UNL     1      39.532   7.934  16.809  0.00  0.00    +0.000 C 
ATOM     28  O   UNL     1      40.396   8.327  15.985  0.00  0.00    +0.000 OA
BRANCH  27  29
ATOM     29  C   UNL     1      39.278   8.748  17.981  0.00  0.00    +0.000 A 
ATOM     30  C   UNL     1      38.185   9.599  18.038  0.00  0.00    +0.000 A 
ATOM     31  C   UNL     1      37.957  10.374  19.162  0.00  0.00    +0.000 A 
ATOM     32  C   UNL     1      38.822  10.287  20.212  0.00  0.00    +0.000 A 
ATOM     33  C   UNL     1      38.588  11.114  21.424  0.00  0.00    +0.000 C 
ATOM     34  C   UNL     1      39.921   9.453  20.195  0.00  0.00    +0.000 A 
ATOM     35  C   UNL     1      40.138   8.677  19.051  0.00  0.00    +0.000 A 
ATOM     36  C   UNL     1      41.295   7.751  18.960  0.00  0.00    +0.000 C 
ENDBRANCH  27  29
ENDBRANCH   7  27
TORSDOF 6
ENDMDL
MODEL 7
REMARK VINA RESULT:      -8.0      5.770     10.484
REMARK  Name = 
REMARK  6 active torsions:
REMARK  status: ('A' for Active; 'I' for Inactive)
REMARK    1  A    between atoms: O_2  and  C_3
REMARK    2  A    between atoms: C_6  and  C_7
REMARK    3  A    between atoms: C_9  and  C_10
REMARK    4  A    between atoms: C_13  and  O_14
REMARK    5  A    between atoms: C_21  and  C_22
REMARK    6  A    between atoms: C_22  and  C_24
REMARK                            x       y       z     vdW  Elec       q    Type
REMARK                         _______ _______ _______ _____ _____    ______ ____
ROOT
ATOM      1  C   UNL     1      35.943   5.619   9.757  0.00  0.00    +0.000 A 
ATOM      2  C   UNL     1      35.523   6.367  10.823  0.00  0.00    +0.000 A 
ATOM      3  C   UNL     1      35.704   6.021  12.153  0.00  0.00    +0.000 A 
ATOM      4  C   UNL     1      36.368   4.814  12.449  0.00  0.00    +0.000 A 
ATOM      5  C   UNL     1      36.632   4.297  13.663  0.00  0.00    +0.000 A 
ATOM      6  N   UNL     1      36.259   4.904  14.940  0.00  0.00    +0.000 NA
ATOM      7  C   UNL     1      37.285   3.095  13.709  0.00  0.00    +0.000 A 
ATOM      8  S   UNL     1      37.516   2.714  12.073  0.00  0.00    +0.000 S 
ATOM      9  C   UNL     1      36.776   4.089  11.361  0.00  0.00    +0.000 A 
ATOM     10  N   UNL     1      36.572   4.477  10.061  0.00  0.00    +0.000 NA
ENDROOT
BRANCH   1  14
ATOM     11  C   UNL     1      35.310   6.736   5.681  0.00  0.00    +0.000 A 
ATOM     12  C   UNL     1      35.950   7.563   6.575  0.00  0.00    +0.000 A 
ATOM     13  C   UNL     1      36.170   7.238   7.889  0.00  0.00    +0.000 A 
ATOM     14  C   UNL     1      35.733   6.020   8.355  0.00  0.00    +0.000 A 
ATOM     15  C   UNL     1      35.090   5.174   7.479  0.00  0.00    +0.000 A 
ATOM     16  C   UNL     1      34.882   5.521   6.168  0.00  0.00    +0.000 A 
BRANCH  11  18
ATOM     17  C   UNL     1      34.200   6.379   3.574  0.00  0.00    +0.000 C 
ATOM     18  O   UNL     1      35.115   7.107   4.378  0.00  0.00    +0.000 OA
ENDBRANCH  11  18
ENDBRANCH   1  14
BRANCH   3  19
ATOM     19  C   UNL     1      35.234   6.948  13.180  0.00  0.00    +0.000 A 
ATOM     20  C   UNL     1      36.101   7.918  13.620  0.00  0.00    +0.000 A 
ATOM     21  C   UNL     1      35.717   8.818  14.585  0.00  0.00    +0.000 A 
ATOM     22  C   UNL     1      34.450   8.763  15.126  0.00  0.00    +0.000 A 
ATOM     23  C   UNL     1      33.608   7.790  14.670  0.00  0.00    +0.000 A 
ATOM     24  C   UNL     1      33.964   6.875  13.708  0.00  0.00    +0.000 A 
BRANCH  22  25
ATOM     25  O   UNL     1      34.061   9.680  16.107  0.00  0.00    +0.000 OA
ATOM     26  C   UNL     1      33.189   9.364  17.149  0.00  0.00    +0.000 C 
ENDBRANCH  22  25
ENDBRANCH   3  19
BRANCH   7  27
ATOM     27  C   UNL     1      37.706   2.303  14.880  0.00  0.00    +0.000 C 
ATOM     28  O   UNL     1      38.865   2.430  15.347  0.00  0.00    +0.000 OA
BRANCH  27  29
ATOM     29  C   UNL     1      36.805   1.365  15.519  0.00  0.00    +0.000 A 
ATOM     30  C   UNL     1      35.896   1.785  16.478  0.00  0.00    +0.000 A 
ATOM     31  C   UNL     1      35.044   0.877  17.083  0.00  0.00    +0.000 A 
ATOM     32  C   UNL     1      35.111  -0.436  16.721  0.00  0.00    +0.000 A 
ATOM     33  C   UNL     1      34.203  -1.420  17.362  0.00  0.00    +0.000 C 
ATOM     34  C   UNL     1      36.002  -0.894  15.771  0.00  0.00    +0.000 A 
ATOM     35  C   UNL     1      36.856   0.036  15.170  0.00  0.00    +0.000 A 
ATOM     36  C   UNL     1      37.837  -0.380  14.136  0.00  0.00    +0.000 C 
ENDBRANCH  27  29
ENDBRANCH   7  27
TORSDOF 6
ENDMDL
MODEL 8
REMARK VINA RESULT:      -7.9      4.348      8.643
REMARK  Name = 
REMARK  6 active torsions:
REMARK  status: ('A' for Active; 'I' for Inactive)
REMARK    1  A    between atoms: O_2  and  C_3
REMARK    2  A    between atoms: C_6  and  C_7
REMARK    3  A    between atoms: C_9  and  C_10
REMARK    4  A    between atoms: C_13  and  O_14
REMARK    5  A    between atoms: C_21  and  C_22
REMARK    6  A    between atoms: C_22  and  C_24
REMARK                            x       y       z     vdW  Elec       q    Type
REMARK                         _______ _______ _______ _____ _____    ______ ____
ROOT
ATOM      1  C   UNL     1      36.021   5.943  12.950  0.00  0.00    +0.000 A 
ATOM      2  C   UNL     1      35.859   4.708  13.517  0.00  0.00    +0.000 A 
ATOM      3  C   UNL     1      36.472   4.287  14.686  0.00  0.00    +0.000 A 
ATOM      4  C   UNL     1      37.330   5.183  15.355  0.00  0.00    +0.000 A 
ATOM      5  C   UNL     1      38.023   4.967  16.487  0.00  0.00    +0.000 A 
ATOM      6  N   UNL     1      38.025   3.720  17.253  0.00  0.00    +0.000 NA
ATOM      7  C   UNL     1      38.807   5.988  16.953  0.00  0.00    +0.000 A 
ATOM      8  S   UNL     1      38.563   7.217  15.811  0.00  0.00    +0.000 S 
ATOM      9  C   UNL     1      37.470   6.410  14.763  0.00  0.00    +0.000 A 
ATOM     10  N   UNL     1      36.839   6.778  13.602  0.00  0.00    +0.000 NA
ENDROOT
BRANCH   1  14
ATOM     11  C   UNL     1      34.116   7.118   9.310  0.00  0.00    +0.000 A 
ATOM     12  C   UNL     1      33.577   7.405  10.543  0.00  0.00    +0.000 A 
ATOM     13  C   UNL     1      34.160   7.043  11.730  0.00  0.00    +0.000 A 
ATOM     14  C   UNL     1      35.350   6.355  11.704  0.00  0.00    +0.000 A 
ATOM     15  C   UNL     1      35.911   6.057  10.482  0.00  0.00    +0.000 A 
ATOM     16  C   UNL     1      35.308   6.430   9.307  0.00  0.00    +0.000 A 
BRANCH  11  18
ATOM     17  C   UNL     1      34.225   8.224   7.174  0.00  0.00    +0.000 C 
ATOM     18  O   UNL     1      33.494   7.502   8.152  0.00  0.00    +0.000 OA
ENDBRANCH  11  18
ENDBRANCH   1  14
BRANCH   3  19
ATOM     19  C   UNL     1      36.165   2.950  15.187  0.00  0.00    +0.000 A 
ATOM     20  C   UNL     1      35.131   2.817  16.082  0.00  0.00    +0.000 A 
ATOM     21  C   UNL     1      34.795   1.584  16.589  0.00  0.00    +0.000 A 
ATOM     22  C   UNL     1      35.490   0.459  16.204  0.00  0.00    +0.000 A 
ATOM     23  C   UNL     1      36.512   0.618  15.313  0.00  0.00    +0.000 A 
ATOM     24  C   UNL     1      36.873   1.836  14.790  0.00  0.00    +0.000 A 
BRANCH  22  25
ATOM     25  O   UNL     1      35.146  -0.795  16.721  0.00  0.00    +0.000 OA
ATOM     26  C   UNL     1      35.480  -1.998  16.101  0.00  0.00    +0.000 C 
ENDBRANCH  22  25
ENDBRANCH   3  19
BRANCH   7  27
ATOM     27  C   UNL     1      39.662   6.038  18.154  0.00  0.00    +0.000 C 
ATOM     28  O   UNL     1      39.290   5.487  19.220  0.00  0.00    +0.000 OA
BRANCH  27  29
ATOM     29  C   UNL     1      40.941   6.720  18.142  0.00  0.00    +0.000 A 
ATOM     30  C   UNL     1      41.983   6.271  17.344  0.00  0.00    +0.000 A 
ATOM     31  C   UNL     1      43.200   6.930  17.345  0.00  0.00    +0.000 A 
ATOM     32  C   UNL     1      43.360   8.025  18.141  0.00  0.00    +0.000 A 
ATOM     33  C   UNL     1      44.661   8.741  18.151  0.00  0.00    +0.000 C 
ATOM     34  C   UNL     1      42.347   8.504  18.949  0.00  0.00    +0.000 A 
ATOM     35  C   UNL     1      41.123   7.826  18.936  0.00  0.00    +0.000 A 
ATOM     36  C   UNL     1      39.986   8.283  19.774  0.00  0.00    +0.000 C 
ENDBRANCH  27  29
ENDBRANCH   7  27
TORSDOF 6
ENDMDL
MODEL 9
REMARK VINA RESULT:      -7.8      2.129      3.093
REMARK  Name = 
REMARK  6 active torsions:
REMARK  status: ('A' for Active; 'I' for Inactive)
REMARK    1  A    between atoms: O_2  and  C_3
REMARK    2  A    between atoms: C_6  and  C_7
REMARK    3  A    between atoms: C_9  and  C_10
REMARK    4  A    between atoms: C_13  and  O_14
REMARK    5  A    between atoms: C_21  and  C_22
REMARK    6  A    between atoms: C_22  and  C_24
REMARK                            x       y       z     vdW  Elec       q    Type
REMARK                         _______ _______ _______ _____ _____    ______ ____
ROOT
ATOM      1  C   UNL     1      37.124  -0.061  15.133  0.00  0.00    +0.000 A 
ATOM      2  C   UNL     1      38.133   0.122  14.228  0.00  0.00    +0.000 A 
ATOM      3  C   UNL     1      38.872   1.287  14.090  0.00  0.00    +0.000 A 
ATOM      4  C   UNL     1      38.575   2.374  14.936  0.00  0.00    +0.000 A 
ATOM      5  C   UNL     1      39.163   3.585  14.955  0.00  0.00    +0.000 A 
ATOM      6  N   UNL     1      40.243   4.015  14.068  0.00  0.00    +0.000 NA
ATOM      7  C   UNL     1      38.700   4.496  15.865  0.00  0.00    +0.000 A 
ATOM      8  S   UNL     1      37.466   3.654  16.668  0.00  0.00    +0.000 S 
ATOM      9  C   UNL     1      37.562   2.159  15.831  0.00  0.00    +0.000 A 
ATOM     10  N   UNL     1      36.860   0.984  15.926  0.00  0.00    +0.000 NA
ENDROOT
BRANCH   1  14
ATOM     11  C   UNL     1      34.883  -3.680  15.514  0.00  0.00    +0.000 A 
ATOM     12  C   UNL     1      35.866  -3.525  14.564  0.00  0.00    +0.000 A 
ATOM     13  C   UNL     1      36.604  -2.379  14.413  0.00  0.00    +0.000 A 
ATOM     14  C   UNL     1      36.360  -1.316  15.250  0.00  0.00    +0.000 A 
ATOM     15  C   UNL     1      35.382  -1.446  16.210  0.00  0.00    +0.000 A 
ATOM     16  C   UNL     1      34.656  -2.603  16.342  0.00  0.00    +0.000 A 
BRANCH  11  18
ATOM     17  C   UNL     1      34.499  -5.942  14.784  0.00  0.00    +0.000 C 
ATOM     18  O   UNL     1      34.174  -4.845  15.624  0.00  0.00    +0.000 OA
ENDBRANCH  11  18
ENDBRANCH   1  14
BRANCH   3  19
ATOM     19  C   UNL     1      39.947   1.312  13.102  0.00  0.00    +0.000 A 
ATOM     20  C   UNL     1      41.200   0.911  13.500  0.00  0.00    +0.000 A 
ATOM     21  C   UNL     1      42.252   0.914  12.616  0.00  0.00    +0.000 A 
ATOM     22  C   UNL     1      42.067   1.318  11.312  0.00  0.00    +0.000 A 
ATOM     23  C   UNL     1      40.813   1.711  10.942  0.00  0.00    +0.000 A 
ATOM     24  C   UNL     1      39.741   1.720  11.802  0.00  0.00    +0.000 A 
BRANCH  22  25
ATOM     25  O   UNL     1      43.138   1.320  10.414  0.00  0.00    +0.000 OA
ATOM     26  C   UNL     1      43.077   1.899   9.147  0.00  0.00    +0.000 C 
ENDBRANCH  22  25
ENDBRANCH   3  19
BRANCH   7  27
ATOM     27  C   UNL     1      39.149   5.879  16.115  0.00  0.00    +0.000 C 
ATOM     28  O   UNL     1      38.465   6.850  15.707  0.00  0.00    +0.000 OA
BRANCH  27  29
ATOM     29  C   UNL     1      40.379   6.155  16.829  0.00  0.00    +0.000 A 
ATOM     30  C   UNL     1      41.564   6.392  16.149  0.00  0.00    +0.000 A 
ATOM     31  C   UNL     1      42.733   6.650  16.845  0.00  0.00    +0.000 A 
ATOM     32  C   UNL     1      42.701   6.671  18.208  0.00  0.00    +0.000 A 
ATOM     33  C   UNL     1      43.948   6.947  18.966  0.00  0.00    +0.000 C 
ATOM     34  C   UNL     1      41.542   6.441  18.922  0.00  0.00    +0.000 A 
ATOM     35  C   UNL     1      40.370   6.180  18.204  0.00  0.00    +0.000 A 
ATOM     36  C   UNL     1      39.083   5.928  18.901  0.00  0.00    +0.000 C 
ENDBRANCH  27  29
ENDBRANCH   7  27
TORSDOF 6
ENDMDL
MODEL 10
REMARK VINA RESULT:      -7.5      4.853      7.739
REMARK  Name = 
REMARK  6 active torsions:
REMARK  status: ('A' for Active; 'I' for Inactive)
REMARK    1  A    between atoms: O_2  and  C_3
REMARK    2  A    between atoms: C_6  and  C_7
REMARK    3  A    between atoms: C_9  and  C_10
REMARK    4  A    between atoms: C_13  and  O_14
REMARK    5  A    between atoms: C_21  and  C_22
REMARK    6  A    between atoms: C_22  and  C_24
REMARK                            x       y       z     vdW  Elec       q    Type
REMARK                         _______ _______ _______ _____ _____    ______ ____
ROOT
ATOM      1  C   UNL     1      37.471   3.741  15.560  0.00  0.00    +0.000 A 
ATOM      2  C   UNL     1      38.393   4.243  16.438  0.00  0.00    +0.000 A 
ATOM      3  C   UNL     1      38.646   5.592  16.635  0.00  0.00    +0.000 A 
ATOM      4  C   UNL     1      37.909   6.530  15.886  0.00  0.00    +0.000 A 
ATOM      5  C   UNL     1      38.010   7.871  15.921  0.00  0.00    +0.000 A 
ATOM      6  N   UNL     1      38.939   8.628  16.760  0.00  0.00    +0.000 NA
ATOM      7  C   UNL     1      37.192   8.588  15.090  0.00  0.00    +0.000 A 
ATOM      8  S   UNL     1      36.308   7.387  14.283  0.00  0.00    +0.000 S 
ATOM      9  C   UNL     1      36.994   5.997  15.018  0.00  0.00    +0.000 A 
ATOM     10  N   UNL     1      36.783   4.650  14.859  0.00  0.00    +0.000 NA
ENDROOT
BRANCH   1  14
ATOM     11  C   UNL     1      36.815  -0.445  15.005  0.00  0.00    +0.000 A 
ATOM     12  C   UNL     1      35.902   0.360  15.647  0.00  0.00    +0.000 A 
ATOM     13  C   UNL     1      36.080   1.705  15.842  0.00  0.00    +0.000 A 
ATOM     14  C   UNL     1      37.229   2.299  15.378  0.00  0.00    +0.000 A 
ATOM     15  C   UNL     1      38.159   1.516  14.731  0.00  0.00    +0.000 A 
ATOM     16  C   UNL     1      37.959   0.170  14.547  0.00  0.00    +0.000 A 
BRANCH  11  18
ATOM     17  C   UNL     1      37.573  -2.716  15.259  0.00  0.00    +0.000 C 
ATOM     18  O   UNL     1      36.591  -1.784  14.835  0.00  0.00    +0.000 OA
ENDBRANCH  11  18
ENDBRANCH   1  14
BRANCH   3  19
ATOM     19  C   UNL     1      39.635   5.970  17.641  0.00  0.00    +0.000 A 
ATOM     20  C   UNL     1      39.206   6.148  18.934  0.00  0.00    +0.000 A 
ATOM     21  C   UNL     1      40.089   6.506  19.925  0.00  0.00    +0.000 A 
ATOM     22  C   UNL     1      41.424   6.690  19.636  0.00  0.00    +0.000 A 
ATOM     23  C   UNL     1      41.824   6.506  18.344  0.00  0.00    +0.000 A 
ATOM     24  C   UNL     1      40.965   6.150  17.332  0.00  0.00    +0.000 A 
BRANCH  22  25
ATOM     25  O   UNL     1      42.321   7.053  20.645  0.00  0.00    +0.000 OA
ATOM     26  C   UNL     1      43.343   7.985  20.464  0.00  0.00    +0.000 C 
ENDBRANCH  22  25
ENDBRANCH   3  19
BRANCH   7  27
ATOM     27  C   UNL     1      37.080  10.049  14.919  0.00  0.00    +0.000 C 
ATOM     28  O   UNL     1      37.641  10.618  13.950  0.00  0.00    +0.000 OA
BRANCH  27  29
ATOM     29  C   UNL     1      36.330  10.862  15.855  0.00  0.00    +0.000 A 
ATOM     30  C   UNL     1      36.933  11.397  16.983  0.00  0.00    +0.000 A 
ATOM     31  C   UNL     1      36.202  12.169  17.870  0.00  0.00    +0.000 A 
ATOM     32  C   UNL     1      34.882  12.396  17.618  0.00  0.00    +0.000 A 
ATOM     33  C   UNL     1      34.087  13.223  18.562  0.00  0.00    +0.000 C 
ATOM     34  C   UNL     1      34.244  11.883  16.506  0.00  0.00    +0.000 A 
ATOM     35  C   UNL     1      34.997  11.104  15.620  0.00  0.00    +0.000 A 
ATOM     36  C   UNL     1      34.383  10.521  14.400  0.00  0.00    +0.000 C 
ENDBRANCH  27  29
ENDBRANCH   7  27
TORSDOF 6
ENDMDL
