MODEL 1
REMARK VINA RESULT:      -7.7      0.000      0.000
REMARK  Name = 
REMARK  2 active torsions:
REMARK  status: ('A' for Active; 'I' for Inactive)
REMARK    1  A    between atoms: O_2  and  C_3
REMARK    2  A    between atoms: C_7  and  C_8
REMARK                            x       y       z     vdW  Elec       q    Type
REMARK                         _______ _______ _______ _____ _____    ______ ____
ROOT
ATOM      1  C   UNL     1      15.969  10.962  34.704  0.00  0.00    +0.000 A 
ATOM      2  C   UNL     1      15.183  11.251  35.824  0.00  0.00    +0.000 A 
ATOM      3  N   UNL     1      13.870  11.789  35.609  0.00  0.00    +0.000 NA
ATOM      4  N   UNL     1      15.616  11.034  37.064  0.00  0.00    +0.000 N 
ATOM      5  C   UNL     1      14.774  11.322  38.242  0.00  0.00    +0.000 C 
ATOM      6  C   UNL     1      16.842  10.522  37.255  0.00  0.00    +0.000 A 
ATOM      7  C   UNL     1      17.311  10.292  38.554  0.00  0.00    +0.000 A 
ATOM      8  C   UNL     1      18.564   9.771  38.747  0.00  0.00    +0.000 A 
ATOM      9  C   UNL     1      19.341   9.482  37.666  0.00  0.00    +0.000 A 
ATOM     10  C   UNL     1      18.927   9.691  36.368  0.00  0.00    +0.000 A 
ATOM     11  C   UNL     1      17.651  10.221  36.185  0.00  0.00    +0.000 A 
ATOM     12  C   UNL     1      17.226  10.435  34.877  0.00  0.00    +0.000 A 
ATOM     13  O   UNL     1      17.955  10.160  33.907  0.00  0.00    +0.000 OA
ENDROOT
BRANCH   1  18
ATOM     14  C   UNL     1      15.094  12.693  31.517  0.00  0.00    +0.000 A 
ATOM     15  C   UNL     1      14.508  11.680  30.811  0.00  0.00    +0.000 A 
ATOM     16  C   UNL     1      14.410  10.441  31.417  0.00  0.00    +0.000 A 
ATOM     17  C   UNL     1      14.878  10.220  32.677  0.00  0.00    +0.000 A 
ATOM     18  C   UNL     1      15.468  11.257  33.375  0.00  0.00    +0.000 A 
ATOM     19  C   UNL     1      15.596  12.529  32.818  0.00  0.00    +0.000 A 
BRANCH  14  21
ATOM     20  C   UNL     1      16.348  14.313  30.185  0.00  0.00    +0.000 C 
ATOM     21  O   UNL     1      15.182  13.938  30.881  0.00  0.00    +0.000 OA
ENDBRANCH  14  21
ENDBRANCH   1  18
TORSDOF 2
ENDMDL
MODEL 2
REMARK VINA RESULT:      -7.3      2.027      6.367
REMARK  Name = 
REMARK  2 active torsions:
REMARK  status: ('A' for Active; 'I' for Inactive)
REMARK    1  A    between atoms: O_2  and  C_3
REMARK    2  A    between atoms: C_7  and  C_8
REMARK                            x       y       z     vdW  Elec       q    Type
REMARK                         _______ _______ _______ _____ _____    ______ ____
ROOT
ATOM      1  C   UNL     1      16.807  11.261  35.891  0.00  0.00    +0.000 A 
ATOM      2  C   UNL     1      15.752  12.179  35.904  0.00  0.00    +0.000 A 
ATOM      3  N   UNL     1      15.425  12.818  37.147  0.00  0.00    +0.000 NA
ATOM      4  N   UNL     1      15.063  12.475  34.804  0.00  0.00    +0.000 N 
ATOM      5  C   UNL     1      13.964  13.461  34.818  0.00  0.00    +0.000 C 
ATOM      6  C   UNL     1      15.382  11.880  33.644  0.00  0.00    +0.000 A 
ATOM      7  C   UNL     1      14.664  12.179  32.481  0.00  0.00    +0.000 A 
ATOM      8  C   UNL     1      14.991  11.569  31.298  0.00  0.00    +0.000 A 
ATOM      9  C   UNL     1      16.016  10.674  31.270  0.00  0.00    +0.000 A 
ATOM     10  C   UNL     1      16.754  10.343  32.386  0.00  0.00    +0.000 A 
ATOM     11  C   UNL     1      16.412  10.971  33.583  0.00  0.00    +0.000 A 
ATOM     12  C   UNL     1      17.152  10.642  34.715  0.00  0.00    +0.000 A 
ATOM     13  O   UNL     1      18.087   9.821  34.661  0.00  0.00    +0.000 OA
ENDROOT
BRANCH   1  18
ATOM     14  C   UNL     1      17.756   9.752  39.170  0.00  0.00    +0.000 A 
ATOM     15  C   UNL     1      18.939  10.388  39.427  0.00  0.00    +0.000 A 
ATOM     16  C   UNL     1      19.392  11.312  38.505  0.00  0.00    +0.000 A 
ATOM     17  C   UNL     1      18.693  11.593  37.369  0.00  0.00    +0.000 A 
ATOM     18  C   UNL     1      17.499  10.940  37.126  0.00  0.00    +0.000 A 
ATOM     19  C   UNL     1      16.990   9.997  38.018  0.00  0.00    +0.000 A 
BRANCH  14  21
ATOM     20  C   UNL     1      16.265   9.127  41.001  0.00  0.00    +0.000 C 
ATOM     21  O   UNL     1      17.319   8.820  40.119  0.00  0.00    +0.000 OA
ENDBRANCH  14  21
ENDBRANCH   1  18
TORSDOF 2
ENDMDL
MODEL 3
REMARK VINA RESULT:      -7.3      2.505      6.794
REMARK  Name = 
REMARK  2 active torsions:
REMARK  status: ('A' for Active; 'I' for Inactive)
REMARK    1  A    between atoms: O_2  and  C_3
REMARK    2  A    between atoms: C_7  and  C_8
REMARK                            x       y       z     vdW  Elec       q    Type
REMARK                         _______ _______ _______ _____ _____    ______ ____
ROOT
ATOM      1  C   UNL     1      16.537  11.481  35.719  0.00  0.00    +0.000 A 
ATOM      2  C   UNL     1      16.846  10.832  34.519  0.00  0.00    +0.000 A 
ATOM      3  N   UNL     1      17.825   9.782  34.550  0.00  0.00    +0.000 NA
ATOM      4  N   UNL     1      16.253  11.154  33.372  0.00  0.00    +0.000 N 
ATOM      5  C   UNL     1      16.568  10.450  32.112  0.00  0.00    +0.000 C 
ATOM      6  C   UNL     1      15.332  12.129  33.355  0.00  0.00    +0.000 A 
ATOM      7  C   UNL     1      14.704  12.480  32.154  0.00  0.00    +0.000 A 
ATOM      8  C   UNL     1      13.764  13.478  32.139  0.00  0.00    +0.000 A 
ATOM      9  C   UNL     1      13.452  14.119  33.299  0.00  0.00    +0.000 A 
ATOM     10  C   UNL     1      14.042  13.812  34.506  0.00  0.00    +0.000 A 
ATOM     11  C   UNL     1      14.996  12.796  34.509  0.00  0.00    +0.000 A 
ATOM     12  C   UNL     1      15.595  12.481  35.725  0.00  0.00    +0.000 A 
ATOM     13  O   UNL     1      15.290  13.081  36.772  0.00  0.00    +0.000 OA
ENDROOT
BRANCH   1  18
ATOM     14  C   UNL     1      17.500   9.899  38.958  0.00  0.00    +0.000 A 
ATOM     15  C   UNL     1      18.707  10.494  39.202  0.00  0.00    +0.000 A 
ATOM     16  C   UNL     1      19.169  11.418  38.284  0.00  0.00    +0.000 A 
ATOM     17  C   UNL     1      18.459  11.736  37.165  0.00  0.00    +0.000 A 
ATOM     18  C   UNL     1      17.242  11.122  36.936  0.00  0.00    +0.000 A 
ATOM     19  C   UNL     1      16.721  10.183  37.825  0.00  0.00    +0.000 A 
BRANCH  14  21
ATOM     20  C   UNL     1      16.534   9.386  41.142  0.00  0.00    +0.000 C 
ATOM     21  O   UNL     1      17.054   8.966  39.902  0.00  0.00    +0.000 OA
ENDBRANCH  14  21
ENDBRANCH   1  18
TORSDOF 2
ENDMDL
MODEL 4
REMARK VINA RESULT:      -7.3      2.076      6.038
REMARK  Name = 
REMARK  2 active torsions:
REMARK  status: ('A' for Active; 'I' for Inactive)
REMARK    1  A    between atoms: O_2  and  C_3
REMARK    2  A    between atoms: C_7  and  C_8
REMARK                            x       y       z     vdW  Elec       q    Type
REMARK                         _______ _______ _______ _____ _____    ______ ____
ROOT
ATOM      1  C   UNL     1      16.896  11.257  35.913  0.00  0.00    +0.000 A 
ATOM      2  C   UNL     1      15.824  12.154  35.946  0.00  0.00    +0.000 A 
ATOM      3  N   UNL     1      15.506  12.785  37.197  0.00  0.00    +0.000 NA
ATOM      4  N   UNL     1      15.110  12.439  34.860  0.00  0.00    +0.000 N 
ATOM      5  C   UNL     1      13.992  13.404  34.896  0.00  0.00    +0.000 C 
ATOM      6  C   UNL     1      15.420  11.853  33.693  0.00  0.00    +0.000 A 
ATOM      7  C   UNL     1      14.676  12.141  32.543  0.00  0.00    +0.000 A 
ATOM      8  C   UNL     1      14.994  11.539  31.353  0.00  0.00    +0.000 A 
ATOM      9  C   UNL     1      16.036  10.664  31.305  0.00  0.00    +0.000 A 
ATOM     10  C   UNL     1      16.799  10.346  32.408  0.00  0.00    +0.000 A 
ATOM     11  C   UNL     1      16.466  10.964  33.612  0.00  0.00    +0.000 A 
ATOM     12  C   UNL     1      17.232  10.647  34.730  0.00  0.00    +0.000 A 
ATOM     13  O   UNL     1      18.181   9.845  34.658  0.00  0.00    +0.000 OA
ENDROOT
BRANCH   1  18
ATOM     14  C   UNL     1      19.343  11.302  38.729  0.00  0.00    +0.000 A 
ATOM     15  C   UNL     1      18.874  10.283  39.512  0.00  0.00    +0.000 A 
ATOM     16  C   UNL     1      17.755   9.598  39.079  0.00  0.00    +0.000 A 
ATOM     17  C   UNL     1      17.126   9.914  37.912  0.00  0.00    +0.000 A 
ATOM     18  C   UNL     1      17.616  10.947  37.135  0.00  0.00    +0.000 A 
ATOM     19  C   UNL     1      18.741  11.676  37.518  0.00  0.00    +0.000 A 
BRANCH  14  21
ATOM     20  C   UNL     1      21.049  13.027  38.439  0.00  0.00    +0.000 C 
ATOM     21  O   UNL     1      20.478  11.981  39.190  0.00  0.00    +0.000 OA
ENDBRANCH  14  21
ENDBRANCH   1  18
TORSDOF 2
ENDMDL
MODEL 5
REMARK VINA RESULT:      -6.8      3.340      6.126
REMARK  Name = 
REMARK  2 active torsions:
REMARK  status: ('A' for Active; 'I' for Inactive)
REMARK    1  A    between atoms: O_2  and  C_3
REMARK    2  A    between atoms: C_7  and  C_8
REMARK                            x       y       z     vdW  Elec       q    Type
REMARK                         _______ _______ _______ _____ _____    ______ ____
ROOT
ATOM      1  C   UNL     1      16.763  11.280  37.256  0.00  0.00    +0.000 A 
ATOM      2  C   UNL     1      16.255  11.959  36.144  0.00  0.00    +0.000 A 
ATOM      3  N   UNL     1      17.186  12.456  35.171  0.00  0.00    +0.000 NA
ATOM      4  N   UNL     1      14.948  12.141  35.967  0.00  0.00    +0.000 N 
ATOM      5  C   UNL     1      14.416  12.840  34.779  0.00  0.00    +0.000 C 
ATOM      6  C   UNL     1      14.086  11.664  36.877  0.00  0.00    +0.000 A 
ATOM      7  C   UNL     1      12.709  11.852  36.705  0.00  0.00    +0.000 A 
ATOM      8  C   UNL     1      11.830  11.366  37.637  0.00  0.00    +0.000 A 
ATOM      9  C   UNL     1      12.309  10.702  38.724  0.00  0.00    +0.000 A 
ATOM     10  C   UNL     1      13.654  10.491  38.941  0.00  0.00    +0.000 A 
ATOM     11  C   UNL     1      14.538  10.990  37.987  0.00  0.00    +0.000 A 
ATOM     12  C   UNL     1      15.897  10.782  38.199  0.00  0.00    +0.000 A 
ATOM     13  O   UNL     1      16.310  10.169  39.201  0.00  0.00    +0.000 OA
ENDROOT
BRANCH   1  18
ATOM     14  C   UNL     1      20.322  11.873  38.207  0.00  0.00    +0.000 A 
ATOM     15  C   UNL     1      20.924  10.746  37.720  0.00  0.00    +0.000 A 
ATOM     16  C   UNL     1      20.130   9.815  37.078  0.00  0.00    +0.000 A 
ATOM     17  C   UNL     1      18.788   9.999  36.926  0.00  0.00    +0.000 A 
ATOM     18  C   UNL     1      18.198  11.145  37.426  0.00  0.00    +0.000 A 
ATOM     19  C   UNL     1      18.946  12.121  38.083  0.00  0.00    +0.000 A 
BRANCH  14  21
ATOM     20  C   UNL     1      20.792  14.162  38.921  0.00  0.00    +0.000 C 
ATOM     21  O   UNL     1      21.148  12.801  38.853  0.00  0.00    +0.000 OA
ENDBRANCH  14  21
ENDBRANCH   1  18
TORSDOF 2
ENDMDL
MODEL 6
REMARK VINA RESULT:      -6.5     20.205     21.230
REMARK  Name = 
REMARK  2 active torsions:
REMARK  status: ('A' for Active; 'I' for Inactive)
REMARK    1  A    between atoms: O_2  and  C_3
REMARK    2  A    between atoms: C_7  and  C_8
REMARK                            x       y       z     vdW  Elec       q    Type
REMARK                         _______ _______ _______ _____ _____    ______ ____
ROOT
ATOM      1  C   UNL     1      24.660   3.824  17.130  0.00  0.00    +0.000 A 
ATOM      2  C   UNL     1      24.892   4.322  15.844  0.00  0.00    +0.000 A 
ATOM      3  N   UNL     1      24.090   3.815  14.766  0.00  0.00    +0.000 NA
ATOM      4  N   UNL     1      25.820   5.246  15.603  0.00  0.00    +0.000 N 
ATOM      5  C   UNL     1      26.046   5.783  14.246  0.00  0.00    +0.000 C 
ATOM      6  C   UNL     1      26.559   5.720  16.617  0.00  0.00    +0.000 A 
ATOM      7  C   UNL     1      27.539   6.690  16.377  0.00  0.00    +0.000 A 
ATOM      8  C   UNL     1      28.294   7.171  17.415  0.00  0.00    +0.000 A 
ATOM      9  C   UNL     1      28.079   6.698  18.673  0.00  0.00    +0.000 A 
ATOM     10  C   UNL     1      27.128   5.744  18.963  0.00  0.00    +0.000 A 
ATOM     11  C   UNL     1      26.366   5.261  17.899  0.00  0.00    +0.000 A 
ATOM     12  C   UNL     1      25.404   4.297  18.183  0.00  0.00    +0.000 A 
ATOM     13  O   UNL     1      25.225   3.883  19.343  0.00  0.00    +0.000 OA
ENDROOT
BRANCH   1  18
ATOM     14  C   UNL     1      21.456   2.013  17.740  0.00  0.00    +0.000 A 
ATOM     15  C   UNL     1      21.863   0.709  17.663  0.00  0.00    +0.000 A 
ATOM     16  C   UNL     1      23.200   0.463  17.416  0.00  0.00    +0.000 A 
ATOM     17  C   UNL     1      24.098   1.475  17.253  0.00  0.00    +0.000 A 
ATOM     18  C   UNL     1      23.667   2.786  17.334  0.00  0.00    +0.000 A 
ATOM     19  C   UNL     1      22.331   3.099  17.580  0.00  0.00    +0.000 A 
BRANCH  14  21
ATOM     20  C   UNL     1      19.106   1.645  17.181  0.00  0.00    +0.000 C 
ATOM     21  O   UNL     1      20.096   2.236  17.990  0.00  0.00    +0.000 OA
ENDBRANCH  14  21
ENDBRANCH   1  18
TORSDOF 2
ENDMDL
MODEL 7
REMARK VINA RESULT:      -6.3      4.171      8.585
REMARK  Name = 
REMARK  2 active torsions:
REMARK  status: ('A' for Active; 'I' for Inactive)
REMARK    1  A    between atoms: O_2  and  C_3
REMARK    2  A    between atoms: C_7  and  C_8
REMARK                            x       y       z     vdW  Elec       q    Type
REMARK                         _______ _______ _______ _____ _____    ______ ____
ROOT
ATOM      1  C   UNL     1      16.341   9.700  39.928  0.00  0.00    +0.000 A 
ATOM      2  C   UNL     1      17.468   9.970  39.145  0.00  0.00    +0.000 A 
ATOM      3  N   UNL     1      18.737   9.468  39.588  0.00  0.00    +0.000 NA
ATOM      4  N   UNL     1      17.387  10.663  38.011  0.00  0.00    +0.000 N 
ATOM      5  C   UNL     1      18.577  10.926  37.176  0.00  0.00    +0.000 C 
ATOM      6  C   UNL     1      16.195  11.120  37.599  0.00  0.00    +0.000 A 
ATOM      7  C   UNL     1      16.096  11.852  36.410  0.00  0.00    +0.000 A 
ATOM      8  C   UNL     1      14.877  12.320  35.993  0.00  0.00    +0.000 A 
ATOM      9  C   UNL     1      13.771  12.064  36.745  0.00  0.00    +0.000 A 
ATOM     10  C   UNL     1      13.814  11.350  37.922  0.00  0.00    +0.000 A 
ATOM     11  C   UNL     1      15.059  10.879  38.336  0.00  0.00    +0.000 A 
ATOM     12  C   UNL     1      15.110  10.157  39.525  0.00  0.00    +0.000 A 
ATOM     13  O   UNL     1      14.084   9.935  40.192  0.00  0.00    +0.000 OA
ENDROOT
BRANCH   1  18
ATOM     14  C   UNL     1      16.770   7.000  42.467  0.00  0.00    +0.000 A 
ATOM     15  C   UNL     1      16.806   7.723  43.628  0.00  0.00    +0.000 A 
ATOM     16  C   UNL     1      16.677   9.096  43.539  0.00  0.00    +0.000 A 
ATOM     17  C   UNL     1      16.520   9.726  42.340  0.00  0.00    +0.000 A 
ATOM     18  C   UNL     1      16.488   8.978  41.179  0.00  0.00    +0.000 A 
ATOM     19  C   UNL     1      16.612   7.589  41.203  0.00  0.00    +0.000 A 
BRANCH  14  21
ATOM     20  C   UNL     1      16.900   4.988  43.848  0.00  0.00    +0.000 C 
ATOM     21  O   UNL     1      16.902   5.611  42.584  0.00  0.00    +0.000 OA
ENDBRANCH  14  21
ENDBRANCH   1  18
TORSDOF 2
ENDMDL
MODEL 8
REMARK VINA RESULT:      -6.2     19.262     21.445
REMARK  Name = 
REMARK  2 active torsions:
REMARK  status: ('A' for Active; 'I' for Inactive)
REMARK    1  A    between atoms: O_2  and  C_3
REMARK    2  A    between atoms: C_7  and  C_8
REMARK                            x       y       z     vdW  Elec       q    Type
REMARK                         _______ _______ _______ _____ _____    ______ ____
ROOT
ATOM      1  C   UNL     1      33.611  -0.079  35.391  0.00  0.00    +0.000 A 
ATOM      2  C   UNL     1      33.845   0.450  36.664  0.00  0.00    +0.000 A 
ATOM      3  N   UNL     1      33.962  -0.462  37.766  0.00  0.00    +0.000 NA
ATOM      4  N   UNL     1      33.968   1.760  36.870  0.00  0.00    +0.000 N 
ATOM      5  C   UNL     1      34.237   2.312  38.213  0.00  0.00    +0.000 C 
ATOM      6  C   UNL     1      33.866   2.604  35.832  0.00  0.00    +0.000 A 
ATOM      7  C   UNL     1      33.991   3.984  36.035  0.00  0.00    +0.000 A 
ATOM      8  C   UNL     1      33.885   4.844  34.974  0.00  0.00    +0.000 A 
ATOM      9  C   UNL     1      33.659   4.344  33.728  0.00  0.00    +0.000 A 
ATOM     10  C   UNL     1      33.527   2.995  33.475  0.00  0.00    +0.000 A 
ATOM     11  C   UNL     1      33.637   2.130  34.562  0.00  0.00    +0.000 A 
ATOM     12  C   UNL     1      33.505   0.767  34.314  0.00  0.00    +0.000 A 
ATOM     13  O   UNL     1      33.301   0.335  33.165  0.00  0.00    +0.000 OA
ENDROOT
BRANCH   1  18
ATOM     14  C   UNL     1      34.254  -3.731  34.977  0.00  0.00    +0.000 A 
ATOM     15  C   UNL     1      32.980  -4.230  34.956  0.00  0.00    +0.000 A 
ATOM     16  C   UNL     1      31.934  -3.335  35.072  0.00  0.00    +0.000 A 
ATOM     17  C   UNL     1      32.146  -1.995  35.205  0.00  0.00    +0.000 A 
ATOM     18  C   UNL     1      33.440  -1.511  35.225  0.00  0.00    +0.000 A 
ATOM     19  C   UNL     1      34.539  -2.363  35.112  0.00  0.00    +0.000 A 
BRANCH  14  21
ATOM     20  C   UNL     1      35.252  -5.676  33.885  0.00  0.00    +0.000 C 
ATOM     21  O   UNL     1      35.297  -4.658  34.858  0.00  0.00    +0.000 OA
ENDBRANCH  14  21
ENDBRANCH   1  18
TORSDOF 2
ENDMDL
MODEL 9
REMARK VINA RESULT:      -6.2      3.580      7.624
REMARK  Name = 
REMARK  2 active torsions:
REMARK  status: ('A' for Active; 'I' for Inactive)
REMARK    1  A    between atoms: O_2  and  C_3
REMARK    2  A    between atoms: C_7  and  C_8
REMARK                            x       y       z     vdW  Elec       q    Type
REMARK                         _______ _______ _______ _____ _____    ______ ____
ROOT
ATOM      1  C   UNL     1      17.619   9.945  38.165  0.00  0.00    +0.000 A 
ATOM      2  C   UNL     1      17.973  10.131  36.825  0.00  0.00    +0.000 A 
ATOM      3  N   UNL     1      19.263   9.670  36.395  0.00  0.00    +0.000 NA
ATOM      4  N   UNL     1      17.150  10.708  35.952  0.00  0.00    +0.000 N 
ATOM      5  C   UNL     1      17.521  10.883  34.534  0.00  0.00    +0.000 C 
ATOM      6  C   UNL     1      15.943  11.127  36.361  0.00  0.00    +0.000 A 
ATOM      7  C   UNL     1      15.068  11.739  35.455  0.00  0.00    +0.000 A 
ATOM      8  C   UNL     1      13.836  12.167  35.875  0.00  0.00    +0.000 A 
ATOM      9  C   UNL     1      13.477  11.992  37.177  0.00  0.00    +0.000 A 
ATOM     10  C   UNL     1      14.300  11.398  38.108  0.00  0.00    +0.000 A 
ATOM     11  C   UNL     1      15.550  10.966  37.669  0.00  0.00    +0.000 A 
ATOM     12  C   UNL     1      16.387  10.365  38.604  0.00  0.00    +0.000 A 
ATOM     13  O   UNL     1      16.033  10.214  39.788  0.00  0.00    +0.000 OA
ENDROOT
BRANCH   1  18
ATOM     14  C   UNL     1      19.518   7.518  40.269  0.00  0.00    +0.000 A 
ATOM     15  C   UNL     1      20.465   8.330  40.829  0.00  0.00    +0.000 A 
ATOM     16  C   UNL     1      20.445   9.672  40.500  0.00  0.00    +0.000 A 
ATOM     17  C   UNL     1      19.518  10.186  39.644  0.00  0.00    +0.000 A 
ATOM     18  C   UNL     1      18.569   9.350  39.087  0.00  0.00    +0.000 A 
ATOM     19  C   UNL     1      18.537   7.987  39.380  0.00  0.00    +0.000 A 
BRANCH  14  21
ATOM     20  C   UNL     1      18.397   5.489  41.041  0.00  0.00    +0.000 C 
ATOM     21  O   UNL     1      19.560   6.163  40.618  0.00  0.00    +0.000 OA
ENDBRANCH  14  21
ENDBRANCH   1  18
TORSDOF 2
ENDMDL
MODEL 10
REMARK VINA RESULT:      -6.2      4.335      8.426
REMARK  Name = 
REMARK  2 active torsions:
REMARK  status: ('A' for Active; 'I' for Inactive)
REMARK    1  A    between atoms: O_2  and  C_3
REMARK    2  A    between atoms: C_7  and  C_8
REMARK                            x       y       z     vdW  Elec       q    Type
REMARK                         _______ _______ _______ _____ _____    ______ ____
ROOT
ATOM      1  C   UNL     1      16.254   9.731  39.980  0.00  0.00    +0.000 A 
ATOM      2  C   UNL     1      17.445   9.883  39.262  0.00  0.00    +0.000 A 
ATOM      3  N   UNL     1      18.646   9.329  39.820  0.00  0.00    +0.000 NA
ATOM      4  N   UNL     1      17.485  10.510  38.089  0.00  0.00    +0.000 N 
ATOM      5  C   UNL     1      18.742  10.649  37.326  0.00  0.00    +0.000 C 
ATOM      6  C   UNL     1      16.355  11.016  37.571  0.00  0.00    +0.000 A 
ATOM      7  C   UNL     1      16.384  11.681  36.340  0.00  0.00    +0.000 A 
ATOM      8  C   UNL     1      15.228  12.198  35.814  0.00  0.00    +0.000 A 
ATOM      9  C   UNL     1      14.061  12.057  36.500  0.00  0.00    +0.000 A 
ATOM     10  C   UNL     1      13.979  11.413  37.715  0.00  0.00    +0.000 A 
ATOM     11  C   UNL     1      15.160  10.891  38.240  0.00  0.00    +0.000 A 
ATOM     12  C   UNL     1      15.085  10.239  39.467  0.00  0.00    +0.000 A 
ATOM     13  O   UNL     1      14.004  10.121  40.073  0.00  0.00    +0.000 OA
ENDROOT
BRANCH   1  18
ATOM     14  C   UNL     1      16.342   9.072  43.651  0.00  0.00    +0.000 A 
ATOM     15  C   UNL     1      16.248   7.708  43.684  0.00  0.00    +0.000 A 
ATOM     16  C   UNL     1      16.165   7.037  42.479  0.00  0.00    +0.000 A 
ATOM     17  C   UNL     1      16.174   7.697  41.287  0.00  0.00    +0.000 A 
ATOM     18  C   UNL     1      16.270   9.076  41.275  0.00  0.00    +0.000 A 
ATOM     19  C   UNL     1      16.357   9.811  42.457  0.00  0.00    +0.000 A 
BRANCH  14  21
ATOM     20  C   UNL     1      15.689  10.906  45.128  0.00  0.00    +0.000 C 
ATOM     21  O   UNL     1      16.425   9.729  44.885  0.00  0.00    +0.000 OA
ENDBRANCH  14  21
ENDBRANCH   1  18
TORSDOF 2
ENDMDL
