MODEL 1
REMARK VINA RESULT:      -6.3      0.000      0.000
REMARK  Name = 
REMARK  2 active torsions:
REMARK  status: ('A' for Active; 'I' for Inactive)
REMARK    1  A    between atoms: C_11  and  C_12
REMARK    2  A    between atoms: N_14  and  C_15
REMARK                            x       y       z     vdW  Elec       q    Type
REMARK                         _______ _______ _______ _____ _____    ______ ____
ROOT
ATOM      1  C   UNL     1      24.126  26.185  25.518  0.00  0.00    +0.000 C 
ATOM      2  C   UNL     1      24.748  25.542  26.727  0.00  0.00    +0.000 A 
ATOM      3  O   UNL     1      24.589  25.881  27.976  0.00  0.00    +0.000 OA
ATOM      4  C   UNL     1      25.296  25.082  28.739  0.00  0.00    +0.000 A 
ATOM      5  C   UNL     1      25.473  25.015  30.129  0.00  0.00    +0.000 A 
ATOM      6  C   UNL     1      26.300  24.039  30.647  0.00  0.00    +0.000 A 
ATOM      7  C   UNL     1      26.949  23.138  29.834  0.00  0.00    +0.000 A 
ATOM      8  O   UNL     1      27.775  22.169  30.406  0.00  0.00    +0.000 OA
ATOM      9  C   UNL     1      26.789  23.184  28.460  0.00  0.00    +0.000 A 
ATOM     10  C   UNL     1      25.957  24.169  27.956  0.00  0.00    +0.000 A 
ATOM     11  C   UNL     1      25.611  24.456  26.648  0.00  0.00    +0.000 A 
ENDROOT
BRANCH  11  12
ATOM     12  C   UNL     1      26.037  23.786  25.435  0.00  0.00    +0.000 C 
ATOM     13  O   UNL     1      25.444  22.756  25.069  0.00  0.00    +0.000 OA
ATOM     14  N   UNL     1      27.113  24.319  24.705  0.00  0.00    +0.000 NA
BRANCH  14  15
ATOM     15  C   UNL     1      27.559  23.670  23.493  0.00  0.00    +0.000 C 
ATOM     16  C   UNL     1      27.154  24.374  22.249  0.00  0.00    +0.000 C 
ATOM     17  C   UNL     1      28.253  25.108  21.548  0.00  0.00    +0.000 C 
ATOM     18  C   UNL     1      29.436  25.378  22.422  0.00  0.00    +0.000 C 
ATOM     19  C   UNL     1      29.987  24.134  23.034  0.00  0.00    +0.000 C 
ATOM     20  C   UNL     1      28.957  23.187  23.544  0.00  0.00    +0.000 C 
ENDBRANCH  14  15
ENDBRANCH  11  12
TORSDOF 2
ENDMDL
MODEL 2
REMARK VINA RESULT:      -6.2     31.840     32.888
REMARK  Name = 
REMARK  2 active torsions:
REMARK  status: ('A' for Active; 'I' for Inactive)
REMARK    1  A    between atoms: C_11  and  C_12
REMARK    2  A    between atoms: N_14  and  C_15
REMARK                            x       y       z     vdW  Elec       q    Type
REMARK                         _______ _______ _______ _____ _____    ______ ____
ROOT
ATOM      1  C   UNL     1      21.895 -10.574  25.823  0.00  0.00    +0.000 C 
ATOM      2  C   UNL     1      20.971  -9.427  26.126  0.00  0.00    +0.000 A 
ATOM      3  O   UNL     1      19.931  -9.433  26.912  0.00  0.00    +0.000 OA
ATOM      4  C   UNL     1      19.381  -8.242  26.918  0.00  0.00    +0.000 A 
ATOM      5  C   UNL     1      18.261  -7.722  27.584  0.00  0.00    +0.000 A 
ATOM      6  C   UNL     1      17.925  -6.399  27.384  0.00  0.00    +0.000 A 
ATOM      7  C   UNL     1      18.660  -5.586  26.552  0.00  0.00    +0.000 A 
ATOM      8  O   UNL     1      18.279  -4.253  26.382  0.00  0.00    +0.000 OA
ATOM      9  C   UNL     1      19.769  -6.077  25.884  0.00  0.00    +0.000 A 
ATOM     10  C   UNL     1      20.092  -7.406  26.095  0.00  0.00    +0.000 A 
ATOM     11  C   UNL     1      21.127  -8.162  25.574  0.00  0.00    +0.000 A 
ENDROOT
BRANCH  11  12
ATOM     12  C   UNL     1      22.167  -7.752  24.651  0.00  0.00    +0.000 C 
ATOM     13  O   UNL     1      23.082  -7.013  25.055  0.00  0.00    +0.000 OA
ATOM     14  N   UNL     1      22.112  -8.200  23.321  0.00  0.00    +0.000 NA
BRANCH  14  15
ATOM     15  C   UNL     1      23.135  -7.805  22.379  0.00  0.00    +0.000 C 
ATOM     16  C   UNL     1      24.434  -8.499  22.575  0.00  0.00    +0.000 C 
ATOM     17  C   UNL     1      24.751  -9.551  21.560  0.00  0.00    +0.000 C 
ATOM     18  C   UNL     1      23.551 -10.027  20.807  0.00  0.00    +0.000 C 
ATOM     19  C   UNL     1      22.815  -8.910  20.145  0.00  0.00    +0.000 C 
ATOM     20  C   UNL     1      22.661  -7.689  20.982  0.00  0.00    +0.000 C 
ENDBRANCH  14  15
ENDBRANCH  11  12
TORSDOF 2
ENDMDL
MODEL 3
REMARK VINA RESULT:      -6.2      2.507      6.735
REMARK  Name = 
REMARK  2 active torsions:
REMARK  status: ('A' for Active; 'I' for Inactive)
REMARK    1  A    between atoms: C_11  and  C_12
REMARK    2  A    between atoms: N_14  and  C_15
REMARK                            x       y       z     vdW  Elec       q    Type
REMARK                         _______ _______ _______ _____ _____    ______ ____
ROOT
ATOM      1  C   UNL     1      32.065  23.632  24.877  0.00  0.00    +0.000 C 
ATOM      2  C   UNL     1      30.680  23.628  24.291  0.00  0.00    +0.000 A 
ATOM      3  O   UNL     1      30.330  23.970  23.082  0.00  0.00    +0.000 OA
ATOM      4  C   UNL     1      29.033  23.832  22.948  0.00  0.00    +0.000 A 
ATOM      5  C   UNL     1      28.165  24.060  21.870  0.00  0.00    +0.000 A 
ATOM      6  C   UNL     1      26.817  23.817  22.039  0.00  0.00    +0.000 A 
ATOM      7  C   UNL     1      26.311  23.361  23.234  0.00  0.00    +0.000 A 
ATOM      8  O   UNL     1      24.940  23.130  23.356  0.00  0.00    +0.000 OA
ATOM      9  C   UNL     1      27.148  23.129  24.313  0.00  0.00    +0.000 A 
ATOM     10  C   UNL     1      28.496  23.378  24.127  0.00  0.00    +0.000 A 
ATOM     11  C   UNL     1      29.555  23.241  25.008  0.00  0.00    +0.000 A 
ENDROOT
BRANCH  11  12
ATOM     12  C   UNL     1      29.529  22.792  26.385  0.00  0.00    +0.000 C 
ATOM     13  O   UNL     1      30.134  21.751  26.697  0.00  0.00    +0.000 OA
ATOM     14  N   UNL     1      28.817  23.545  27.334  0.00  0.00    +0.000 NA
BRANCH  14  15
ATOM     15  C   UNL     1      28.773  23.119  28.714  0.00  0.00    +0.000 C 
ATOM     16  C   UNL     1      29.091  24.196  29.687  0.00  0.00    +0.000 C 
ATOM     17  C   UNL     1      27.918  24.735  30.443  0.00  0.00    +0.000 C 
ATOM     18  C   UNL     1      26.606  24.430  29.795  0.00  0.00    +0.000 C 
ATOM     19  C   UNL     1      26.412  22.968  29.563  0.00  0.00    +0.000 C 
ATOM     20  C   UNL     1      27.615  22.259  29.047  0.00  0.00    +0.000 C 
ENDBRANCH  14  15
ENDBRANCH  11  12
TORSDOF 2
ENDMDL
MODEL 4
REMARK VINA RESULT:      -6.1      2.761      5.979
REMARK  Name = 
REMARK  2 active torsions:
REMARK  status: ('A' for Active; 'I' for Inactive)
REMARK    1  A    between atoms: C_11  and  C_12
REMARK    2  A    between atoms: N_14  and  C_15
REMARK                            x       y       z     vdW  Elec       q    Type
REMARK                         _______ _______ _______ _____ _____    ______ ____
ROOT
ATOM      1  C   UNL     1      25.313  25.782  26.376  0.00  0.00    +0.000 C 
ATOM      2  C   UNL     1      26.110  25.805  25.102  0.00  0.00    +0.000 A 
ATOM      3  O   UNL     1      26.095  26.721  24.173  0.00  0.00    +0.000 OA
ATOM      4  C   UNL     1      26.928  26.386  23.217  0.00  0.00    +0.000 A 
ATOM      5  C   UNL     1      27.282  27.011  22.012  0.00  0.00    +0.000 A 
ATOM      6  C   UNL     1      28.210  26.399  21.194  0.00  0.00    +0.000 A 
ATOM      7  C   UNL     1      28.790  25.198  21.534  0.00  0.00    +0.000 A 
ATOM      8  O   UNL     1      29.724  24.619  20.673  0.00  0.00    +0.000 OA
ATOM      9  C   UNL     1      28.456  24.563  22.718  0.00  0.00    +0.000 A 
ATOM     10  C   UNL     1      27.523  25.189  23.526  0.00  0.00    +0.000 A 
ATOM     11  C   UNL     1      27.002  24.801  24.748  0.00  0.00    +0.000 A 
ENDROOT
BRANCH  11  12
ATOM     12  C   UNL     1      27.302  23.610  25.517  0.00  0.00    +0.000 C 
ATOM     13  O   UNL     1      26.545  22.626  25.435  0.00  0.00    +0.000 OA
ATOM     14  N   UNL     1      28.441  23.600  26.340  0.00  0.00    +0.000 NA
BRANCH  14  15
ATOM     15  C   UNL     1      28.763  22.426  27.120  0.00  0.00    +0.000 C 
ATOM     16  C   UNL     1      30.139  21.913  26.896  0.00  0.00    +0.000 C 
ATOM     17  C   UNL     1      31.104  22.179  28.009  0.00  0.00    +0.000 C 
ATOM     18  C   UNL     1      30.659  23.271  28.928  0.00  0.00    +0.000 C 
ATOM     19  C   UNL     1      29.305  23.016  29.502  0.00  0.00    +0.000 C 
ATOM     20  C   UNL     1      28.310  22.490  28.527  0.00  0.00    +0.000 C 
ENDBRANCH  14  15
ENDBRANCH  11  12
TORSDOF 2
ENDMDL
MODEL 5
REMARK VINA RESULT:      -6.1     28.254     30.102
REMARK  Name = 
REMARK  2 active torsions:
REMARK  status: ('A' for Active; 'I' for Inactive)
REMARK    1  A    between atoms: C_11  and  C_12
REMARK    2  A    between atoms: N_14  and  C_15
REMARK                            x       y       z     vdW  Elec       q    Type
REMARK                         _______ _______ _______ _____ _____    ______ ____
ROOT
ATOM      1  C   UNL     1      32.216  -6.059  35.043  0.00  0.00    +0.000 C 
ATOM      2  C   UNL     1      32.424  -4.587  34.819  0.00  0.00    +0.000 A 
ATOM      3  O   UNL     1      31.848  -3.600  35.446  0.00  0.00    +0.000 OA
ATOM      4  C   UNL     1      32.290  -2.462  34.968  0.00  0.00    +0.000 A 
ATOM      5  C   UNL     1      31.999  -1.127  35.286  0.00  0.00    +0.000 A 
ATOM      6  C   UNL     1      32.641  -0.123  34.590  0.00  0.00    +0.000 A 
ATOM      7  C   UNL     1      33.552  -0.403  33.597  0.00  0.00    +0.000 A 
ATOM      8  O   UNL     1      34.176   0.648  32.922  0.00  0.00    +0.000 OA
ATOM      9  C   UNL     1      33.855  -1.712  33.266  0.00  0.00    +0.000 A 
ATOM     10  C   UNL     1      33.203  -2.707  33.973  0.00  0.00    +0.000 A 
ATOM     11  C   UNL     1      33.300  -4.083  33.866  0.00  0.00    +0.000 A 
ENDROOT
BRANCH  11  12
ATOM     12  C   UNL     1      34.128  -4.860  32.966  0.00  0.00    +0.000 C 
ATOM     13  O   UNL     1      35.211  -5.315  33.375  0.00  0.00    +0.000 OA
ATOM     14  N   UNL     1      33.685  -5.079  31.650  0.00  0.00    +0.000 NA
BRANCH  14  15
ATOM     15  C   UNL     1      34.492  -5.849  30.731  0.00  0.00    +0.000 C 
ATOM     16  C   UNL     1      34.467  -7.313  30.990  0.00  0.00    +0.000 C 
ATOM     17  C   UNL     1      33.664  -8.115  30.016  0.00  0.00    +0.000 C 
ATOM     18  C   UNL     1      32.685  -7.295  29.239  0.00  0.00    +0.000 C 
ATOM     19  C   UNL     1      33.336  -6.161  28.521  0.00  0.00    +0.000 C 
ATOM     20  C   UNL     1      34.363  -5.434  29.317  0.00  0.00    +0.000 C 
ENDBRANCH  14  15
ENDBRANCH  11  12
TORSDOF 2
ENDMDL
MODEL 6
REMARK VINA RESULT:      -5.9     14.828     18.573
REMARK  Name = 
REMARK  2 active torsions:
REMARK  status: ('A' for Active; 'I' for Inactive)
REMARK    1  A    between atoms: C_11  and  C_12
REMARK    2  A    between atoms: N_14  and  C_15
REMARK                            x       y       z     vdW  Elec       q    Type
REMARK                         _______ _______ _______ _____ _____    ______ ____
ROOT
ATOM      1  C   UNL     1      33.956  19.754   9.397  0.00  0.00    +0.000 C 
ATOM      2  C   UNL     1      32.878  20.466  10.166  0.00  0.00    +0.000 A 
ATOM      3  O   UNL     1      32.777  20.590  11.460  0.00  0.00    +0.000 OA
ATOM      4  C   UNL     1      31.699  21.279  11.750  0.00  0.00    +0.000 A 
ATOM      5  C   UNL     1      31.138  21.688  12.969  0.00  0.00    +0.000 A 
ATOM      6  C   UNL     1      29.968  22.420  12.949  0.00  0.00    +0.000 A 
ATOM      7  C   UNL     1      29.345  22.753  11.769  0.00  0.00    +0.000 A 
ATOM      8  O   UNL     1      28.163  23.495  11.801  0.00  0.00    +0.000 OA
ATOM      9  C   UNL     1      29.879  22.360  10.553  0.00  0.00    +0.000 A 
ATOM     10  C   UNL     1      31.053  21.627  10.590  0.00  0.00    +0.000 A 
ATOM     11  C   UNL     1      31.807  21.105   9.554  0.00  0.00    +0.000 A 
ENDROOT
BRANCH  11  12
ATOM     12  C   UNL     1      31.562  21.192   8.128  0.00  0.00    +0.000 C 
ATOM     13  O   UNL     1      31.812  22.254   7.531  0.00  0.00    +0.000 OA
ATOM     14  N   UNL     1      31.044  20.071   7.457  0.00  0.00    +0.000 NA
BRANCH  14  15
ATOM     15  C   UNL     1      30.789  20.130   6.036  0.00  0.00    +0.000 C 
ATOM     16  C   UNL     1      31.923  19.656   5.200  0.00  0.00    +0.000 C 
ATOM     17  C   UNL     1      31.728  18.313   4.570  0.00  0.00    +0.000 C 
ATOM     18  C   UNL     1      30.658  17.501   5.226  0.00  0.00    +0.000 C 
ATOM     19  C   UNL     1      29.349  18.217   5.272  0.00  0.00    +0.000 C 
ATOM     20  C   UNL     1      29.443  19.656   5.641  0.00  0.00    +0.000 C 
ENDBRANCH  14  15
ENDBRANCH  11  12
TORSDOF 2
ENDMDL
MODEL 7
REMARK VINA RESULT:      -5.9      3.650      6.356
REMARK  Name = 
REMARK  2 active torsions:
REMARK  status: ('A' for Active; 'I' for Inactive)
REMARK    1  A    between atoms: C_11  and  C_12
REMARK    2  A    between atoms: N_14  and  C_15
REMARK                            x       y       z     vdW  Elec       q    Type
REMARK                         _______ _______ _______ _____ _____    ______ ____
ROOT
ATOM      1  C   UNL     1      28.138  22.465  27.478  0.00  0.00    +0.000 C 
ATOM      2  C   UNL     1      28.136  22.888  26.035  0.00  0.00    +0.000 A 
ATOM      3  O   UNL     1      27.107  22.988  25.240  0.00  0.00    +0.000 OA
ATOM      4  C   UNL     1      27.508  23.387  24.057  0.00  0.00    +0.000 A 
ATOM      5  C   UNL     1      26.817  23.647  22.864  0.00  0.00    +0.000 A 
ATOM      6  C   UNL     1      27.532  24.065  21.760  0.00  0.00    +0.000 A 
ATOM      7  C   UNL     1      28.898  24.229  21.805  0.00  0.00    +0.000 A 
ATOM      8  O   UNL     1      29.576  24.654  20.661  0.00  0.00    +0.000 OA
ATOM      9  C   UNL     1      29.601  23.978  22.971  0.00  0.00    +0.000 A 
ATOM     10  C   UNL     1      28.869  23.560  24.068  0.00  0.00    +0.000 A 
ATOM     11  C   UNL     1      29.290  23.240  25.347  0.00  0.00    +0.000 A 
ENDROOT
BRANCH  11  12
ATOM     12  C   UNL     1      30.636  23.258  25.884  0.00  0.00    +0.000 C 
ATOM     13  O   UNL     1      31.054  22.269  26.512  0.00  0.00    +0.000 OA
ATOM     14  N   UNL     1      31.435  24.396  25.681  0.00  0.00    +0.000 NA
BRANCH  14  15
ATOM     15  C   UNL     1      32.780  24.442  26.208  0.00  0.00    +0.000 C 
ATOM     16  C   UNL     1      33.837  24.392  25.164  0.00  0.00    +0.000 C 
ATOM     17  C   UNL     1      34.536  25.689  24.907  0.00  0.00    +0.000 C 
ATOM     18  C   UNL     1      33.777  26.879  25.401  0.00  0.00    +0.000 C 
ATOM     19  C   UNL     1      33.445  26.778  26.852  0.00  0.00    +0.000 C 
ATOM     20  C   UNL     1      32.975  25.434  27.288  0.00  0.00    +0.000 C 
ENDBRANCH  14  15
ENDBRANCH  11  12
TORSDOF 2
ENDMDL
MODEL 8
REMARK VINA RESULT:      -5.9      1.481      3.354
REMARK  Name = 
REMARK  2 active torsions:
REMARK  status: ('A' for Active; 'I' for Inactive)
REMARK    1  A    between atoms: C_11  and  C_12
REMARK    2  A    between atoms: N_14  and  C_15
REMARK                            x       y       z     vdW  Elec       q    Type
REMARK                         _______ _______ _______ _____ _____    ______ ____
ROOT
ATOM      1  C   UNL     1      27.404  22.318  28.909  0.00  0.00    +0.000 C 
ATOM      2  C   UNL     1      26.472  23.450  28.575  0.00  0.00    +0.000 A 
ATOM      3  O   UNL     1      25.792  24.188  29.406  0.00  0.00    +0.000 OA
ATOM      4  C   UNL     1      25.093  25.072  28.733  0.00  0.00    +0.000 A 
ATOM      5  C   UNL     1      24.211  26.085  29.138  0.00  0.00    +0.000 A 
ATOM      6  C   UNL     1      23.615  26.871  28.173  0.00  0.00    +0.000 A 
ATOM      7  C   UNL     1      23.866  26.682  26.833  0.00  0.00    +0.000 A 
ATOM      8  O   UNL     1      23.238  27.503  25.894  0.00  0.00    +0.000 OA
ATOM      9  C   UNL     1      24.732  25.689  26.410  0.00  0.00    +0.000 A 
ATOM     10  C   UNL     1      25.321  24.909  27.390  0.00  0.00    +0.000 A 
ATOM     11  C   UNL     1      26.215  23.859  27.272  0.00  0.00    +0.000 A 
ENDROOT
BRANCH  11  12
ATOM     12  C   UNL     1      26.781  23.288  26.067  0.00  0.00    +0.000 C 
ATOM     13  O   UNL     1      26.059  22.598  25.324  0.00  0.00    +0.000 OA
ATOM     14  N   UNL     1      28.132  23.529  25.768  0.00  0.00    +0.000 NA
BRANCH  14  15
ATOM     15  C   UNL     1      28.722  22.970  24.573  0.00  0.00    +0.000 C 
ATOM     16  C   UNL     1      28.543  23.813  23.362  0.00  0.00    +0.000 C 
ATOM     17  C   UNL     1      29.771  24.536  22.906  0.00  0.00    +0.000 C 
ATOM     18  C   UNL     1      30.821  24.645  23.965  0.00  0.00    +0.000 C 
ATOM     19  C   UNL     1      31.211  23.315  24.519  0.00  0.00    +0.000 C 
ATOM     20  C   UNL     1      30.070  22.393  24.774  0.00  0.00    +0.000 C 
ENDBRANCH  14  15
ENDBRANCH  11  12
TORSDOF 2
ENDMDL
MODEL 9
REMARK VINA RESULT:      -5.9      2.017      3.387
REMARK  Name = 
REMARK  2 active torsions:
REMARK  status: ('A' for Active; 'I' for Inactive)
REMARK    1  A    between atoms: C_11  and  C_12
REMARK    2  A    between atoms: N_14  and  C_15
REMARK                            x       y       z     vdW  Elec       q    Type
REMARK                         _______ _______ _______ _____ _____    ______ ____
ROOT
ATOM      1  C   UNL     1      30.513  22.396  25.245  0.00  0.00    +0.000 C 
ATOM      2  C   UNL     1      29.758  22.598  26.528  0.00  0.00    +0.000 A 
ATOM      3  O   UNL     1      30.185  22.387  27.742  0.00  0.00    +0.000 OA
ATOM      4  C   UNL     1      29.235  22.680  28.597  0.00  0.00    +0.000 A 
ATOM      5  C   UNL     1      29.176  22.632  29.998  0.00  0.00    +0.000 A 
ATOM      6  C   UNL     1      28.009  23.013  30.627  0.00  0.00    +0.000 A 
ATOM      7  C   UNL     1      26.910  23.436  29.915  0.00  0.00    +0.000 A 
ATOM      8  O   UNL     1      25.752  23.811  30.598  0.00  0.00    +0.000 OA
ATOM      9  C   UNL     1      26.944  23.492  28.532  0.00  0.00    +0.000 A 
ATOM     10  C   UNL     1      28.122  23.106  27.916  0.00  0.00    +0.000 A 
ATOM     11  C   UNL     1      28.447  23.058  26.572  0.00  0.00    +0.000 A 
ENDROOT
BRANCH  11  12
ATOM     12  C   UNL     1      27.623  23.406  25.432  0.00  0.00    +0.000 C 
ATOM     13  O   UNL     1      26.626  22.710  25.168  0.00  0.00    +0.000 OA
ATOM     14  N   UNL     1      27.973  24.521  24.653  0.00  0.00    +0.000 NA
BRANCH  14  15
ATOM     15  C   UNL     1      27.169  24.890  23.510  0.00  0.00    +0.000 C 
ATOM     16  C   UNL     1      26.820  26.333  23.460  0.00  0.00    +0.000 C 
ATOM     17  C   UNL     1      27.565  27.130  22.436  0.00  0.00    +0.000 C 
ATOM     18  C   UNL     1      28.815  26.463  21.960  0.00  0.00    +0.000 C 
ATOM     19  C   UNL     1      28.559  25.093  21.426  0.00  0.00    +0.000 C 
ATOM     20  C   UNL     1      27.611  24.280  22.236  0.00  0.00    +0.000 C 
ENDBRANCH  14  15
ENDBRANCH  11  12
TORSDOF 2
ENDMDL
MODEL 10
REMARK VINA RESULT:      -5.8      3.713      6.652
REMARK  Name = 
REMARK  2 active torsions:
REMARK  status: ('A' for Active; 'I' for Inactive)
REMARK    1  A    between atoms: C_11  and  C_12
REMARK    2  A    between atoms: N_14  and  C_15
REMARK                            x       y       z     vdW  Elec       q    Type
REMARK                         _______ _______ _______ _____ _____    ______ ____
ROOT
ATOM      1  C   UNL     1      27.546  22.263  27.449  0.00  0.00    +0.000 C 
ATOM      2  C   UNL     1      27.669  22.741  26.029  0.00  0.00    +0.000 A 
ATOM      3  O   UNL     1      26.703  23.007  25.195  0.00  0.00    +0.000 OA
ATOM      4  C   UNL     1      27.210  23.399  24.051  0.00  0.00    +0.000 A 
ATOM      5  C   UNL     1      26.619  23.797  22.843  0.00  0.00    +0.000 A 
ATOM      6  C   UNL     1      27.436  24.162  21.792  0.00  0.00    +0.000 A 
ATOM      7  C   UNL     1      28.807  24.144  21.904  0.00  0.00    +0.000 A 
ATOM      8  O   UNL     1      29.590  24.522  20.813  0.00  0.00    +0.000 OA
ATOM      9  C   UNL     1      29.413  23.755  23.087  0.00  0.00    +0.000 A 
ATOM     10  C   UNL     1      28.580  23.392  24.130  0.00  0.00    +0.000 A 
ATOM     11  C   UNL     1      28.892  22.966  25.410  0.00  0.00    +0.000 A 
ENDROOT
BRANCH  11  12
ATOM     12  C   UNL     1      30.201  22.786  26.005  0.00  0.00    +0.000 C 
ATOM     13  O   UNL     1      30.981  21.949  25.517  0.00  0.00    +0.000 OA
ATOM     14  N   UNL     1      30.554  23.561  27.122  0.00  0.00    +0.000 NA
BRANCH  14  15
ATOM     15  C   UNL     1      31.853  23.400  27.736  0.00  0.00    +0.000 C 
ATOM     16  C   UNL     1      32.489  24.680  28.143  0.00  0.00    +0.000 C 
ATOM     17  C   UNL     1      32.492  24.947  29.615  0.00  0.00    +0.000 C 
ATOM     18  C   UNL     1      31.490  24.131  30.366  0.00  0.00    +0.000 C 
ATOM     19  C   UNL     1      31.660  22.666  30.132  0.00  0.00    +0.000 C 
ATOM     20  C   UNL     1      31.927  22.294  28.716  0.00  0.00    +0.000 C 
ENDBRANCH  14  15
ENDBRANCH  11  12
TORSDOF 2
ENDMDL
