MODEL 1
REMARK VINA RESULT:      -8.9      0.000      0.000
REMARK  Name = 
REMARK  6 active torsions:
REMARK  status: ('A' for Active; 'I' for Inactive)
REMARK    1  A    between atoms: C_5  and  S_6
REMARK    2  A    between atoms: S_6  and  C_7
REMARK    3  A    between atoms: C_8  and  N_9
REMARK    4  A    between atoms: N_9  and  C_10
REMARK    5  A    between atoms: N_20  and  C_21
REMARK    6  A    between atoms: C_21  and  C_22
REMARK                            x       y       z     vdW  Elec       q    Type
REMARK                         _______ _______ _______ _____ _____    ______ ____
ROOT
ATOM      1  C   UNL     1      37.681   3.767  14.808  0.00  0.00    +0.000 C 
ATOM      2  C   UNL     1      36.421   4.156  14.683  0.00  0.00    +0.000 C 
ATOM      3  C   UNL     1      35.581   2.954  14.831  0.00  0.00    +0.000 C 
ATOM      4  O   UNL     1      34.328   2.947  14.770  0.00  0.00    +0.000 OA
ATOM      5  N   UNL     1      36.405   1.826  15.051  0.00  0.00    +0.000 N 
ATOM      6  C   UNL     1      37.730   2.314  15.040  0.00  0.00    +0.000 C 
ATOM      7  O   UNL     1      38.775   1.641  15.198  0.00  0.00    +0.000 OA
ENDROOT
BRANCH   1   8
ATOM      8  S   UNL     1      39.088   4.869  14.704  0.00  0.00    +0.000 S 
BRANCH   8  13
ATOM      9  C   UNL     1      40.840   6.572  20.249  0.00  0.00    +0.000 C 
ATOM     10  C   UNL     1      40.387   6.143  18.901  0.00  0.00    +0.000 A 
ATOM     11  C   UNL     1      41.155   6.436  17.804  0.00  0.00    +0.000 A 
ATOM     12  C   UNL     1      40.783   6.064  16.548  0.00  0.00    +0.000 A 
ATOM     13  C   UNL     1      39.604   5.367  16.315  0.00  0.00    +0.000 A 
ATOM     14  C   UNL     1      38.843   5.080  17.433  0.00  0.00    +0.000 A 
ATOM     15  C   UNL     1      39.212   5.451  18.700  0.00  0.00    +0.000 A 
ENDBRANCH   8  13
ENDBRANCH   1   8
BRANCH   2  16
ATOM     16  N   UNL     1      35.977   5.489  14.451  0.00  0.00    +0.000 NA
BRANCH  16  17
ATOM     17  C   UNL     1      35.564   5.928  13.162  0.00  0.00    +0.000 A 
ATOM     18  C   UNL     1      36.239   5.618  12.010  0.00  0.00    +0.000 A 
ATOM     19  C   UNL     1      35.773   6.082  10.797  0.00  0.00    +0.000 A 
ATOM     20  C   UNL     1      34.634   6.857  10.720  0.00  0.00    +0.000 A 
ATOM     21  C   UNL     1      34.126   7.364   9.398  0.00  0.00    +0.000 C 
ATOM     22  C   UNL     1      33.962   7.164  11.876  0.00  0.00    +0.000 A 
ATOM     23  C   UNL     1      34.429   6.701  13.067  0.00  0.00    +0.000 A 
ATOM     24  C   UNL     1      33.685   7.046  14.300  0.00  0.00    +0.000 C 
ENDBRANCH  16  17
ENDBRANCH   2  16
BRANCH   5  25
ATOM     25  C   UNL     1      36.001   0.466  15.246  0.00  0.00    +0.000 C 
BRANCH  25  26
ATOM     26  C   UNL     1      36.216  -0.043  16.604  0.00  0.00    +0.000 A 
ATOM     27  C   UNL     1      35.544   0.503  17.677  0.00  0.00    +0.000 A 
ATOM     28  C   UNL     1      35.726   0.045  18.971  0.00  0.00    +0.000 A 
ATOM     29  C   UNL     1      36.591  -0.980  19.228  0.00  0.00    +0.000 A 
ATOM     30  C   UNL     1      37.277  -1.544  18.174  0.00  0.00    +0.000 A 
ATOM     31  C   UNL     1      37.085  -1.076  16.884  0.00  0.00    +0.000 A 
ENDBRANCH  25  26
ENDBRANCH   5  25
TORSDOF 6
ENDMDL
MODEL 2
REMARK VINA RESULT:      -8.4      3.057      7.797
REMARK  Name = 
REMARK  6 active torsions:
REMARK  status: ('A' for Active; 'I' for Inactive)
REMARK    1  A    between atoms: C_5  and  S_6
REMARK    2  A    between atoms: S_6  and  C_7
REMARK    3  A    between atoms: C_8  and  N_9
REMARK    4  A    between atoms: N_9  and  C_10
REMARK    5  A    between atoms: N_20  and  C_21
REMARK    6  A    between atoms: C_21  and  C_22
REMARK                            x       y       z     vdW  Elec       q    Type
REMARK                         _______ _______ _______ _____ _____    ______ ____
ROOT
ATOM      1  C   UNL     1      37.819   1.174  14.418  0.00  0.00    +0.000 C 
ATOM      2  C   UNL     1      36.975   1.012  15.426  0.00  0.00    +0.000 C 
ATOM      3  C   UNL     1      36.731   2.346  16.004  0.00  0.00    +0.000 C 
ATOM      4  O   UNL     1      35.979   2.574  16.981  0.00  0.00    +0.000 OA
ATOM      5  N   UNL     1      37.475   3.314  15.288  0.00  0.00    +0.000 N 
ATOM      6  C   UNL     1      38.165   2.598  14.286  0.00  0.00    +0.000 C 
ATOM      7  O   UNL     1      38.942   3.077  13.427  0.00  0.00    +0.000 OA
ENDROOT
BRANCH   1   8
ATOM      8  S   UNL     1      38.424  -0.162  13.391  0.00  0.00    +0.000 S 
BRANCH   8  13
ATOM      9  C   UNL     1      44.185  -1.462  14.751  0.00  0.00    +0.000 C 
ATOM     10  C   UNL     1      42.766  -1.170  14.422  0.00  0.00    +0.000 A 
ATOM     11  C   UNL     1      42.397   0.108  14.091  0.00  0.00    +0.000 A 
ATOM     12  C   UNL     1      41.109   0.425  13.781  0.00  0.00    +0.000 A 
ATOM     13  C   UNL     1      40.102  -0.533  13.785  0.00  0.00    +0.000 A 
ATOM     14  C   UNL     1      40.494  -1.816  14.121  0.00  0.00    +0.000 A 
ATOM     15  C   UNL     1      41.788  -2.142  14.433  0.00  0.00    +0.000 A 
ENDBRANCH   8  13
ENDBRANCH   1   8
BRANCH   2  16
ATOM     16  N   UNL     1      36.416  -0.225  15.859  0.00  0.00    +0.000 NA
BRANCH  16  17
ATOM     17  C   UNL     1      37.052  -1.032  16.842  0.00  0.00    +0.000 A 
ATOM     18  C   UNL     1      38.183  -1.765  16.596  0.00  0.00    +0.000 A 
ATOM     19  C   UNL     1      38.741  -2.523  17.605  0.00  0.00    +0.000 A 
ATOM     20  C   UNL     1      38.179  -2.559  18.865  0.00  0.00    +0.000 A 
ATOM     21  C   UNL     1      38.786  -3.385  19.965  0.00  0.00    +0.000 C 
ATOM     22  C   UNL     1      37.047  -1.823  19.106  0.00  0.00    +0.000 A 
ATOM     23  C   UNL     1      36.505  -1.078  18.104  0.00  0.00    +0.000 A 
ATOM     24  C   UNL     1      35.282  -0.292  18.391  0.00  0.00    +0.000 C 
ENDBRANCH  16  17
ENDBRANCH   2  16
BRANCH   5  25
ATOM     25  C   UNL     1      37.528   4.726  15.515  0.00  0.00    +0.000 C 
BRANCH  25  26
ATOM     26  C   UNL     1      38.548   5.149  16.479  0.00  0.00    +0.000 A 
ATOM     27  C   UNL     1      39.737   5.701  16.053  0.00  0.00    +0.000 A 
ATOM     28  C   UNL     1      40.720   6.110  16.938  0.00  0.00    +0.000 A 
ATOM     29  C   UNL     1      40.538   5.975  18.286  0.00  0.00    +0.000 A 
ATOM     30  C   UNL     1      39.359   5.425  18.740  0.00  0.00    +0.000 A 
ATOM     31  C   UNL     1      38.384   5.021  17.842  0.00  0.00    +0.000 A 
ENDBRANCH  25  26
ENDBRANCH   5  25
TORSDOF 6
ENDMDL
MODEL 3
REMARK VINA RESULT:      -8.1      2.005      6.037
REMARK  Name = 
REMARK  6 active torsions:
REMARK  status: ('A' for Active; 'I' for Inactive)
REMARK    1  A    between atoms: C_5  and  S_6
REMARK    2  A    between atoms: S_6  and  C_7
REMARK    3  A    between atoms: C_8  and  N_9
REMARK    4  A    between atoms: N_9  and  C_10
REMARK    5  A    between atoms: N_20  and  C_21
REMARK    6  A    between atoms: C_21  and  C_22
REMARK                            x       y       z     vdW  Elec       q    Type
REMARK                         _______ _______ _______ _____ _____    ______ ____
ROOT
ATOM      1  C   UNL     1      36.307   3.517  15.932  0.00  0.00    +0.000 C 
ATOM      2  C   UNL     1      36.549   4.276  14.874  0.00  0.00    +0.000 C 
ATOM      3  C   UNL     1      37.808   4.996  15.137  0.00  0.00    +0.000 C 
ATOM      4  O   UNL     1      38.345   5.809  14.346  0.00  0.00    +0.000 OA
ATOM      5  N   UNL     1      38.306   4.628  16.409  0.00  0.00    +0.000 N 
ATOM      6  C   UNL     1      37.378   3.698  16.926  0.00  0.00    +0.000 C 
ATOM      7  O   UNL     1      37.439   3.120  18.036  0.00  0.00    +0.000 OA
ENDROOT
BRANCH   1   8
ATOM      8  S   UNL     1      34.884   2.445  16.094  0.00  0.00    +0.000 S 
BRANCH   8  13
ATOM      9  C   UNL     1      36.519  -3.373  15.648  0.00  0.00    +0.000 C 
ATOM     10  C   UNL     1      36.102  -1.953  15.779  0.00  0.00    +0.000 A 
ATOM     11  C   UNL     1      36.611  -1.016  14.918  0.00  0.00    +0.000 A 
ATOM     12  C   UNL     1      36.258   0.297  14.998  0.00  0.00    +0.000 A 
ATOM     13  C   UNL     1      35.364   0.754  15.958  0.00  0.00    +0.000 A 
ATOM     14  C   UNL     1      34.861  -0.206  16.818  0.00  0.00    +0.000 A 
ATOM     15  C   UNL     1      35.211  -1.529  16.742  0.00  0.00    +0.000 A 
ENDBRANCH   8  13
ENDBRANCH   1   8
BRANCH   2  16
ATOM     16  N   UNL     1      35.737   4.369  13.707  0.00  0.00    +0.000 NA
BRANCH  16  17
ATOM     17  C   UNL     1      35.319   5.623  13.182  0.00  0.00    +0.000 A 
ATOM     18  C   UNL     1      34.506   6.490  13.864  0.00  0.00    +0.000 A 
ATOM     19  C   UNL     1      34.145   7.690  13.285  0.00  0.00    +0.000 A 
ATOM     20  C   UNL     1      34.589   8.036  12.025  0.00  0.00    +0.000 A 
ATOM     21  C   UNL     1      34.196   9.342  11.393  0.00  0.00    +0.000 C 
ATOM     22  C   UNL     1      35.403   7.163  11.347  0.00  0.00    +0.000 A 
ATOM     23  C   UNL     1      35.753   5.983  11.927  0.00  0.00    +0.000 A 
ATOM     24  C   UNL     1      36.633   5.060  11.173  0.00  0.00    +0.000 C 
ENDBRANCH  16  17
ENDBRANCH   2  16
BRANCH   5  25
ATOM     25  C   UNL     1      39.498   5.089  17.054  0.00  0.00    +0.000 C 
BRANCH  25  26
ATOM     26  C   UNL     1      39.272   6.062  18.126  0.00  0.00    +0.000 A 
ATOM     27  C   UNL     1      40.091   6.095  19.235  0.00  0.00    +0.000 A 
ATOM     28  C   UNL     1      39.904   7.002  20.264  0.00  0.00    +0.000 A 
ATOM     29  C   UNL     1      38.883   7.908  20.211  0.00  0.00    +0.000 A 
ATOM     30  C   UNL     1      38.048   7.897  19.115  0.00  0.00    +0.000 A 
ATOM     31  C   UNL     1      38.248   6.984  18.092  0.00  0.00    +0.000 A 
ENDBRANCH  25  26
ENDBRANCH   5  25
TORSDOF 6
ENDMDL
MODEL 4
REMARK VINA RESULT:      -8.0      1.767      5.480
REMARK  Name = 
REMARK  6 active torsions:
REMARK  status: ('A' for Active; 'I' for Inactive)
REMARK    1  A    between atoms: C_5  and  S_6
REMARK    2  A    between atoms: S_6  and  C_7
REMARK    3  A    between atoms: C_8  and  N_9
REMARK    4  A    between atoms: N_9  and  C_10
REMARK    5  A    between atoms: N_20  and  C_21
REMARK    6  A    between atoms: C_21  and  C_22
REMARK                            x       y       z     vdW  Elec       q    Type
REMARK                         _______ _______ _______ _____ _____    ______ ____
ROOT
ATOM      1  C   UNL     1      37.543   3.754  14.059  0.00  0.00    +0.000 C 
ATOM      2  C   UNL     1      36.976   4.949  14.132  0.00  0.00    +0.000 C 
ATOM      3  C   UNL     1      37.979   5.870  14.695  0.00  0.00    +0.000 C 
ATOM      4  O   UNL     1      37.788   7.092  14.907  0.00  0.00    +0.000 OA
ATOM      5  N   UNL     1      39.176   5.163  14.955  0.00  0.00    +0.000 N 
ATOM      6  C   UNL     1      38.924   3.830  14.562  0.00  0.00    +0.000 C 
ATOM      7  O   UNL     1      39.725   2.869  14.625  0.00  0.00    +0.000 OA
ENDROOT
BRANCH   1   8
ATOM      8  S   UNL     1      36.723   2.290  13.436  0.00  0.00    +0.000 S 
BRANCH   8  13
ATOM      9  C   UNL     1      34.644  -1.108  18.002  0.00  0.00    +0.000 C 
ATOM     10  C   UNL     1      35.167  -0.298  16.872  0.00  0.00    +0.000 A 
ATOM     11  C   UNL     1      34.859   1.036  16.797  0.00  0.00    +0.000 A 
ATOM     12  C   UNL     1      35.314   1.820  15.781  0.00  0.00    +0.000 A 
ATOM     13  C   UNL     1      36.115   1.307  14.767  0.00  0.00    +0.000 A 
ATOM     14  C   UNL     1      36.415  -0.040  14.861  0.00  0.00    +0.000 A 
ATOM     15  C   UNL     1      35.961  -0.834  15.880  0.00  0.00    +0.000 A 
ENDBRANCH   8  13
ENDBRANCH   1   8
BRANCH   2  16
ATOM     16  N   UNL     1      35.645   5.269  13.737  0.00  0.00    +0.000 NA
BRANCH  16  17
ATOM     17  C   UNL     1      35.362   5.882  12.484  0.00  0.00    +0.000 A 
ATOM     18  C   UNL     1      36.074   5.622  11.343  0.00  0.00    +0.000 A 
ATOM     19  C   UNL     1      35.736   6.258  10.165  0.00  0.00    +0.000 A 
ATOM     20  C   UNL     1      34.689   7.155  10.114  0.00  0.00    +0.000 A 
ATOM     21  C   UNL     1      34.320   7.849   8.832  0.00  0.00    +0.000 C 
ATOM     22  C   UNL     1      33.980   7.411  11.261  0.00  0.00    +0.000 A 
ATOM     23  C   UNL     1      34.321   6.779  12.417  0.00  0.00    +0.000 A 
ATOM     24  C   UNL     1      33.539   7.073  13.639  0.00  0.00    +0.000 C 
ENDBRANCH  16  17
ENDBRANCH   2  16
BRANCH   5  25
ATOM     25  C   UNL     1      40.398   5.672  15.501  0.00  0.00    +0.000 C 
BRANCH  25  26
ATOM     26  C   UNL     1      40.377   5.876  16.952  0.00  0.00    +0.000 A 
ATOM     27  C   UNL     1      41.471   6.399  17.608  0.00  0.00    +0.000 A 
ATOM     28  C   UNL     1      41.483   6.603  18.977  0.00  0.00    +0.000 A 
ATOM     29  C   UNL     1      40.390   6.287  19.734  0.00  0.00    +0.000 A 
ATOM     30  C   UNL     1      39.283   5.761  19.105  0.00  0.00    +0.000 A 
ATOM     31  C   UNL     1      39.285   5.563  17.733  0.00  0.00    +0.000 A 
ENDBRANCH  25  26
ENDBRANCH   5  25
TORSDOF 6
ENDMDL
MODEL 5
REMARK VINA RESULT:      -8.0      1.035      6.361
REMARK  Name = 
REMARK  6 active torsions:
REMARK  status: ('A' for Active; 'I' for Inactive)
REMARK    1  A    between atoms: C_5  and  S_6
REMARK    2  A    between atoms: S_6  and  C_7
REMARK    3  A    between atoms: C_8  and  N_9
REMARK    4  A    between atoms: N_9  and  C_10
REMARK    5  A    between atoms: N_20  and  C_21
REMARK    6  A    between atoms: C_21  and  C_22
REMARK                            x       y       z     vdW  Elec       q    Type
REMARK                         _______ _______ _______ _____ _____    ______ ____
ROOT
ATOM      1  C   UNL     1      36.851   4.309  14.685  0.00  0.00    +0.000 C 
ATOM      2  C   UNL     1      38.116   3.988  14.915  0.00  0.00    +0.000 C 
ATOM      3  C   UNL     1      38.197   2.517  14.906  0.00  0.00    +0.000 C 
ATOM      4  O   UNL     1      39.249   1.859  15.091  0.00  0.00    +0.000 OA
ATOM      5  N   UNL     1      36.914   1.974  14.659  0.00  0.00    +0.000 N 
ATOM      6  C   UNL     1      36.053   3.083  14.516  0.00  0.00    +0.000 C 
ATOM      7  O   UNL     1      34.821   3.048  14.287  0.00  0.00    +0.000 OA
ENDROOT
BRANCH   1   8
ATOM      8  S   UNL     1      36.241   5.989  14.599  0.00  0.00    +0.000 S 
BRANCH   8  13
ATOM      9  C   UNL     1      34.039   7.187   9.082  0.00  0.00    +0.000 C 
ATOM     10  C   UNL     1      34.555   6.903  10.446  0.00  0.00    +0.000 A 
ATOM     11  C   UNL     1      35.797   6.343  10.596  0.00  0.00    +0.000 A 
ATOM     12  C   UNL     1      36.313   6.064  11.825  0.00  0.00    +0.000 A 
ATOM     13  C   UNL     1      35.606   6.335  12.991  0.00  0.00    +0.000 A 
ATOM     14  C   UNL     1      34.356   6.901  12.819  0.00  0.00    +0.000 A 
ATOM     15  C   UNL     1      33.831   7.184  11.585  0.00  0.00    +0.000 A 
ENDBRANCH   8  13
ENDBRANCH   1   8
BRANCH   2  16
ATOM     16  N   UNL     1      39.185   4.905  15.129  0.00  0.00    +0.000 NA
BRANCH  16  17
ATOM     17  C   UNL     1      39.571   5.315  16.435  0.00  0.00    +0.000 A 
ATOM     18  C   UNL     1      38.828   5.052  17.556  0.00  0.00    +0.000 A 
ATOM     19  C   UNL     1      39.272   5.485  18.789  0.00  0.00    +0.000 A 
ATOM     20  C   UNL     1      40.456   6.182  18.916  0.00  0.00    +0.000 A 
ATOM     21  C   UNL     1      40.940   6.654  20.259  0.00  0.00    +0.000 C 
ATOM     22  C   UNL     1      41.196   6.443  17.791  0.00  0.00    +0.000 A 
ATOM     23  C   UNL     1      40.749   6.011  16.579  0.00  0.00    +0.000 A 
ATOM     24  C   UNL     1      41.567   6.305  15.380  0.00  0.00    +0.000 C 
ENDBRANCH  16  17
ENDBRANCH   2  16
BRANCH   5  25
ATOM     25  C   UNL     1      36.546   0.593  14.567  0.00  0.00    +0.000 C 
BRANCH  25  26
ATOM     26  C   UNL     1      36.388  -0.081  15.859  0.00  0.00    +0.000 A 
ATOM     27  C   UNL     1      35.237   0.077  16.602  0.00  0.00    +0.000 A 
ATOM     28  C   UNL     1      35.058  -0.546  17.825  0.00  0.00    +0.000 A 
ATOM     29  C   UNL     1      36.034  -1.349  18.344  0.00  0.00    +0.000 A 
ATOM     30  C   UNL     1      37.195  -1.524  17.623  0.00  0.00    +0.000 A 
ATOM     31  C   UNL     1      37.361  -0.895  16.399  0.00  0.00    +0.000 A 
ENDBRANCH  25  26
ENDBRANCH   5  25
TORSDOF 6
ENDMDL
MODEL 6
REMARK VINA RESULT:      -8.0      3.083      7.748
REMARK  Name = 
REMARK  6 active torsions:
REMARK  status: ('A' for Active; 'I' for Inactive)
REMARK    1  A    between atoms: C_5  and  S_6
REMARK    2  A    between atoms: S_6  and  C_7
REMARK    3  A    between atoms: C_8  and  N_9
REMARK    4  A    between atoms: N_9  and  C_10
REMARK    5  A    between atoms: N_20  and  C_21
REMARK    6  A    between atoms: C_21  and  C_22
REMARK                            x       y       z     vdW  Elec       q    Type
REMARK                         _______ _______ _______ _____ _____    ______ ____
ROOT
ATOM      1  C   UNL     1      36.765   1.187  15.264  0.00  0.00    +0.000 C 
ATOM      2  C   UNL     1      37.727   1.286  14.359  0.00  0.00    +0.000 C 
ATOM      3  C   UNL     1      38.137   2.701  14.318  0.00  0.00    +0.000 C 
ATOM      4  O   UNL     1      39.031   3.164  13.569  0.00  0.00    +0.000 OA
ATOM      5  N   UNL     1      37.369   3.443  15.246  0.00  0.00    +0.000 N 
ATOM      6  C   UNL     1      36.500   2.510  15.853  0.00  0.00    +0.000 C 
ATOM      7  O   UNL     1      35.646   2.750  16.738  0.00  0.00    +0.000 OA
ENDROOT
BRANCH   1   8
ATOM      8  S   UNL     1      35.935  -0.343  15.684  0.00  0.00    +0.000 S 
BRANCH   8  13
ATOM      9  C   UNL     1      39.012  -3.324  19.969  0.00  0.00    +0.000 C 
ATOM     10  C   UNL     1      38.274  -2.604  18.899  0.00  0.00    +0.000 A 
ATOM     11  C   UNL     1      37.209  -1.808  19.230  0.00  0.00    +0.000 A 
ATOM     12  C   UNL     1      36.502  -1.128  18.285  0.00  0.00    +0.000 A 
ATOM     13  C   UNL     1      36.826  -1.207  16.936  0.00  0.00    +0.000 A 
ATOM     14  C   UNL     1      37.904  -2.015  16.622  0.00  0.00    +0.000 A 
ATOM     15  C   UNL     1      38.620  -2.701  17.568  0.00  0.00    +0.000 A 
ENDBRANCH   8  13
ENDBRANCH   1   8
BRANCH   2  16
ATOM     16  N   UNL     1      38.256   0.217  13.580  0.00  0.00    +0.000 NA
BRANCH  16  17
ATOM     17  C   UNL     1      39.571  -0.284  13.790  0.00  0.00    +0.000 A 
ATOM     18  C   UNL     1      40.611   0.494  14.224  0.00  0.00    +0.000 A 
ATOM     19  C   UNL     1      41.859  -0.068  14.405  0.00  0.00    +0.000 A 
ATOM     20  C   UNL     1      42.080  -1.407  14.155  0.00  0.00    +0.000 A 
ATOM     21  C   UNL     1      43.439  -2.021  14.350  0.00  0.00    +0.000 C 
ATOM     22  C   UNL     1      41.034  -2.182  13.721  0.00  0.00    +0.000 A 
ATOM     23  C   UNL     1      39.808  -1.617  13.546  0.00  0.00    +0.000 A 
ATOM     24  C   UNL     1      38.696  -2.476  13.077  0.00  0.00    +0.000 C 
ENDBRANCH  16  17
ENDBRANCH   2  16
BRANCH   5  25
ATOM     25  C   UNL     1      37.442   4.845  15.527  0.00  0.00    +0.000 C 
BRANCH  25  26
ATOM     26  C   UNL     1      38.493   5.220  16.477  0.00  0.00    +0.000 A 
ATOM     27  C   UNL     1      39.665   5.802  16.041  0.00  0.00    +0.000 A 
ATOM     28  C   UNL     1      40.676   6.167  16.914  0.00  0.00    +0.000 A 
ATOM     29  C   UNL     1      40.542   5.957  18.257  0.00  0.00    +0.000 A 
ATOM     30  C   UNL     1      39.382   5.376  18.720  0.00  0.00    +0.000 A 
ATOM     31  C   UNL     1      38.377   5.016  17.835  0.00  0.00    +0.000 A 
ENDBRANCH  25  26
ENDBRANCH   5  25
TORSDOF 6
ENDMDL
MODEL 7
REMARK VINA RESULT:      -7.9      2.209      5.465
REMARK  Name = 
REMARK  6 active torsions:
REMARK  status: ('A' for Active; 'I' for Inactive)
REMARK    1  A    between atoms: C_5  and  S_6
REMARK    2  A    between atoms: S_6  and  C_7
REMARK    3  A    between atoms: C_8  and  N_9
REMARK    4  A    between atoms: N_9  and  C_10
REMARK    5  A    between atoms: N_20  and  C_21
REMARK    6  A    between atoms: C_21  and  C_22
REMARK                            x       y       z     vdW  Elec       q    Type
REMARK                         _______ _______ _______ _____ _____    ______ ____
ROOT
ATOM      1  C   UNL     1      37.306   5.705  14.569  0.00  0.00    +0.000 C 
ATOM      2  C   UNL     1      38.317   4.924  14.915  0.00  0.00    +0.000 C 
ATOM      3  C   UNL     1      37.815   3.538  14.908  0.00  0.00    +0.000 C 
ATOM      4  O   UNL     1      38.504   2.528  15.188  0.00  0.00    +0.000 OA
ATOM      5  N   UNL     1      36.449   3.533  14.539  0.00  0.00    +0.000 N 
ATOM      6  C   UNL     1      36.108   4.885  14.321  0.00  0.00    +0.000 C 
ATOM      7  O   UNL     1      34.988   5.327  13.977  0.00  0.00    +0.000 OA
ENDROOT
BRANCH   1   8
ATOM      8  S   UNL     1      37.414   7.487  14.432  0.00  0.00    +0.000 S 
BRANCH   8  13
ATOM      9  C   UNL     1      39.171   9.932  19.692  0.00  0.00    +0.000 C 
ATOM     10  C   UNL     1      38.762   9.344  18.390  0.00  0.00    +0.000 A 
ATOM     11  C   UNL     1      37.623   8.585  18.318  0.00  0.00    +0.000 A 
ATOM     12  C   UNL     1      37.207   8.025  17.147  0.00  0.00    +0.000 A 
ATOM     13  C   UNL     1      37.919   8.196  15.966  0.00  0.00    +0.000 A 
ATOM     14  C   UNL     1      39.065   8.964  16.059  0.00  0.00    +0.000 A 
ATOM     15  C   UNL     1      39.488   9.530  17.233  0.00  0.00    +0.000 A 
ENDBRANCH   8  13
ENDBRANCH   1   8
BRANCH   2  16
ATOM     16  N   UNL     1      39.637   5.355  15.232  0.00  0.00    +0.000 NA
BRANCH  16  17
ATOM     17  C   UNL     1      40.032   5.641  16.569  0.00  0.00    +0.000 A 
ATOM     18  C   UNL     1      39.270   5.323  17.662  0.00  0.00    +0.000 A 
ATOM     19  C   UNL     1      39.725   5.634  18.928  0.00  0.00    +0.000 A 
ATOM     20  C   UNL     1      40.939   6.262  19.115  0.00  0.00    +0.000 A 
ATOM     21  C   UNL     1      41.435   6.601  20.493  0.00  0.00    +0.000 C 
ATOM     22  C   UNL     1      41.698   6.577  18.016  0.00  0.00    +0.000 A 
ATOM     23  C   UNL     1      41.241   6.266  16.773  0.00  0.00    +0.000 A 
ATOM     24  C   UNL     1      42.080   6.618  15.604  0.00  0.00    +0.000 C 
ENDBRANCH  16  17
ENDBRANCH   2  16
BRANCH   5  25
ATOM     25  C   UNL     1      35.578   2.404  14.407  0.00  0.00    +0.000 C 
BRANCH  25  26
ATOM     26  C   UNL     1      35.651   1.448  15.516  0.00  0.00    +0.000 A 
ATOM     27  C   UNL     1      36.058   0.148  15.302  0.00  0.00    +0.000 A 
ATOM     28  C   UNL     1      36.137  -0.778  16.328  0.00  0.00    +0.000 A 
ATOM     29  C   UNL     1      35.807  -0.427  17.606  0.00  0.00    +0.000 A 
ATOM     30  C   UNL     1      35.396   0.866  17.849  0.00  0.00    +0.000 A 
ATOM     31  C   UNL     1      35.322   1.783  16.812  0.00  0.00    +0.000 A 
ENDBRANCH  25  26
ENDBRANCH   5  25
TORSDOF 6
ENDMDL
MODEL 8
REMARK VINA RESULT:      -7.8      2.969      7.388
REMARK  Name = 
REMARK  6 active torsions:
REMARK  status: ('A' for Active; 'I' for Inactive)
REMARK    1  A    between atoms: C_5  and  S_6
REMARK    2  A    between atoms: S_6  and  C_7
REMARK    3  A    between atoms: C_8  and  N_9
REMARK    4  A    between atoms: N_9  and  C_10
REMARK    5  A    between atoms: N_20  and  C_21
REMARK    6  A    between atoms: C_21  and  C_22
REMARK                            x       y       z     vdW  Elec       q    Type
REMARK                         _______ _______ _______ _____ _____    ______ ____
ROOT
ATOM      1  C   UNL     1      37.555   4.399  14.607  0.00  0.00    +0.000 C 
ATOM      2  C   UNL     1      37.817   3.506  15.550  0.00  0.00    +0.000 C 
ATOM      3  C   UNL     1      38.110   4.256  16.785  0.00  0.00    +0.000 C 
ATOM      4  O   UNL     1      38.402   3.731  17.886  0.00  0.00    +0.000 OA
ATOM      5  N   UNL     1      38.009   5.644  16.530  0.00  0.00    +0.000 N 
ATOM      6  C   UNL     1      37.660   5.756  15.167  0.00  0.00    +0.000 C 
ATOM      7  O   UNL     1      37.472   6.818  14.529  0.00  0.00    +0.000 OA
ENDROOT
BRANCH   1   8
ATOM      8  S   UNL     1      37.137   3.981  12.917  0.00  0.00    +0.000 S 
BRANCH   8  13
ATOM      9  C   UNL     1      39.713  -1.265  11.316  0.00  0.00    +0.000 C 
ATOM     10  C   UNL     1      39.056   0.009  11.707  0.00  0.00    +0.000 A 
ATOM     11  C   UNL     1      39.824   1.115  11.962  0.00  0.00    +0.000 A 
ATOM     12  C   UNL     1      39.269   2.305  12.324  0.00  0.00    +0.000 A 
ATOM     13  C   UNL     1      37.894   2.458  12.452  0.00  0.00    +0.000 A 
ATOM     14  C   UNL     1      37.135   1.331  12.189  0.00  0.00    +0.000 A 
ATOM     15  C   UNL     1      37.688   0.131  11.825  0.00  0.00    +0.000 A 
ENDBRANCH   8  13
ENDBRANCH   1   8
BRANCH   2  16
ATOM     16  N   UNL     1      37.812   2.091  15.387  0.00  0.00    +0.000 NA
BRANCH  16  17
ATOM     17  C   UNL     1      36.773   1.279  15.921  0.00  0.00    +0.000 A 
ATOM     18  C   UNL     1      35.610   1.788  16.435  0.00  0.00    +0.000 A 
ATOM     19  C   UNL     1      34.649   0.932  16.933  0.00  0.00    +0.000 A 
ATOM     20  C   UNL     1      34.838  -0.435  16.925  0.00  0.00    +0.000 A 
ATOM     21  C   UNL     1      33.792  -1.368  17.469  0.00  0.00    +0.000 C 
ATOM     22  C   UNL     1      36.005  -0.939  16.409  0.00  0.00    +0.000 A 
ATOM     23  C   UNL     1      36.946  -0.086  15.919  0.00  0.00    +0.000 A 
ATOM     24  C   UNL     1      38.197  -0.657  15.368  0.00  0.00    +0.000 C 
ENDBRANCH  16  17
ENDBRANCH   2  16
BRANCH   5  25
ATOM     25  C   UNL     1      38.213   6.724  17.448  0.00  0.00    +0.000 C 
BRANCH  25  26
ATOM     26  C   UNL     1      39.466   6.650  18.204  0.00  0.00    +0.000 A 
ATOM     27  C   UNL     1      40.680   6.577  17.555  0.00  0.00    +0.000 A 
ATOM     28  C   UNL     1      41.881   6.506  18.241  0.00  0.00    +0.000 A 
ATOM     29  C   UNL     1      41.900   6.506  19.607  0.00  0.00    +0.000 A 
ATOM     30  C   UNL     1      40.701   6.578  20.282  0.00  0.00    +0.000 A 
ATOM     31  C   UNL     1      39.506   6.649  19.583  0.00  0.00    +0.000 A 
ENDBRANCH  25  26
ENDBRANCH   5  25
TORSDOF 6
ENDMDL
MODEL 9
REMARK VINA RESULT:      -7.8      2.007      2.653
REMARK  Name = 
REMARK  6 active torsions:
REMARK  status: ('A' for Active; 'I' for Inactive)
REMARK    1  A    between atoms: C_5  and  S_6
REMARK    2  A    between atoms: S_6  and  C_7
REMARK    3  A    between atoms: C_8  and  N_9
REMARK    4  A    between atoms: N_9  and  C_10
REMARK    5  A    between atoms: N_20  and  C_21
REMARK    6  A    between atoms: C_21  and  C_22
REMARK                            x       y       z     vdW  Elec       q    Type
REMARK                         _______ _______ _______ _____ _____    ______ ____
ROOT
ATOM      1  C   UNL     1      37.725   4.418  16.074  0.00  0.00    +0.000 C 
ATOM      2  C   UNL     1      37.048   4.658  14.961  0.00  0.00    +0.000 C 
ATOM      3  C   UNL     1      35.851   3.799  14.989  0.00  0.00    +0.000 C 
ATOM      4  O   UNL     1      34.977   3.763  14.091  0.00  0.00    +0.000 OA
ATOM      5  N   UNL     1      35.848   3.031  16.178  0.00  0.00    +0.000 N 
ATOM      6  C   UNL     1      37.018   3.405  16.875  0.00  0.00    +0.000 C 
ATOM      7  O   UNL     1      37.401   2.961  17.982  0.00  0.00    +0.000 OA
ENDROOT
BRANCH   1   8
ATOM      8  S   UNL     1      39.264   5.222  16.507  0.00  0.00    +0.000 S 
BRANCH   8  13
ATOM      9  C   UNL     1      38.419   9.161  21.033  0.00  0.00    +0.000 C 
ATOM     10  C   UNL     1      38.643   8.180  19.940  0.00  0.00    +0.000 A 
ATOM     11  C   UNL     1      38.030   8.366  18.728  0.00  0.00    +0.000 A 
ATOM     12  C   UNL     1      38.205   7.495  17.696  0.00  0.00    +0.000 A 
ATOM     13  C   UNL     1      39.014   6.372  17.820  0.00  0.00    +0.000 A 
ATOM     14  C   UNL     1      39.624   6.202  19.050  0.00  0.00    +0.000 A 
ATOM     15  C   UNL     1      39.453   7.075  20.092  0.00  0.00    +0.000 A 
ENDBRANCH   8  13
ENDBRANCH   1   8
BRANCH   2  16
ATOM     16  N   UNL     1      37.419   5.578  13.939  0.00  0.00    +0.000 NA
BRANCH  16  17
ATOM     17  C   UNL     1      36.661   6.754  13.678  0.00  0.00    +0.000 A 
ATOM     18  C   UNL     1      36.532   7.780  14.576  0.00  0.00    +0.000 A 
ATOM     19  C   UNL     1      35.779   8.889  14.246  0.00  0.00    +0.000 A 
ATOM     20  C   UNL     1      35.150   8.984  13.022  0.00  0.00    +0.000 A 
ATOM     21  C   UNL     1      34.328  10.191  12.662  0.00  0.00    +0.000 C 
ATOM     22  C   UNL     1      35.282   7.953  12.126  0.00  0.00    +0.000 A 
ATOM     23  C   UNL     1      36.027   6.865  12.461  0.00  0.00    +0.000 A 
ATOM     24  C   UNL     1      36.155   5.767  11.476  0.00  0.00    +0.000 C 
ENDBRANCH  16  17
ENDBRANCH   2  16
BRANCH   5  25
ATOM     25  C   UNL     1      34.874   2.072  16.603  0.00  0.00    +0.000 C 
BRANCH  25  26
ATOM     26  C   UNL     1      35.231   0.678  16.325  0.00  0.00    +0.000 A 
ATOM     27  C   UNL     1      34.706  -0.349  17.079  0.00  0.00    +0.000 A 
ATOM     28  C   UNL     1      35.024  -1.676  16.842  0.00  0.00    +0.000 A 
ATOM     29  C   UNL     1      35.884  -2.013  15.835  0.00  0.00    +0.000 A 
ATOM     30  C   UNL     1      36.424  -1.005  15.066  0.00  0.00    +0.000 A 
ATOM     31  C   UNL     1      36.097   0.318  15.314  0.00  0.00    +0.000 A 
ENDBRANCH  25  26
ENDBRANCH   5  25
TORSDOF 6
ENDMDL
MODEL 10
REMARK VINA RESULT:      -7.7      2.817      4.492
REMARK  Name = 
REMARK  6 active torsions:
REMARK  status: ('A' for Active; 'I' for Inactive)
REMARK    1  A    between atoms: C_5  and  S_6
REMARK    2  A    between atoms: S_6  and  C_7
REMARK    3  A    between atoms: C_8  and  N_9
REMARK    4  A    between atoms: N_9  and  C_10
REMARK    5  A    between atoms: N_20  and  C_21
REMARK    6  A    between atoms: C_21  and  C_22
REMARK                            x       y       z     vdW  Elec       q    Type
REMARK                         _______ _______ _______ _____ _____    ______ ____
ROOT
ATOM      1  C   UNL     1      35.832   1.585  15.030  0.00  0.00    +0.000 C 
ATOM      2  C   UNL     1      36.480   0.853  14.136  0.00  0.00    +0.000 C 
ATOM      3  C   UNL     1      36.426  -0.544  14.602  0.00  0.00    +0.000 C 
ATOM      4  O   UNL     1      36.939  -1.518  14.000  0.00  0.00    +0.000 OA
ATOM      5  N   UNL     1      35.712  -0.608  15.822  0.00  0.00    +0.000 N 
ATOM      6  C   UNL     1      35.329   0.720  16.109  0.00  0.00    +0.000 C 
ATOM      7  O   UNL     1      34.677   1.110  17.105  0.00  0.00    +0.000 OA
ENDROOT
BRANCH   1   8
ATOM      8  S   UNL     1      35.620   3.359  14.911  0.00  0.00    +0.000 S 
BRANCH   8  13
ATOM      9  C   UNL     1      40.592   6.244  16.828  0.00  0.00    +0.000 C 
ATOM     10  C   UNL     1      39.374   5.552  16.334  0.00  0.00    +0.000 A 
ATOM     11  C   UNL     1      38.773   4.600  17.116  0.00  0.00    +0.000 A 
ATOM     12  C   UNL     1      37.655   3.938  16.707  0.00  0.00    +0.000 A 
ATOM     13  C   UNL     1      37.066   4.195  15.475  0.00  0.00    +0.000 A 
ATOM     14  C   UNL     1      37.687   5.158  14.700  0.00  0.00    +0.000 A 
ATOM     15  C   UNL     1      38.811   5.828  15.106  0.00  0.00    +0.000 A 
ENDBRANCH   8  13
ENDBRANCH   1   8
BRANCH   2  16
ATOM     16  N   UNL     1      37.105   1.338  12.952  0.00  0.00    +0.000 NA
BRANCH  16  17
ATOM     17  C   UNL     1      38.355   2.016  12.988  0.00  0.00    +0.000 A 
ATOM     18  C   UNL     1      39.333   1.742  13.907  0.00  0.00    +0.000 A 
ATOM     19  C   UNL     1      40.521   2.445  13.874  0.00  0.00    +0.000 A 
ATOM     20  C   UNL     1      40.743   3.425  12.930  0.00  0.00    +0.000 A 
ATOM     21  C   UNL     1      42.036   4.193  12.894  0.00  0.00    +0.000 C 
ATOM     22  C   UNL     1      39.760   3.696  12.011  0.00  0.00    +0.000 A 
ATOM     23  C   UNL     1      38.593   2.996  12.052  0.00  0.00    +0.000 A 
ATOM     24  C   UNL     1      37.549   3.308  11.049  0.00  0.00    +0.000 C 
ENDBRANCH  16  17
ENDBRANCH   2  16
BRANCH   5  25
ATOM     25  C   UNL     1      35.427  -1.767  16.614  0.00  0.00    +0.000 C 
BRANCH  25  26
ATOM     26  C   UNL     1      36.522  -2.189  17.491  0.00  0.00    +0.000 A 
ATOM     27  C   UNL     1      37.401  -3.176  17.098  0.00  0.00    +0.000 A 
ATOM     28  C   UNL     1      38.446  -3.597  17.904  0.00  0.00    +0.000 A 
ATOM     29  C   UNL     1      38.640  -3.037  19.135  0.00  0.00    +0.000 A 
ATOM     30  C   UNL     1      37.776  -2.049  19.553  0.00  0.00    +0.000 A 
ATOM     31  C   UNL     1      36.736  -1.637  18.736  0.00  0.00    +0.000 A 
ENDBRANCH  25  26
ENDBRANCH   5  25
TORSDOF 6
ENDMDL
