MODEL 1
REMARK VINA RESULT:      -6.6      0.000      0.000
REMARK  Name = 
REMARK  5 active torsions:
REMARK  status: ('A' for Active; 'I' for Inactive)
REMARK    1  A    between atoms: C_2  and  O_3
REMARK    2  A    between atoms: O_3  and  C_4
REMARK    3  A    between atoms: C_7  and  C_8
REMARK    4  A    between atoms: C_15  and  C_16
REMARK    5  A    between atoms: C_16  and  C_18
REMARK                            x       y       z     vdW  Elec       q    Type
REMARK                         _______ _______ _______ _____ _____    ______ ____
ROOT
ATOM      1  C   UNL     1      16.035  10.861  37.318  0.00  0.00    +0.000 A 
ATOM      2  C   UNL     1      17.006  10.399  36.474  0.00  0.00    +0.000 A 
ATOM      3  C   UNL     1      16.879  10.621  35.122  0.00  0.00    +0.000 A 
ATOM      4  C   UNL     1      15.789  11.301  34.608  0.00  0.00    +0.000 A 
ATOM      5  C   UNL     1      14.808  11.765  35.472  0.00  0.00    +0.000 A 
ATOM      6  C   UNL     1      14.954  11.539  36.779  0.00  0.00    +0.000 A 
ENDROOT
BRANCH   4   7
ATOM      7  C   UNL     1      15.637  11.537  33.177  0.00  0.00    +0.000 A 
ATOM      8  C   UNL     1      14.882  12.442  32.488  0.00  0.00    +0.000 A 
ATOM      9  C   UNL     1      15.097  12.253  31.132  0.00  0.00    +0.000 A 
ATOM     10  N   UNL     1      14.539  12.945  30.025  0.00  0.00    +0.000 NA
ATOM     11  O   UNL     1      15.938  11.284  31.036  0.00  0.00    +0.000 OA
ATOM     12  N   UNL     1      16.297  10.818  32.222  0.00  0.00    +0.000 NA
ENDBRANCH   4   7
BRANCH   6  13
ATOM     13  C   UNL     1      13.892  12.044  37.860  0.00  0.00    +0.000 C 
ATOM     14  C   UNL     1      13.059  10.639  37.971  0.00  0.00    +0.000 C 
BRANCH  13  15
ATOM     15  C   UNL     1      12.843  12.668  36.723  0.00  0.00    +0.000 C 
ATOM     16  C   UNL     1      11.560  11.974  37.049  0.00  0.00    +0.000 C 
ENDBRANCH  13  15
ENDBRANCH   6  13
BRANCH   1  17
ATOM     17  O   UNL     1      16.133  10.654  38.683  0.00  0.00    +0.000 OA
BRANCH  17  19
ATOM     18  C   UNL     1      16.554   9.396  40.617  0.00  0.00    +0.000 C 
ATOM     19  C   UNL     1      17.098   9.793  39.252  0.00  0.00    +0.000 C 
ENDBRANCH  17  19
ENDBRANCH   1  17
TORSDOF 5
ENDMDL
MODEL 2
REMARK VINA RESULT:      -6.5      2.047      3.579
REMARK  Name = 
REMARK  5 active torsions:
REMARK  status: ('A' for Active; 'I' for Inactive)
REMARK    1  A    between atoms: C_2  and  O_3
REMARK    2  A    between atoms: O_3  and  C_4
REMARK    3  A    between atoms: C_7  and  C_8
REMARK    4  A    between atoms: C_15  and  C_16
REMARK    5  A    between atoms: C_16  and  C_18
REMARK                            x       y       z     vdW  Elec       q    Type
REMARK                         _______ _______ _______ _____ _____    ______ ____
ROOT
ATOM      1  C   UNL     1      15.268  10.937  38.141  0.00  0.00    +0.000 A 
ATOM      2  C   UNL     1      14.025  11.504  38.072  0.00  0.00    +0.000 A 
ATOM      3  C   UNL     1      13.668  12.197  36.938  0.00  0.00    +0.000 A 
ATOM      4  C   UNL     1      14.544  12.329  35.874  0.00  0.00    +0.000 A 
ATOM      5  C   UNL     1      15.803  11.751  35.954  0.00  0.00    +0.000 A 
ATOM      6  C   UNL     1      16.126  11.082  37.063  0.00  0.00    +0.000 A 
ENDROOT
BRANCH   4   7
ATOM      7  C   UNL     1      14.182  13.066  34.670  0.00  0.00    +0.000 A 
ATOM      8  C   UNL     1      14.463  12.836  33.353  0.00  0.00    +0.000 A 
ATOM      9  C   UNL     1      13.880  13.840  32.597  0.00  0.00    +0.000 A 
ATOM     10  N   UNL     1      13.895  14.035  31.190  0.00  0.00    +0.000 NA
ATOM     11  O   UNL     1      13.287  14.618  33.433  0.00  0.00    +0.000 OA
ATOM     12  N   UNL     1      13.431  14.207  34.683  0.00  0.00    +0.000 NA
ENDBRANCH   4   7
BRANCH   6  13
ATOM     13  C   UNL     1      17.541  10.367  37.252  0.00  0.00    +0.000 C 
ATOM     14  C   UNL     1      18.417  11.738  37.438  0.00  0.00    +0.000 C 
BRANCH  13  15
ATOM     15  C   UNL     1      17.862  10.291  35.616  0.00  0.00    +0.000 C 
ATOM     16  C   UNL     1      17.823   8.822  35.345  0.00  0.00    +0.000 C 
ENDBRANCH  13  15
ENDBRANCH   6  13
BRANCH   1  17
ATOM     17  O   UNL     1      15.657  10.234  39.268  0.00  0.00    +0.000 OA
BRANCH  17  19
ATOM     18  C   UNL     1      15.529   8.943  41.221  0.00  0.00    +0.000 C 
ATOM     19  C   UNL     1      14.738   9.812  40.255  0.00  0.00    +0.000 C 
ENDBRANCH  17  19
ENDBRANCH   1  17
TORSDOF 5
ENDMDL
MODEL 3
REMARK VINA RESULT:      -6.4     19.537     21.815
REMARK  Name = 
REMARK  5 active torsions:
REMARK  status: ('A' for Active; 'I' for Inactive)
REMARK    1  A    between atoms: C_2  and  O_3
REMARK    2  A    between atoms: O_3  and  C_4
REMARK    3  A    between atoms: C_7  and  C_8
REMARK    4  A    between atoms: C_15  and  C_16
REMARK    5  A    between atoms: C_16  and  C_18
REMARK                            x       y       z     vdW  Elec       q    Type
REMARK                         _______ _______ _______ _____ _____    ______ ____
ROOT
ATOM      1  C   UNL     1      28.539  22.805  25.399  0.00  0.00    +0.000 A 
ATOM      2  C   UNL     1      29.834  22.983  24.997  0.00  0.00    +0.000 A 
ATOM      3  C   UNL     1      30.088  23.720  23.863  0.00  0.00    +0.000 A 
ATOM      4  C   UNL     1      29.057  24.280  23.128  0.00  0.00    +0.000 A 
ATOM      5  C   UNL     1      27.746  24.094  23.544  0.00  0.00    +0.000 A 
ATOM      6  C   UNL     1      27.525  23.376  24.647  0.00  0.00    +0.000 A 
ENDROOT
BRANCH   4   7
ATOM      7  C   UNL     1      29.310  25.058  21.922  0.00  0.00    +0.000 A 
ATOM      8  C   UNL     1      29.290  26.404  21.696  0.00  0.00    +0.000 A 
ATOM      9  C   UNL     1      29.606  26.633  20.366  0.00  0.00    +0.000 A 
ATOM     10  N   UNL     1      29.709  27.861  19.661  0.00  0.00    +0.000 NA
ATOM     11  O   UNL     1      29.801  25.474  19.842  0.00  0.00    +0.000 OA
ATOM     12  N   UNL     1      29.640  24.497  20.720  0.00  0.00    +0.000 NA
ENDBRANCH   4   7
BRANCH   6  13
ATOM     13  C   UNL     1      26.058  23.114  25.220  0.00  0.00    +0.000 C 
ATOM     14  C   UNL     1      25.281  23.195  23.782  0.00  0.00    +0.000 C 
BRANCH  13  15
ATOM     15  C   UNL     1      25.766  24.722  25.557  0.00  0.00    +0.000 C 
ATOM     16  C   UNL     1      25.108  24.660  26.897  0.00  0.00    +0.000 C 
ENDBRANCH  13  15
ENDBRANCH   6  13
BRANCH   1  17
ATOM     17  O   UNL     1      28.251  22.069  26.535  0.00  0.00    +0.000 OA
BRANCH  17  19
ATOM     18  C   UNL     1      28.302  23.572  28.334  0.00  0.00    +0.000 C 
ATOM     19  C   UNL     1      28.901  22.292  27.770  0.00  0.00    +0.000 C 
ENDBRANCH  17  19
ENDBRANCH   1  17
TORSDOF 5
ENDMDL
MODEL 4
REMARK VINA RESULT:      -6.3     17.891     20.769
REMARK  Name = 
REMARK  5 active torsions:
REMARK  status: ('A' for Active; 'I' for Inactive)
REMARK    1  A    between atoms: C_2  and  O_3
REMARK    2  A    between atoms: O_3  and  C_4
REMARK    3  A    between atoms: C_7  and  C_8
REMARK    4  A    between atoms: C_15  and  C_16
REMARK    5  A    between atoms: C_16  and  C_18
REMARK                            x       y       z     vdW  Elec       q    Type
REMARK                         _______ _______ _______ _____ _____    ______ ____
ROOT
ATOM      1  C   UNL     1      27.404  23.189  24.323  0.00  0.00    +0.000 A 
ATOM      2  C   UNL     1      26.135  23.603  24.618  0.00  0.00    +0.000 A 
ATOM      3  C   UNL     1      25.780  23.791  25.935  0.00  0.00    +0.000 A 
ATOM      4  C   UNL     1      26.686  23.567  26.958  0.00  0.00    +0.000 A 
ATOM      5  C   UNL     1      27.971  23.147  26.648  0.00  0.00    +0.000 A 
ATOM      6  C   UNL     1      28.291  22.973  25.365  0.00  0.00    +0.000 A 
ENDROOT
BRANCH   4   7
ATOM      7  C   UNL     1      26.323  23.756  28.357  0.00  0.00    +0.000 A 
ATOM      8  C   UNL     1      25.912  24.865  29.040  0.00  0.00    +0.000 A 
ATOM      9  C   UNL     1      25.690  24.510  30.361  0.00  0.00    +0.000 A 
ATOM     10  N   UNL     1      25.258  25.313  31.451  0.00  0.00    +0.000 NA
ATOM     11  O   UNL     1      25.958  23.255  30.443  0.00  0.00    +0.000 OA
ATOM     12  N   UNL     1      26.339  22.750  29.281  0.00  0.00    +0.000 NA
ENDBRANCH   4   7
BRANCH   6  13
ATOM     13  C   UNL     1      29.746  22.506  24.899  0.00  0.00    +0.000 C 
ATOM     14  C   UNL     1      30.295  22.102  26.387  0.00  0.00    +0.000 C 
BRANCH  13  15
ATOM     15  C   UNL     1      30.403  24.037  24.988  0.00  0.00    +0.000 C 
ATOM     16  C   UNL     1      31.812  23.814  24.542  0.00  0.00    +0.000 C 
ENDBRANCH  13  15
ENDBRANCH   6  13
BRANCH   1  17
ATOM     17  O   UNL     1      27.790  22.991  23.009  0.00  0.00    +0.000 OA
BRANCH  17  19
ATOM     18  C   UNL     1      29.117  24.399  21.685  0.00  0.00    +0.000 C 
ATOM     19  C   UNL     1      27.689  24.002  22.027  0.00  0.00    +0.000 C 
ENDBRANCH  17  19
ENDBRANCH   1  17
TORSDOF 5
ENDMDL
MODEL 5
REMARK VINA RESULT:      -5.9     21.647     23.342
REMARK  Name = 
REMARK  5 active torsions:
REMARK  status: ('A' for Active; 'I' for Inactive)
REMARK    1  A    between atoms: C_2  and  O_3
REMARK    2  A    between atoms: O_3  and  C_4
REMARK    3  A    between atoms: C_7  and  C_8
REMARK    4  A    between atoms: C_15  and  C_16
REMARK    5  A    between atoms: C_16  and  C_18
REMARK                            x       y       z     vdW  Elec       q    Type
REMARK                         _______ _______ _______ _____ _____    ______ ____
ROOT
ATOM      1  C   UNL     1      23.761  -7.803  24.161  0.00  0.00    +0.000 A 
ATOM      2  C   UNL     1      23.328  -6.540  23.865  0.00  0.00    +0.000 A 
ATOM      3  C   UNL     1      22.122  -6.110  24.370  0.00  0.00    +0.000 A 
ATOM      4  C   UNL     1      21.347  -6.933  25.169  0.00  0.00    +0.000 A 
ATOM      5  C   UNL     1      21.795  -8.213  25.463  0.00  0.00    +0.000 A 
ATOM      6  C   UNL     1      22.968  -8.607  24.963  0.00  0.00    +0.000 A 
ENDROOT
BRANCH   4   7
ATOM      7  C   UNL     1      20.065  -6.494  25.705  0.00  0.00    +0.000 A 
ATOM      8  C   UNL     1      19.030  -7.195  26.254  0.00  0.00    +0.000 A 
ATOM      9  C   UNL     1      18.033  -6.301  26.612  0.00  0.00    +0.000 A 
ATOM     10  N   UNL     1      16.771  -6.550  27.213  0.00  0.00    +0.000 NA
ATOM     11  O   UNL     1      18.468  -5.135  26.288  0.00  0.00    +0.000 OA
ATOM     12  N   UNL     1      19.674  -5.186  25.744  0.00  0.00    +0.000 NA
ENDBRANCH   4   7
BRANCH   6  13
ATOM     13  C   UNL     1      23.582 -10.052  25.253  0.00  0.00    +0.000 C 
ATOM     14  C   UNL     1      22.579 -10.881  24.261  0.00  0.00    +0.000 C 
BRANCH  13  15
ATOM     15  C   UNL     1      22.620 -10.331  26.587  0.00  0.00    +0.000 C 
ATOM     16  C   UNL     1      22.216 -11.758  26.405  0.00  0.00    +0.000 C 
ENDBRANCH  13  15
ENDBRANCH   6  13
BRANCH   1  17
ATOM     17  O   UNL     1      24.969  -8.265  23.668  0.00  0.00    +0.000 OA
BRANCH  17  19
ATOM     18  C   UNL     1      27.163  -8.283  22.841  0.00  0.00    +0.000 C 
ATOM     19  C   UNL     1      25.982  -7.395  23.204  0.00  0.00    +0.000 C 
ENDBRANCH  17  19
ENDBRANCH   1  17
TORSDOF 5
ENDMDL
MODEL 6
REMARK VINA RESULT:      -5.8     17.827     19.634
REMARK  Name = 
REMARK  5 active torsions:
REMARK  status: ('A' for Active; 'I' for Inactive)
REMARK    1  A    between atoms: C_2  and  O_3
REMARK    2  A    between atoms: O_3  and  C_4
REMARK    3  A    between atoms: C_7  and  C_8
REMARK    4  A    between atoms: C_15  and  C_16
REMARK    5  A    between atoms: C_16  and  C_18
REMARK                            x       y       z     vdW  Elec       q    Type
REMARK                         _______ _______ _______ _____ _____    ______ ____
ROOT
ATOM      1  C   UNL     1      30.109  22.500  28.154  0.00  0.00    +0.000 A 
ATOM      2  C   UNL     1      30.543  22.292  26.874  0.00  0.00    +0.000 A 
ATOM      3  C   UNL     1      29.657  22.447  25.832  0.00  0.00    +0.000 A 
ATOM      4  C   UNL     1      28.341  22.809  26.061  0.00  0.00    +0.000 A 
ATOM      5  C   UNL     1      27.909  23.017  27.363  0.00  0.00    +0.000 A 
ATOM      6  C   UNL     1      28.787  22.862  28.356  0.00  0.00    +0.000 A 
ENDROOT
BRANCH   4   7
ATOM      7  C   UNL     1      27.390  22.970  24.968  0.00  0.00    +0.000 A 
ATOM      8  C   UNL     1      27.579  23.197  23.635  0.00  0.00    +0.000 A 
ATOM      9  C   UNL     1      26.339  23.270  23.020  0.00  0.00    +0.000 A 
ATOM     10  N   UNL     1      26.021  23.492  21.654  0.00  0.00    +0.000 NA
ATOM     11  O   UNL     1      25.469  23.094  23.952  0.00  0.00    +0.000 OA
ATOM     12  N   UNL     1      26.036  22.909  25.134  0.00  0.00    +0.000 NA
ENDBRANCH   4   7
BRANCH   6  13
ATOM     13  C   UNL     1      28.398  23.092  29.888  0.00  0.00    +0.000 C 
ATOM     14  C   UNL     1      27.100  22.095  29.901  0.00  0.00    +0.000 C 
BRANCH  13  15
ATOM     15  C   UNL     1      27.460  24.437  29.578  0.00  0.00    +0.000 C 
ATOM     16  C   UNL     1      26.221  24.159  30.367  0.00  0.00    +0.000 C 
ENDBRANCH  13  15
ENDBRANCH   6  13
BRANCH   1  17
ATOM     17  O   UNL     1      30.975  22.352  29.223  0.00  0.00    +0.000 OA
BRANCH  17  19
ATOM     18  C   UNL     1      33.137  21.526  29.597  0.00  0.00    +0.000 C 
ATOM     19  C   UNL     1      32.332  22.741  29.160  0.00  0.00    +0.000 C 
ENDBRANCH  17  19
ENDBRANCH   1  17
TORSDOF 5
ENDMDL
MODEL 7
REMARK VINA RESULT:      -5.6     19.140     21.246
REMARK  Name = 
REMARK  5 active torsions:
REMARK  status: ('A' for Active; 'I' for Inactive)
REMARK    1  A    between atoms: C_2  and  O_3
REMARK    2  A    between atoms: O_3  and  C_4
REMARK    3  A    between atoms: C_7  and  C_8
REMARK    4  A    between atoms: C_15  and  C_16
REMARK    5  A    between atoms: C_16  and  C_18
REMARK                            x       y       z     vdW  Elec       q    Type
REMARK                         _______ _______ _______ _____ _____    ______ ____
ROOT
ATOM      1  C   UNL     1      28.627  23.013  24.133  0.00  0.00    +0.000 A 
ATOM      2  C   UNL     1      29.946  22.660  24.204  0.00  0.00    +0.000 A 
ATOM      3  C   UNL     1      30.529  22.492  25.440  0.00  0.00    +0.000 A 
ATOM      4  C   UNL     1      29.802  22.673  26.603  0.00  0.00    +0.000 A 
ATOM      5  C   UNL     1      28.464  23.031  26.521  0.00  0.00    +0.000 A 
ATOM      6  C   UNL     1      27.921  23.187  25.312  0.00  0.00    +0.000 A 
ENDROOT
BRANCH   4   7
ATOM      7  C   UNL     1      30.408  22.505  27.919  0.00  0.00    +0.000 A 
ATOM      8  C   UNL     1      31.626  22.016  28.294  0.00  0.00    +0.000 A 
ATOM      9  C   UNL     1      31.716  22.071  29.676  0.00  0.00    +0.000 A 
ATOM     10  N   UNL     1      32.782  21.677  30.528  0.00  0.00    +0.000 NA
ATOM     11  O   UNL     1      30.603  22.569  30.086  0.00  0.00    +0.000 OA
ATOM     12  N   UNL     1      29.784  22.848  29.084  0.00  0.00    +0.000 NA
ENDBRANCH   4   7
BRANCH   6  13
ATOM     13  C   UNL     1      26.388  23.583  25.106  0.00  0.00    +0.000 C 
ATOM     14  C   UNL     1      26.613  25.204  25.112  0.00  0.00    +0.000 C 
BRANCH  13  15
ATOM     15  C   UNL     1      26.029  23.547  26.734  0.00  0.00    +0.000 C 
ATOM     16  C   UNL     1      25.133  24.733  26.897  0.00  0.00    +0.000 C 
ENDBRANCH  13  15
ENDBRANCH   6  13
BRANCH   1  17
ATOM     17  O   UNL     1      28.012  23.190  22.906  0.00  0.00    +0.000 OA
BRANCH  17  19
ATOM     18  C   UNL     1      27.659  25.099  21.590  0.00  0.00    +0.000 C 
ATOM     19  C   UNL     1      28.603  23.936  21.861  0.00  0.00    +0.000 C 
ENDBRANCH  17  19
ENDBRANCH   1  17
TORSDOF 5
ENDMDL
MODEL 8
REMARK VINA RESULT:      -5.6      3.127      5.151
REMARK  Name = 
REMARK  5 active torsions:
REMARK  status: ('A' for Active; 'I' for Inactive)
REMARK    1  A    between atoms: C_2  and  O_3
REMARK    2  A    between atoms: O_3  and  C_4
REMARK    3  A    between atoms: C_7  and  C_8
REMARK    4  A    between atoms: C_15  and  C_16
REMARK    5  A    between atoms: C_16  and  C_18
REMARK                            x       y       z     vdW  Elec       q    Type
REMARK                         _______ _______ _______ _____ _____    ______ ____
ROOT
ATOM      1  C   UNL     1      19.213   9.470  38.877  0.00  0.00    +0.000 A 
ATOM      2  C   UNL     1      19.273   9.965  37.603  0.00  0.00    +0.000 A 
ATOM      3  C   UNL     1      18.141  10.509  37.041  0.00  0.00    +0.000 A 
ATOM      4  C   UNL     1      16.949  10.563  37.743  0.00  0.00    +0.000 A 
ATOM      5  C   UNL     1      16.898  10.058  39.035  0.00  0.00    +0.000 A 
ATOM      6  C   UNL     1      18.009   9.537  39.558  0.00  0.00    +0.000 A 
ENDROOT
BRANCH   4   7
ATOM      7  C   UNL     1      15.741  11.130  37.159  0.00  0.00    +0.000 A 
ATOM      8  C   UNL     1      14.519  11.404  37.704  0.00  0.00    +0.000 A 
ATOM      9  C   UNL     1      13.708  11.943  36.718  0.00  0.00    +0.000 A 
ATOM     10  N   UNL     1      12.359  12.381  36.798  0.00  0.00    +0.000 NA
ATOM     11  O   UNL     1      14.424  11.982  35.649  0.00  0.00    +0.000 OA
ATOM     12  N   UNL     1      15.644  11.511  35.851  0.00  0.00    +0.000 NA
ENDBRANCH   4   7
BRANCH   6  13
ATOM     13  C   UNL     1      18.062   8.944  41.040  0.00  0.00    +0.000 C 
ATOM     14  C   UNL     1      17.557   7.436  40.654  0.00  0.00    +0.000 C 
BRANCH  13  15
ATOM     15  C   UNL     1      16.519   9.445  41.431  0.00  0.00    +0.000 C 
ATOM     16  C   UNL     1      15.911   8.208  42.007  0.00  0.00    +0.000 C 
ENDBRANCH  13  15
ENDBRANCH   6  13
BRANCH   1  17
ATOM     17  O   UNL     1      20.334   8.916  39.469  0.00  0.00    +0.000 OA
BRANCH  17  19
ATOM     18  C   UNL     1      22.588   8.469  39.935  0.00  0.00    +0.000 C 
ATOM     19  C   UNL     1      21.624   9.474  39.323  0.00  0.00    +0.000 C 
ENDBRANCH  17  19
ENDBRANCH   1  17
TORSDOF 5
ENDMDL
MODEL 9
REMARK VINA RESULT:      -5.6     20.926     22.619
REMARK  Name = 
REMARK  5 active torsions:
REMARK  status: ('A' for Active; 'I' for Inactive)
REMARK    1  A    between atoms: C_2  and  O_3
REMARK    2  A    between atoms: O_3  and  C_4
REMARK    3  A    between atoms: C_7  and  C_8
REMARK    4  A    between atoms: C_15  and  C_16
REMARK    5  A    between atoms: C_16  and  C_18
REMARK                            x       y       z     vdW  Elec       q    Type
REMARK                         _______ _______ _______ _____ _____    ______ ____
ROOT
ATOM      1  C   UNL     1      31.616  23.000  27.225  0.00  0.00    +0.000 A 
ATOM      2  C   UNL     1      30.454  22.288  27.107  0.00  0.00    +0.000 A 
ATOM      3  C   UNL     1      29.683  22.446  25.978  0.00  0.00    +0.000 A 
ATOM      4  C   UNL     1      30.065  23.311  24.967  0.00  0.00    +0.000 A 
ATOM      5  C   UNL     1      31.245  24.029  25.096  0.00  0.00    +0.000 A 
ATOM      6  C   UNL     1      31.976  23.858  26.199  0.00  0.00    +0.000 A 
ENDROOT
BRANCH   4   7
ATOM      7  C   UNL     1      29.255  23.493  23.769  0.00  0.00    +0.000 A 
ATOM      8  C   UNL     1      27.923  23.295  23.542  0.00  0.00    +0.000 A 
ATOM      9  C   UNL     1      27.648  23.620  22.224  0.00  0.00    +0.000 A 
ATOM     10  N   UNL     1      26.413  23.575  21.522  0.00  0.00    +0.000 NA
ATOM     11  O   UNL     1      28.766  23.990  21.707  0.00  0.00    +0.000 OA
ATOM     12  N   UNL     1      29.760  23.936  22.580  0.00  0.00    +0.000 NA
ENDBRANCH   4   7
BRANCH   6  13
ATOM     13  C   UNL     1      33.357  24.623  26.440  0.00  0.00    +0.000 C 
ATOM     14  C   UNL     1      32.739  26.138  26.385  0.00  0.00    +0.000 C 
BRANCH  13  15
ATOM     15  C   UNL     1      33.770  24.649  24.824  0.00  0.00    +0.000 C 
ATOM     16  C   UNL     1      34.747  25.777  24.755  0.00  0.00    +0.000 C 
ENDBRANCH  13  15
ENDBRANCH   6  13
BRANCH   1  17
ATOM     17  O   UNL     1      32.412  22.863  28.348  0.00  0.00    +0.000 OA
BRANCH  17  19
ATOM     18  C   UNL     1      33.505  21.521  29.931  0.00  0.00    +0.000 C 
ATOM     19  C   UNL     1      32.150  21.904  29.353  0.00  0.00    +0.000 C 
ENDBRANCH  17  19
ENDBRANCH   1  17
TORSDOF 5
ENDMDL
MODEL 10
REMARK VINA RESULT:      -5.6      4.417      6.414
REMARK  Name = 
REMARK  5 active torsions:
REMARK  status: ('A' for Active; 'I' for Inactive)
REMARK    1  A    between atoms: C_2  and  O_3
REMARK    2  A    between atoms: O_3  and  C_4
REMARK    3  A    between atoms: C_7  and  C_8
REMARK    4  A    between atoms: C_15  and  C_16
REMARK    5  A    between atoms: C_16  and  C_18
REMARK                            x       y       z     vdW  Elec       q    Type
REMARK                         _______ _______ _______ _____ _____    ______ ____
ROOT
ATOM      1  C   UNL     1      20.803  10.579  37.289  0.00  0.00    +0.000 A 
ATOM      2  C   UNL     1      20.020   9.635  36.684  0.00  0.00    +0.000 A 
ATOM      3  C   UNL     1      18.652   9.785  36.707  0.00  0.00    +0.000 A 
ATOM      4  C   UNL     1      18.062  10.870  37.331  0.00  0.00    +0.000 A 
ATOM      5  C   UNL     1      18.865  11.822  37.943  0.00  0.00    +0.000 A 
ATOM      6  C   UNL     1      20.188  11.656  37.906  0.00  0.00    +0.000 A 
ENDROOT
BRANCH   4   7
ATOM      7  C   UNL     1      16.615  11.038  37.370  0.00  0.00    +0.000 A 
ATOM      8  C   UNL     1      15.702  10.773  38.351  0.00  0.00    +0.000 A 
ATOM      9  C   UNL     1      14.443  11.114  37.885  0.00  0.00    +0.000 A 
ATOM     10  N   UNL     1      13.184  11.020  38.535  0.00  0.00    +0.000 NA
ATOM     11  O   UNL     1      14.613  11.557  36.690  0.00  0.00    +0.000 OA
ATOM     12  N   UNL     1      15.886  11.537  36.328  0.00  0.00    +0.000 NA
ENDBRANCH   4   7
BRANCH   6  13
ATOM     13  C   UNL     1      21.202  12.699  38.565  0.00  0.00    +0.000 C 
ATOM     14  C   UNL     1      20.968  12.230  40.115  0.00  0.00    +0.000 C 
BRANCH  13  15
ATOM     15  C   UNL     1      20.069  13.919  38.680  0.00  0.00    +0.000 C 
ATOM     16  C   UNL     1      20.908  15.113  39.001  0.00  0.00    +0.000 C 
ENDBRANCH  13  15
ENDBRANCH   6  13
BRANCH   1  17
ATOM     17  O   UNL     1      22.182  10.457  37.283  0.00  0.00    +0.000 OA
BRANCH  17  19
ATOM     18  C   UNL     1      24.207  10.926  36.199  0.00  0.00    +0.000 C 
ATOM     19  C   UNL     1      22.910  10.135  36.115  0.00  0.00    +0.000 C 
ENDBRANCH  17  19
ENDBRANCH   1  17
TORSDOF 5
ENDMDL
