MODEL 1
REMARK VINA RESULT:      -7.2      0.000      0.000
REMARK  Name = 
REMARK  2 active torsions:
REMARK  status: ('A' for Active; 'I' for Inactive)
REMARK    1  A    between atoms: C_7  and  N_8
REMARK    2  A    between atoms: C_9  and  C_11
REMARK                            x       y       z     vdW  Elec       q    Type
REMARK                         _______ _______ _______ _____ _____    ______ ____
ROOT
ATOM      1  N   UNL     1      17.274  11.725  36.409  0.00  0.00    +0.000 NA
ATOM      2  C   UNL     1      15.941  11.649  36.134  0.00  0.00    +0.000 C 
ATOM      3  O   UNL     1      15.106  11.220  36.957  0.00  0.00    +0.000 OA
ENDROOT
BRANCH   2   4
ATOM      4  C   UNL     1      15.446  12.075  34.838  0.00  0.00    +0.000 A 
ATOM      5  N   UNL     1      14.608  13.062  34.517  0.00  0.00    +0.000 NA
ATOM      6  C   UNL     1      14.421  13.094  33.171  0.00  0.00    +0.000 A 
ATOM      7  C   UNL     1      13.691  13.862  32.309  0.00  0.00    +0.000 A 
ATOM      8  C   UNL     1      13.717  13.622  30.949  0.00  0.00    +0.000 A 
ATOM      9  C   UNL     1      14.486  12.600  30.463  0.00  0.00    +0.000 A 
ATOM     10  C   UNL     1      15.247  11.791  31.296  0.00  0.00    +0.000 A 
ATOM     11  C   UNL     1      15.175  12.086  32.643  0.00  0.00    +0.000 A 
ATOM     12  N   UNL     1      15.783  11.487  33.676  0.00  0.00    +0.000 NA
ENDBRANCH   2   4
BRANCH   1  19
ATOM     13  C   UNL     1      18.261   9.035  36.981  0.00  0.00    +0.000 C 
ATOM     14  C   UNL     1      19.136  10.409  37.073  0.00  0.00    +0.000 C 
ATOM     15  C   UNL     1      19.765   9.973  38.525  0.00  0.00    +0.000 C 
ATOM     16  C   UNL     1      20.276  11.244  39.145  0.00  0.00    +0.000 C 
ATOM     17  C   UNL     1      20.140  12.378  38.178  0.00  0.00    +0.000 C 
ATOM     18  C   UNL     1      18.735  12.674  37.879  0.00  0.00    +0.000 C 
ATOM     19  C   UNL     1      17.869  11.290  37.771  0.00  0.00    +0.000 C 
ENDBRANCH   1  19
TORSDOF 2
ENDMDL
MODEL 2
REMARK VINA RESULT:      -7.0      1.812      2.577
REMARK  Name = 
REMARK  2 active torsions:
REMARK  status: ('A' for Active; 'I' for Inactive)
REMARK    1  A    between atoms: C_7  and  N_8
REMARK    2  A    between atoms: C_9  and  C_11
REMARK                            x       y       z     vdW  Elec       q    Type
REMARK                         _______ _______ _______ _____ _____    ______ ____
ROOT
ATOM      1  N   UNL     1      18.041  10.008  36.514  0.00  0.00    +0.000 NA
ATOM      2  C   UNL     1      17.658   9.473  35.319  0.00  0.00    +0.000 C 
ATOM      3  O   UNL     1      17.893   8.289  35.005  0.00  0.00    +0.000 OA
ENDROOT
BRANCH   2   4
ATOM      4  C   UNL     1      16.950  10.295  34.355  0.00  0.00    +0.000 A 
ATOM      5  N   UNL     1      17.088  10.384  33.031  0.00  0.00    +0.000 NA
ATOM      6  C   UNL     1      16.209  11.293  32.532  0.00  0.00    +0.000 A 
ATOM      7  C   UNL     1      15.916  11.781  31.290  0.00  0.00    +0.000 A 
ATOM      8  C   UNL     1      14.936  12.739  31.118  0.00  0.00    +0.000 A 
ATOM      9  C   UNL     1      14.252  13.203  32.209  0.00  0.00    +0.000 A 
ATOM     10  C   UNL     1      14.512  12.740  33.492  0.00  0.00    +0.000 A 
ATOM     11  C   UNL     1      15.503  11.783  33.592  0.00  0.00    +0.000 A 
ATOM     12  N   UNL     1      15.973  11.161  34.681  0.00  0.00    +0.000 NA
ENDBRANCH   2   4
BRANCH   1  19
ATOM     13  C   UNL     1      20.952   9.876  36.725  0.00  0.00    +0.000 C 
ATOM     14  C   UNL     1      19.936  10.405  37.888  0.00  0.00    +0.000 C 
ATOM     15  C   UNL     1      20.715   9.531  39.038  0.00  0.00    +0.000 C 
ATOM     16  C   UNL     1      19.747   9.410  40.182  0.00  0.00    +0.000 C 
ATOM     17  C   UNL     1      18.519  10.221  39.904  0.00  0.00    +0.000 C 
ATOM     18  C   UNL     1      17.771   9.699  38.756  0.00  0.00    +0.000 C 
ATOM     19  C   UNL     1      18.797   9.188  37.588  0.00  0.00    +0.000 C 
ENDBRANCH   1  19
TORSDOF 2
ENDMDL
MODEL 3
REMARK VINA RESULT:      -6.5     28.434     31.011
REMARK  Name = 
REMARK  2 active torsions:
REMARK  status: ('A' for Active; 'I' for Inactive)
REMARK    1  A    between atoms: C_7  and  N_8
REMARK    2  A    between atoms: C_9  and  C_11
REMARK                            x       y       z     vdW  Elec       q    Type
REMARK                         _______ _______ _______ _____ _____    ______ ____
ROOT
ATOM      1  N   UNL     1      31.069  21.188   8.880  0.00  0.00    +0.000 NA
ATOM      2  C   UNL     1      31.166  21.034  10.231  0.00  0.00    +0.000 C 
ATOM      3  O   UNL     1      31.993  20.267  10.765  0.00  0.00    +0.000 OA
ENDROOT
BRANCH   2   4
ATOM      4  C   UNL     1      30.280  21.779  11.107  0.00  0.00    +0.000 A 
ATOM      5  N   UNL     1      30.542  22.451  12.230  0.00  0.00    +0.000 NA
ATOM      6  C   UNL     1      29.398  22.995  12.723  0.00  0.00    +0.000 A 
ATOM      7  C   UNL     1      29.075  23.756  13.811  0.00  0.00    +0.000 A 
ATOM      8  C   UNL     1      27.772  24.153  14.035  0.00  0.00    +0.000 A 
ATOM      9  C   UNL     1      26.794  23.777  13.154  0.00  0.00    +0.000 A 
ATOM     10  C   UNL     1      27.071  23.006  12.034  0.00  0.00    +0.000 A 
ATOM     11  C   UNL     1      28.393  22.644  11.870  0.00  0.00    +0.000 A 
ATOM     12  N   UNL     1      28.957  21.908  10.902  0.00  0.00    +0.000 NA
ENDBRANCH   2   4
BRANCH   1  19
ATOM     13  C   UNL     1      30.085  19.476   6.727  0.00  0.00    +0.000 C 
ATOM     14  C   UNL     1      31.029  20.793   6.538  0.00  0.00    +0.000 C 
ATOM     15  C   UNL     1      32.019  19.999   5.499  0.00  0.00    +0.000 C 
ATOM     16  C   UNL     1      33.300  20.785   5.476  0.00  0.00    +0.000 C 
ATOM     17  C   UNL     1      33.152  22.034   6.288  0.00  0.00    +0.000 C 
ATOM     18  C   UNL     1      32.947  21.738   7.709  0.00  0.00    +0.000 C 
ATOM     19  C   UNL     1      31.984  20.427   7.889  0.00  0.00    +0.000 C 
ENDBRANCH   1  19
TORSDOF 2
ENDMDL
MODEL 4
REMARK VINA RESULT:      -6.5      3.095      4.238
REMARK  Name = 
REMARK  2 active torsions:
REMARK  status: ('A' for Active; 'I' for Inactive)
REMARK    1  A    between atoms: C_7  and  N_8
REMARK    2  A    between atoms: C_9  and  C_11
REMARK                            x       y       z     vdW  Elec       q    Type
REMARK                         _______ _______ _______ _____ _____    ______ ____
ROOT
ATOM      1  N   UNL     1      17.438   9.295  39.113  0.00  0.00    +0.000 NA
ATOM      2  C   UNL     1      17.940  10.323  38.371  0.00  0.00    +0.000 C 
ATOM      3  O   UNL     1      18.911  11.012  38.743  0.00  0.00    +0.000 OA
ENDROOT
BRANCH   2   4
ATOM      4  C   UNL     1      17.335  10.653  37.093  0.00  0.00    +0.000 A 
ATOM      5  N   UNL     1      16.275  11.411  36.810  0.00  0.00    +0.000 NA
ATOM      6  C   UNL     1      16.066  11.436  35.467  0.00  0.00    +0.000 A 
ATOM      7  C   UNL     1      15.156  12.025  34.636  0.00  0.00    +0.000 A 
ATOM      8  C   UNL     1      15.220  11.839  33.270  0.00  0.00    +0.000 A 
ATOM      9  C   UNL     1      16.210  11.054  32.744  0.00  0.00    +0.000 A 
ATOM     10  C   UNL     1      17.159  10.434  33.545  0.00  0.00    +0.000 A 
ATOM     11  C   UNL     1      17.037  10.662  34.901  0.00  0.00    +0.000 A 
ATOM     12  N   UNL     1      17.790  10.201  35.910  0.00  0.00    +0.000 NA
ENDBRANCH   2   4
BRANCH   1  19
ATOM     13  C   UNL     1      15.990   9.458  41.645  0.00  0.00    +0.000 C 
ATOM     14  C   UNL     1      16.628   8.102  40.999  0.00  0.00    +0.000 C 
ATOM     15  C   UNL     1      17.283   7.663  42.438  0.00  0.00    +0.000 C 
ATOM     16  C   UNL     1      18.360   6.668  42.108  0.00  0.00    +0.000 C 
ATOM     17  C   UNL     1      18.346   6.361  40.643  0.00  0.00    +0.000 C 
ATOM     18  C   UNL     1      18.695   7.536  39.838  0.00  0.00    +0.000 C 
ATOM     19  C   UNL     1      18.036   8.889  40.482  0.00  0.00    +0.000 C 
ENDBRANCH   1  19
TORSDOF 2
ENDMDL
MODEL 5
REMARK VINA RESULT:      -6.4      1.295      2.085
REMARK  Name = 
REMARK  2 active torsions:
REMARK  status: ('A' for Active; 'I' for Inactive)
REMARK    1  A    between atoms: C_7  and  N_8
REMARK    2  A    between atoms: C_9  and  C_11
REMARK                            x       y       z     vdW  Elec       q    Type
REMARK                         _______ _______ _______ _____ _____    ______ ____
ROOT
ATOM      1  N   UNL     1      18.409  11.794  36.978  0.00  0.00    +0.000 NA
ATOM      2  C   UNL     1      17.205  11.220  36.694  0.00  0.00    +0.000 C 
ATOM      3  O   UNL     1      16.512  10.644  37.557  0.00  0.00    +0.000 OA
ENDROOT
BRANCH   2   4
ATOM      4  C   UNL     1      16.687  11.264  35.339  0.00  0.00    +0.000 A 
ATOM      5  N   UNL     1      17.003  10.531  34.270  0.00  0.00    +0.000 NA
ATOM      6  C   UNL     1      16.262  10.924  33.201  0.00  0.00    +0.000 A 
ATOM      7  C   UNL     1      16.169  10.545  31.891  0.00  0.00    +0.000 A 
ATOM      8  C   UNL     1      15.288  11.173  31.033  0.00  0.00    +0.000 A 
ATOM      9  C   UNL     1      14.501  12.189  31.504  0.00  0.00    +0.000 A 
ATOM     10  C   UNL     1      14.557  12.611  32.825  0.00  0.00    +0.000 A 
ATOM     11  C   UNL     1      15.458  11.940  33.628  0.00  0.00    +0.000 A 
ATOM     12  N   UNL     1      15.738  12.123  34.926  0.00  0.00    +0.000 NA
ENDBRANCH   2   4
BRANCH   1  19
ATOM     13  C   UNL     1      19.984   9.590  38.073  0.00  0.00    +0.000 C 
ATOM     14  C   UNL     1      20.496  11.130  37.896  0.00  0.00    +0.000 C 
ATOM     15  C   UNL     1      21.133  11.145  39.408  0.00  0.00    +0.000 C 
ATOM     16  C   UNL     1      21.289  12.597  39.769  0.00  0.00    +0.000 C 
ATOM     17  C   UNL     1      20.934  13.459  38.597  0.00  0.00    +0.000 C 
ATOM     18  C   UNL     1      19.517  13.336  38.240  0.00  0.00    +0.000 C 
ATOM     19  C   UNL     1      19.018  11.786  38.402  0.00  0.00    +0.000 C 
ENDBRANCH   1  19
TORSDOF 2
ENDMDL
MODEL 6
REMARK VINA RESULT:      -6.3      3.068      7.689
REMARK  Name = 
REMARK  2 active torsions:
REMARK  status: ('A' for Active; 'I' for Inactive)
REMARK    1  A    between atoms: C_7  and  N_8
REMARK    2  A    between atoms: C_9  and  C_11
REMARK                            x       y       z     vdW  Elec       q    Type
REMARK                         _______ _______ _______ _____ _____    ______ ____
ROOT
ATOM      1  N   UNL     1      18.405  10.573  35.884  0.00  0.00    +0.000 NA
ATOM      2  C   UNL     1      18.991   9.880  36.902  0.00  0.00    +0.000 C 
ATOM      3  O   UNL     1      18.349   9.124  37.659  0.00  0.00    +0.000 OA
ENDROOT
BRANCH   2   4
ATOM      4  C   UNL     1      20.417  10.012  37.138  0.00  0.00    +0.000 A 
ATOM      5  N   UNL     1      21.075  10.569  38.156  0.00  0.00    +0.000 NA
ATOM      6  C   UNL     1      22.415  10.467  37.954  0.00  0.00    +0.000 A 
ATOM      7  C   UNL     1      23.533  10.851  38.640  0.00  0.00    +0.000 A 
ATOM      8  C   UNL     1      24.794  10.592  38.141  0.00  0.00    +0.000 A 
ATOM      9  C   UNL     1      24.922   9.941  36.944  0.00  0.00    +0.000 A 
ATOM     10  C   UNL     1      23.818   9.530  36.209  0.00  0.00    +0.000 A 
ATOM     11  C   UNL     1      22.589   9.821  36.765  0.00  0.00    +0.000 A 
ATOM     12  N   UNL     1      21.362   9.558  36.295  0.00  0.00    +0.000 NA
ENDBRANCH   2   4
BRANCH   1  19
ATOM     13  C   UNL     1      16.401  12.425  36.926  0.00  0.00    +0.000 C 
ATOM     14  C   UNL     1      16.708  12.145  35.348  0.00  0.00    +0.000 C 
ATOM     15  C   UNL     1      15.109  12.024  35.005  0.00  0.00    +0.000 C 
ATOM     16  C   UNL     1      15.028  11.294  33.692  0.00  0.00    +0.000 C 
ATOM     17  C   UNL     1      16.403  11.072  33.143  0.00  0.00    +0.000 C 
ATOM     18  C   UNL     1      17.192  10.176  33.995  0.00  0.00    +0.000 C 
ATOM     19  C   UNL     1      16.891  10.477  35.575  0.00  0.00    +0.000 C 
ENDBRANCH   1  19
TORSDOF 2
ENDMDL
MODEL 7
REMARK VINA RESULT:      -6.2      5.821      7.554
REMARK  Name = 
REMARK  2 active torsions:
REMARK  status: ('A' for Active; 'I' for Inactive)
REMARK    1  A    between atoms: C_7  and  N_8
REMARK    2  A    between atoms: C_9  and  C_11
REMARK                            x       y       z     vdW  Elec       q    Type
REMARK                         _______ _______ _______ _____ _____    ______ ____
ROOT
ATOM      1  N   UNL     1      21.123  10.104  37.996  0.00  0.00    +0.000 NA
ATOM      2  C   UNL     1      19.838   9.785  37.667  0.00  0.00    +0.000 C 
ATOM      3  O   UNL     1      19.381   9.931  36.516  0.00  0.00    +0.000 OA
ENDROOT
BRANCH   2   4
ATOM      4  C   UNL     1      18.945   9.253  38.680  0.00  0.00    +0.000 A 
ATOM      5  N   UNL     1      18.973   8.087  39.329  0.00  0.00    +0.000 NA
ATOM      6  C   UNL     1      17.927   8.012  40.194  0.00  0.00    +0.000 A 
ATOM      7  C   UNL     1      17.468   7.082  41.084  0.00  0.00    +0.000 A 
ATOM      8  C   UNL     1      16.332   7.320  41.832  0.00  0.00    +0.000 A 
ATOM      9  C   UNL     1      15.661   8.502  41.679  0.00  0.00    +0.000 A 
ATOM     10  C   UNL     1      16.087   9.479  40.789  0.00  0.00    +0.000 A 
ATOM     11  C   UNL     1      17.228   9.177  40.073  0.00  0.00    +0.000 A 
ATOM     12  N   UNL     1      17.868   9.908  39.149  0.00  0.00    +0.000 NA
ENDBRANCH   2   4
BRANCH   1  19
ATOM     13  C   UNL     1      22.757  12.484  38.443  0.00  0.00    +0.000 C 
ATOM     14  C   UNL     1      23.323  10.987  38.124  0.00  0.00    +0.000 C 
ATOM     15  C   UNL     1      24.385  11.569  37.016  0.00  0.00    +0.000 C 
ATOM     16  C   UNL     1      24.766  10.393  36.160  0.00  0.00    +0.000 C 
ATOM     17  C   UNL     1      24.152   9.141  36.705  0.00  0.00    +0.000 C 
ATOM     18  C   UNL     1      22.688   9.173  36.625  0.00  0.00    +0.000 C 
ATOM     19  C   UNL     1      22.129  10.673  36.965  0.00  0.00    +0.000 C 
ENDBRANCH   1  19
TORSDOF 2
ENDMDL
MODEL 8
REMARK VINA RESULT:      -6.2     21.970     22.869
REMARK  Name = 
REMARK  2 active torsions:
REMARK  status: ('A' for Active; 'I' for Inactive)
REMARK    1  A    between atoms: C_7  and  N_8
REMARK    2  A    between atoms: C_9  and  C_11
REMARK                            x       y       z     vdW  Elec       q    Type
REMARK                         _______ _______ _______ _____ _____    ______ ____
ROOT
ATOM      1  N   UNL     1      29.460  24.256  23.217  0.00  0.00    +0.000 NA
ATOM      2  C   UNL     1      29.028  24.342  21.927  0.00  0.00    +0.000 C 
ATOM      3  O   UNL     1      28.431  23.409  21.352  0.00  0.00    +0.000 OA
ENDROOT
BRANCH   2   4
ATOM      4  C   UNL     1      29.260  25.557  21.168  0.00  0.00    +0.000 A 
ATOM      5  N   UNL     1      29.006  26.830  21.478  0.00  0.00    +0.000 NA
ATOM      6  C   UNL     1      29.388  27.642  20.457  0.00  0.00    +0.000 A 
ATOM      7  C   UNL     1      29.365  28.988  20.226  0.00  0.00    +0.000 A 
ATOM      8  C   UNL     1      29.841  29.512  19.041  0.00  0.00    +0.000 A 
ATOM      9  C   UNL     1      30.342  28.668  18.087  0.00  0.00    +0.000 A 
ATOM     10  C   UNL     1      30.388  27.293  18.273  0.00  0.00    +0.000 A 
ATOM     11  C   UNL     1      29.897  26.837  19.480  0.00  0.00    +0.000 A 
ATOM     12  N   UNL     1      29.806  25.581  19.939  0.00  0.00    +0.000 NA
ENDBRANCH   2   4
BRANCH   1  19
ATOM     13  C   UNL     1      31.584  22.898  24.694  0.00  0.00    +0.000 C 
ATOM     14  C   UNL     1      30.232  23.539  25.346  0.00  0.00    +0.000 C 
ATOM     15  C   UNL     1      29.977  22.201  26.260  0.00  0.00    +0.000 C 
ATOM     16  C   UNL     1      28.527  22.250  26.658  0.00  0.00    +0.000 C 
ATOM     17  C   UNL     1      27.910  23.532  26.192  0.00  0.00    +0.000 C 
ATOM     18  C   UNL     1      27.875  23.619  24.728  0.00  0.00    +0.000 C 
ATOM     19  C   UNL     1      29.243  22.991  24.085  0.00  0.00    +0.000 C 
ENDBRANCH   1  19
TORSDOF 2
ENDMDL
MODEL 9
REMARK VINA RESULT:      -6.1      5.973      7.472
REMARK  Name = 
REMARK  2 active torsions:
REMARK  status: ('A' for Active; 'I' for Inactive)
REMARK    1  A    between atoms: C_7  and  N_8
REMARK    2  A    between atoms: C_9  and  C_11
REMARK                            x       y       z     vdW  Elec       q    Type
REMARK                         _______ _______ _______ _____ _____    ______ ____
ROOT
ATOM      1  N   UNL     1      18.994   8.968  39.332  0.00  0.00    +0.000 NA
ATOM      2  C   UNL     1      19.289   9.425  38.082  0.00  0.00    +0.000 C 
ATOM      3  O   UNL     1      18.484   9.357  37.131  0.00  0.00    +0.000 OA
ENDROOT
BRANCH   2   4
ATOM      4  C   UNL     1      20.589  10.016  37.818  0.00  0.00    +0.000 A 
ATOM      5  N   UNL     1      21.266  10.946  38.494  0.00  0.00    +0.000 NA
ATOM      6  C   UNL     1      22.449  11.201  37.875  0.00  0.00    +0.000 A 
ATOM      7  C   UNL     1      23.508  12.032  38.107  0.00  0.00    +0.000 A 
ATOM      8  C   UNL     1      24.592  12.055  37.252  0.00  0.00    +0.000 A 
ATOM      9  C   UNL     1      24.602  11.231  36.158  0.00  0.00    +0.000 A 
ATOM     10  C   UNL     1      23.552  10.368  35.879  0.00  0.00    +0.000 A 
ATOM     11  C   UNL     1      22.501  10.396  36.774  0.00  0.00    +0.000 A 
ATOM     12  N   UNL     1      21.361   9.691  36.766  0.00  0.00    +0.000 NA
ENDBRANCH   2   4
BRANCH   1  19
ATOM     13  C   UNL     1      18.666   6.234  40.307  0.00  0.00    +0.000 C 
ATOM     14  C   UNL     1      18.201   7.586  41.093  0.00  0.00    +0.000 C 
ATOM     15  C   UNL     1      16.741   6.932  41.460  0.00  0.00    +0.000 C 
ATOM     16  C   UNL     1      15.847   8.094  41.794  0.00  0.00    +0.000 C 
ATOM     17  C   UNL     1      16.636   9.366  41.792  0.00  0.00    +0.000 C 
ATOM     18  C   UNL     1      17.145   9.689  40.455  0.00  0.00    +0.000 C 
ATOM     19  C   UNL     1      17.627   8.329  39.683  0.00  0.00    +0.000 C 
ENDBRANCH   1  19
TORSDOF 2
ENDMDL
MODEL 10
REMARK VINA RESULT:      -6.0     19.819     21.812
REMARK  Name = 
REMARK  2 active torsions:
REMARK  status: ('A' for Active; 'I' for Inactive)
REMARK    1  A    between atoms: C_7  and  N_8
REMARK    2  A    between atoms: C_9  and  C_11
REMARK                            x       y       z     vdW  Elec       q    Type
REMARK                         _______ _______ _______ _____ _____    ______ ____
ROOT
ATOM      1  N   UNL     1      22.486   2.751  17.140  0.00  0.00    +0.000 NA
ATOM      2  C   UNL     1      23.579   2.809  17.955  0.00  0.00    +0.000 C 
ATOM      3  O   UNL     1      23.777   1.991  18.876  0.00  0.00    +0.000 OA
ENDROOT
BRANCH   2   4
ATOM      4  C   UNL     1      24.565   3.857  17.764  0.00  0.00    +0.000 A 
ATOM      5  N   UNL     1      24.761   4.679  16.733  0.00  0.00    +0.000 NA
ATOM      6  C   UNL     1      25.811   5.504  16.989  0.00  0.00    +0.000 A 
ATOM      7  C   UNL     1      26.444   6.509  16.314  0.00  0.00    +0.000 A 
ATOM      8  C   UNL     1      27.523   7.167  16.872  0.00  0.00    +0.000 A 
ATOM      9  C   UNL     1      27.960   6.804  18.117  0.00  0.00    +0.000 A 
ATOM     10  C   UNL     1      27.351   5.790  18.844  0.00  0.00    +0.000 A 
ATOM     11  C   UNL     1      26.279   5.175  18.228  0.00  0.00    +0.000 A 
ATOM     12  N   UNL     1      25.505   4.175  18.672  0.00  0.00    +0.000 NA
ENDBRANCH   2   4
BRANCH   1  19
ATOM     13  C   UNL     1      19.878   3.193  18.378  0.00  0.00    +0.000 C 
ATOM     14  C   UNL     1      20.131   2.693  16.846  0.00  0.00    +0.000 C 
ATOM     15  C   UNL     1      18.992   1.520  16.986  0.00  0.00    +0.000 C 
ATOM     16  C   UNL     1      19.284   0.535  15.888  0.00  0.00    +0.000 C 
ATOM     17  C   UNL     1      20.394   1.046  15.022  0.00  0.00    +0.000 C 
ATOM     18  C   UNL     1      21.660   1.138  15.757  0.00  0.00    +0.000 C 
ATOM     19  C   UNL     1      21.398   1.659  17.286  0.00  0.00    +0.000 C 
ENDBRANCH   1  19
TORSDOF 2
ENDMDL
