MODEL 1
REMARK VINA RESULT:      -5.7      0.000      0.000
REMARK  Name = 
REMARK  5 active torsions:
REMARK  status: ('A' for Active; 'I' for Inactive)
REMARK    1  A    between atoms: N_6  and  C_7
REMARK    2  A    between atoms: C_7  and  N_9
REMARK    3  A    between atoms: N_9  and  C_10
REMARK    4  A    between atoms: C_10  and  C_11
REMARK    5  A    between atoms: C_11  and  C_12
REMARK                            x       y       z     vdW  Elec       q    Type
REMARK                         _______ _______ _______ _____ _____    ______ ____
ROOT
ATOM      1  C   UNL     1      32.520  20.641  10.194  0.00  0.00    +0.000 C 
ATOM      2  S   UNL     1      32.933  20.828   8.643  0.00  0.00    +0.000 S 
ENDROOT
BRANCH   1   8
ATOM      3  O   UNL     1      30.682  20.948  12.953  0.00  0.00    +0.000 OA
ATOM      4  C   UNL     1      30.656  22.438  12.752  0.00  0.00    +0.000 C 
ATOM      5  C   UNL     1      29.164  22.450  12.113  0.00  0.00    +0.000 C 
ATOM      6  C   UNL     1      29.059  21.817  10.841  0.00  0.00    +0.000 C 
ATOM      7  C   UNL     1      30.004  20.754  10.425  0.00  0.00    +0.000 C 
ATOM      8  N   UNL     1      31.351  21.280  10.636  0.00  0.00    +0.000 N 
ATOM      9  C   UNL     1      31.429  22.494  11.322  0.00  0.00    +0.000 C 
ENDBRANCH   1   8
BRANCH   1  10
ATOM     10  N   UNL     1      33.306  19.865  11.042  0.00  0.00    +0.000 NA
BRANCH  10  11
ATOM     11  C   UNL     1      34.157  20.350  12.116  0.00  0.00    +0.000 C 
BRANCH  11  12
ATOM     12  C   UNL     1      35.435  19.546  11.992  0.00  0.00    +0.000 C 
BRANCH  12  13
ATOM     13  C   UNL     1      36.083  19.249  13.282  0.00  0.00    +0.000 A 
ATOM     14  C   UNL     1      36.853  20.243  13.926  0.00  0.00    +0.000 A 
ATOM     15  C   UNL     1      37.430  19.934  15.133  0.00  0.00    +0.000 A 
ATOM     16  C   UNL     1      37.320  18.737  15.769  0.00  0.00    +0.000 A 
ATOM     17  C   UNL     1      36.557  17.742  15.139  0.00  0.00    +0.000 A 
ATOM     18  C   UNL     1      35.985  18.053  13.937  0.00  0.00    +0.000 A 
ENDBRANCH  12  13
ENDBRANCH  11  12
ENDBRANCH  10  11
ENDBRANCH   1  10
TORSDOF 5
ENDMDL
MODEL 2
REMARK VINA RESULT:      -5.6     21.886     24.119
REMARK  Name = 
REMARK  5 active torsions:
REMARK  status: ('A' for Active; 'I' for Inactive)
REMARK    1  A    between atoms: N_6  and  C_7
REMARK    2  A    between atoms: C_7  and  N_9
REMARK    3  A    between atoms: N_9  and  C_10
REMARK    4  A    between atoms: C_10  and  C_11
REMARK    5  A    between atoms: C_11  and  C_12
REMARK                            x       y       z     vdW  Elec       q    Type
REMARK                         _______ _______ _______ _____ _____    ______ ____
ROOT
ATOM      1  C   UNL     1       9.703  22.595  22.150  0.00  0.00    +0.000 C 
ATOM      2  S   UNL     1       8.155  22.783  22.575  0.00  0.00    +0.000 S 
ENDROOT
BRANCH   1   8
ATOM      3  O   UNL     1       8.349  19.774  21.013  0.00  0.00    +0.000 OA
ATOM      4  C   UNL     1       8.741  20.167  19.615  0.00  0.00    +0.000 C 
ATOM      5  C   UNL     1      10.048  19.206  19.579  0.00  0.00    +0.000 C 
ATOM      6  C   UNL     1      11.092  19.591  20.470  0.00  0.00    +0.000 C 
ATOM      7  C   UNL     1      10.812  20.367  21.700  0.00  0.00    +0.000 C 
ATOM      8  N   UNL     1      10.017  21.525  21.298  0.00  0.00    +0.000 N 
ATOM      9  C   UNL     1       9.564  21.522  19.976  0.00  0.00    +0.000 C 
ENDBRANCH   1   8
BRANCH   1  10
ATOM     10  N   UNL     1      10.672  23.479  22.618  0.00  0.00    +0.000 NA
BRANCH  10  11
ATOM     11  C   UNL     1      10.916  24.828  22.135  0.00  0.00    +0.000 C 
BRANCH  11  12
ATOM     12  C   UNL     1      11.730  24.646  20.870  0.00  0.00    +0.000 C 
BRANCH  12  13
ATOM     13  C   UNL     1      12.991  23.913  21.070  0.00  0.00    +0.000 A 
ATOM     14  C   UNL     1      13.267  22.766  20.293  0.00  0.00    +0.000 A 
ATOM     15  C   UNL     1      14.459  22.116  20.499  0.00  0.00    +0.000 A 
ATOM     16  C   UNL     1      15.410  22.489  21.396  0.00  0.00    +0.000 A 
ATOM     17  C   UNL     1      15.147  23.628  22.174  0.00  0.00    +0.000 A 
ATOM     18  C   UNL     1      13.959  24.272  21.967  0.00  0.00    +0.000 A 
ENDBRANCH  12  13
ENDBRANCH  11  12
ENDBRANCH  10  11
ENDBRANCH   1  10
TORSDOF 5
ENDMDL
MODEL 3
REMARK VINA RESULT:      -5.4     20.008     20.882
REMARK  Name = 
REMARK  5 active torsions:
REMARK  status: ('A' for Active; 'I' for Inactive)
REMARK    1  A    between atoms: N_6  and  C_7
REMARK    2  A    between atoms: C_7  and  N_9
REMARK    3  A    between atoms: N_9  and  C_10
REMARK    4  A    between atoms: C_10  and  C_11
REMARK    5  A    between atoms: C_11  and  C_12
REMARK                            x       y       z     vdW  Elec       q    Type
REMARK                         _______ _______ _______ _____ _____    ______ ____
ROOT
ATOM      1  C   UNL     1      22.734   1.313  17.377  0.00  0.00    +0.000 C 
ATOM      2  S   UNL     1      23.522  -0.078  17.138  0.00  0.00    +0.000 S 
ENDROOT
BRANCH   1   8
ATOM      3  O   UNL     1      20.699   2.848  15.235  0.00  0.00    +0.000 OA
ATOM      4  C   UNL     1      20.089   1.519  14.885  0.00  0.00    +0.000 C 
ATOM      5  C   UNL     1      18.782   1.733  15.823  0.00  0.00    +0.000 C 
ATOM      6  C   UNL     1      19.053   1.756  17.222  0.00  0.00    +0.000 C 
ATOM      7  C   UNL     1      20.379   2.156  17.747  0.00  0.00    +0.000 C 
ATOM      8  N   UNL     1      21.374   1.355  17.036  0.00  0.00    +0.000 N 
ATOM      9  C   UNL     1      20.893   0.602  15.962  0.00  0.00    +0.000 C 
ENDBRANCH   1   8
BRANCH   1  10
ATOM     10  N   UNL     1      23.401   2.415  17.908  0.00  0.00    +0.000 NA
BRANCH  10  11
ATOM     11  C   UNL     1      24.833   2.659  17.869  0.00  0.00    +0.000 C 
BRANCH  11  12
ATOM     12  C   UNL     1      25.067   3.761  18.883  0.00  0.00    +0.000 C 
BRANCH  12  13
ATOM     13  C   UNL     1      25.845   4.898  18.362  0.00  0.00    +0.000 A 
ATOM     14  C   UNL     1      25.367   5.624  17.248  0.00  0.00    +0.000 A 
ATOM     15  C   UNL     1      26.112   6.686  16.799  0.00  0.00    +0.000 A 
ATOM     16  C   UNL     1      27.285   7.105  17.345  0.00  0.00    +0.000 A 
ATOM     17  C   UNL     1      27.770   6.392  18.452  0.00  0.00    +0.000 A 
ATOM     18  C   UNL     1      27.026   5.335  18.896  0.00  0.00    +0.000 A 
ENDBRANCH  12  13
ENDBRANCH  11  12
ENDBRANCH  10  11
ENDBRANCH   1  10
TORSDOF 5
ENDMDL
MODEL 4
REMARK VINA RESULT:      -5.3     29.406     31.884
REMARK  Name = 
REMARK  5 active torsions:
REMARK  status: ('A' for Active; 'I' for Inactive)
REMARK    1  A    between atoms: N_6  and  C_7
REMARK    2  A    between atoms: C_7  and  N_9
REMARK    3  A    between atoms: N_9  and  C_10
REMARK    4  A    between atoms: C_10  and  C_11
REMARK    5  A    between atoms: C_11  and  C_12
REMARK                            x       y       z     vdW  Elec       q    Type
REMARK                         _______ _______ _______ _____ _____    ______ ____
ROOT
ATOM      1  C   UNL     1      32.966  -5.704  33.147  0.00  0.00    +0.000 C 
ATOM      2  S   UNL     1      32.873  -6.915  34.212  0.00  0.00    +0.000 S 
ENDROOT
BRANCH   1   8
ATOM      3  O   UNL     1      35.626  -6.074  31.180  0.00  0.00    +0.000 OA
ATOM      4  C   UNL     1      35.070  -7.387  30.700  0.00  0.00    +0.000 C 
ATOM      5  C   UNL     1      34.497  -6.776  29.310  0.00  0.00    +0.000 C 
ATOM      6  C   UNL     1      33.420  -5.854  29.466  0.00  0.00    +0.000 C 
ATOM      7  C   UNL     1      33.245  -5.074  30.713  0.00  0.00    +0.000 C 
ATOM      8  N   UNL     1      33.277  -6.030  31.818  0.00  0.00    +0.000 N 
ATOM      9  C   UNL     1      33.645  -7.336  31.482  0.00  0.00    +0.000 C 
ENDBRANCH   1   8
BRANCH   1  10
ATOM     10  N   UNL     1      32.736  -4.392  33.554  0.00  0.00    +0.000 NA
BRANCH  10  11
ATOM     11  C   UNL     1      33.746  -3.404  33.898  0.00  0.00    +0.000 C 
BRANCH  11  12
ATOM     12  C   UNL     1      32.973  -2.261  34.524  0.00  0.00    +0.000 C 
BRANCH  12  13
ATOM     13  C   UNL     1      33.288  -0.941  33.952  0.00  0.00    +0.000 A 
ATOM     14  C   UNL     1      32.639   0.211  34.446  0.00  0.00    +0.000 A 
ATOM     15  C   UNL     1      32.968   1.426  33.897  0.00  0.00    +0.000 A 
ATOM     16  C   UNL     1      33.880   1.616  32.906  0.00  0.00    +0.000 A 
ATOM     17  C   UNL     1      34.531   0.478  32.406  0.00  0.00    +0.000 A 
ATOM     18  C   UNL     1      34.201  -0.730  32.955  0.00  0.00    +0.000 A 
ENDBRANCH  12  13
ENDBRANCH  11  12
ENDBRANCH  10  11
ENDBRANCH   1  10
TORSDOF 5
ENDMDL
MODEL 5
REMARK VINA RESULT:      -5.3     14.392     15.341
REMARK  Name = 
REMARK  5 active torsions:
REMARK  status: ('A' for Active; 'I' for Inactive)
REMARK    1  A    between atoms: N_6  and  C_7
REMARK    2  A    between atoms: C_7  and  N_9
REMARK    3  A    between atoms: N_9  and  C_10
REMARK    4  A    between atoms: C_10  and  C_11
REMARK    5  A    between atoms: C_11  and  C_12
REMARK                            x       y       z     vdW  Elec       q    Type
REMARK                         _______ _______ _______ _____ _____    ______ ____
ROOT
ATOM      1  C   UNL     1      26.411  23.962  27.542  0.00  0.00    +0.000 C 
ATOM      2  S   UNL     1      25.436  25.080  28.182  0.00  0.00    +0.000 S 
ENDROOT
BRANCH   1   8
ATOM      3  O   UNL     1      25.105  25.363  24.819  0.00  0.00    +0.000 OA
ATOM      4  C   UNL     1      26.486  25.773  24.386  0.00  0.00    +0.000 C 
ATOM      5  C   UNL     1      26.647  24.557  23.323  0.00  0.00    +0.000 C 
ATOM      6  C   UNL     1      26.720  23.261  23.911  0.00  0.00    +0.000 C 
ATOM      7  C   UNL     1      26.115  22.976  25.232  0.00  0.00    +0.000 C 
ATOM      8  N   UNL     1      26.613  23.994  26.154  0.00  0.00    +0.000 N 
ATOM      9  C   UNL     1      27.328  25.044  25.572  0.00  0.00    +0.000 C 
ENDBRANCH   1   8
BRANCH   1  10
ATOM     10  N   UNL     1      27.024  23.014  28.359  0.00  0.00    +0.000 NA
BRANCH  10  11
ATOM     11  C   UNL     1      28.087  22.101  27.974  0.00  0.00    +0.000 C 
BRANCH  11  12
ATOM     12  C   UNL     1      29.364  22.902  28.134  0.00  0.00    +0.000 C 
BRANCH  12  13
ATOM     13  C   UNL     1      30.149  23.030  26.894  0.00  0.00    +0.000 A 
ATOM     14  C   UNL     1      31.297  23.851  26.873  0.00  0.00    +0.000 A 
ATOM     15  C   UNL     1      32.012  23.936  25.703  0.00  0.00    +0.000 A 
ATOM     16  C   UNL     1      31.704  23.286  24.549  0.00  0.00    +0.000 A 
ATOM     17  C   UNL     1      30.564  22.466  24.558  0.00  0.00    +0.000 A 
ATOM     18  C   UNL     1      29.855  22.385  25.724  0.00  0.00    +0.000 A 
ENDBRANCH  12  13
ENDBRANCH  11  12
ENDBRANCH  10  11
ENDBRANCH   1  10
TORSDOF 5
ENDMDL
MODEL 6
REMARK VINA RESULT:      -5.3     32.581     33.485
REMARK  Name = 
REMARK  5 active torsions:
REMARK  status: ('A' for Active; 'I' for Inactive)
REMARK    1  A    between atoms: N_6  and  C_7
REMARK    2  A    between atoms: C_7  and  N_9
REMARK    3  A    between atoms: N_9  and  C_10
REMARK    4  A    between atoms: C_10  and  C_11
REMARK    5  A    between atoms: C_11  and  C_12
REMARK                            x       y       z     vdW  Elec       q    Type
REMARK                         _______ _______ _______ _____ _____    ______ ____
ROOT
ATOM      1  C   UNL     1      18.620  10.413  37.785  0.00  0.00    +0.000 C 
ATOM      2  S   UNL     1      20.084   9.940  37.289  0.00  0.00    +0.000 S 
ENDROOT
BRANCH   1   8
ATOM      3  O   UNL     1      15.391  11.126  37.408  0.00  0.00    +0.000 OA
ATOM      4  C   UNL     1      15.767  12.478  36.867  0.00  0.00    +0.000 C 
ATOM      5  C   UNL     1      15.551  12.055  35.315  0.00  0.00    +0.000 C 
ATOM      6  C   UNL     1      16.482  11.093  34.828  0.00  0.00    +0.000 C 
ATOM      7  C   UNL     1      17.159  10.140  35.738  0.00  0.00    +0.000 C 
ATOM      8  N   UNL     1      17.744  10.932  36.818  0.00  0.00    +0.000 N 
ATOM      9  C   UNL     1      17.382  12.280  36.849  0.00  0.00    +0.000 C 
ENDBRANCH   1   8
BRANCH   1  10
ATOM     10  N   UNL     1      18.261  10.295  39.125  0.00  0.00    +0.000 NA
BRANCH  10  11
ATOM     11  C   UNL     1      17.730   9.107  39.775  0.00  0.00    +0.000 C 
BRANCH  11  12
ATOM     12  C   UNL     1      16.446   9.567  40.436  0.00  0.00    +0.000 C 
BRANCH  12  13
ATOM     13  C   UNL     1      16.283   9.093  41.821  0.00  0.00    +0.000 A 
ATOM     14  C   UNL     1      15.934   7.746  42.065  0.00  0.00    +0.000 A 
ATOM     15  C   UNL     1      15.804   7.337  43.369  0.00  0.00    +0.000 A 
ATOM     16  C   UNL     1      15.986   8.129  44.459  0.00  0.00    +0.000 A 
ATOM     17  C   UNL     1      16.333   9.469  44.229  0.00  0.00    +0.000 A 
ATOM     18  C   UNL     1      16.462   9.873  42.930  0.00  0.00    +0.000 A 
ENDBRANCH  12  13
ENDBRANCH  11  12
ENDBRANCH  10  11
ENDBRANCH   1  10
TORSDOF 5
ENDMDL
MODEL 7
REMARK VINA RESULT:      -5.2     13.721     14.854
REMARK  Name = 
REMARK  5 active torsions:
REMARK  status: ('A' for Active; 'I' for Inactive)
REMARK    1  A    between atoms: N_6  and  C_7
REMARK    2  A    between atoms: C_7  and  N_9
REMARK    3  A    between atoms: N_9  and  C_10
REMARK    4  A    between atoms: C_10  and  C_11
REMARK    5  A    between atoms: C_11  and  C_12
REMARK                            x       y       z     vdW  Elec       q    Type
REMARK                         _______ _______ _______ _____ _____    ______ ____
ROOT
ATOM      1  C   UNL     1      26.238  24.326  25.195  0.00  0.00    +0.000 C 
ATOM      2  S   UNL     1      25.105  25.472  25.070  0.00  0.00    +0.000 S 
ENDROOT
BRANCH   1   8
ATOM      3  O   UNL     1      26.651  23.476  22.003  0.00  0.00    +0.000 OA
ATOM      4  C   UNL     1      27.336  24.792  21.757  0.00  0.00    +0.000 C 
ATOM      5  C   UNL     1      28.832  24.163  21.810  0.00  0.00    +0.000 C 
ATOM      6  C   UNL     1      29.225  23.677  23.090  0.00  0.00    +0.000 C 
ATOM      7  C   UNL     1      28.227  23.225  24.087  0.00  0.00    +0.000 C 
ATOM      8  N   UNL     1      27.243  24.298  24.217  0.00  0.00    +0.000 N 
ATOM      9  C   UNL     1      27.352  25.337  23.289  0.00  0.00    +0.000 C 
ENDBRANCH   1   8
BRANCH   1  10
ATOM     10  N   UNL     1      26.202  23.415  26.248  0.00  0.00    +0.000 NA
BRANCH  10  11
ATOM     11  C   UNL     1      26.314  23.726  27.664  0.00  0.00    +0.000 C 
BRANCH  11  12
ATOM     12  C   UNL     1      27.412  22.816  28.175  0.00  0.00    +0.000 C 
BRANCH  12  13
ATOM     13  C   UNL     1      28.750  23.137  27.648  0.00  0.00    +0.000 A 
ATOM     14  C   UNL     1      29.595  22.099  27.199  0.00  0.00    +0.000 A 
ATOM     15  C   UNL     1      30.829  22.438  26.701  0.00  0.00    +0.000 A 
ATOM     16  C   UNL     1      31.312  23.705  26.602  0.00  0.00    +0.000 A 
ATOM     17  C   UNL     1      30.480  24.745  27.045  0.00  0.00    +0.000 A 
ATOM     18  C   UNL     1      29.253  24.405  27.540  0.00  0.00    +0.000 A 
ENDBRANCH  12  13
ENDBRANCH  11  12
ENDBRANCH  10  11
ENDBRANCH   1  10
TORSDOF 5
ENDMDL
MODEL 8
REMARK VINA RESULT:      -5.2     27.980     30.824
REMARK  Name = 
REMARK  5 active torsions:
REMARK  status: ('A' for Active; 'I' for Inactive)
REMARK    1  A    between atoms: N_6  and  C_7
REMARK    2  A    between atoms: C_7  and  N_9
REMARK    3  A    between atoms: N_9  and  C_10
REMARK    4  A    between atoms: C_10  and  C_11
REMARK    5  A    between atoms: C_11  and  C_12
REMARK                            x       y       z     vdW  Elec       q    Type
REMARK                         _______ _______ _______ _____ _____    ______ ____
ROOT
ATOM      1  C   UNL     1      34.831  -0.634  37.236  0.00  0.00    +0.000 C 
ATOM      2  S   UNL     1      35.003  -1.398  38.649  0.00  0.00    +0.000 S 
ENDROOT
BRANCH   1   8
ATOM      3  O   UNL     1      32.685  -0.579  34.691  0.00  0.00    +0.000 OA
ATOM      4  C   UNL     1      33.814  -0.898  33.751  0.00  0.00    +0.000 C 
ATOM      5  C   UNL     1      33.443  -2.475  33.644  0.00  0.00    +0.000 C 
ATOM      6  C   UNL     1      33.631  -3.211  34.849  0.00  0.00    +0.000 C 
ATOM      7  C   UNL     1      33.571  -2.554  36.175  0.00  0.00    +0.000 C 
ATOM      8  N   UNL     1      34.474  -1.406  36.119  0.00  0.00    +0.000 N 
ATOM      9  C   UNL     1      34.989  -1.099  34.858  0.00  0.00    +0.000 C 
ENDBRANCH   1   8
BRANCH   1  10
ATOM     10  N   UNL     1      35.028   0.742  37.153  0.00  0.00    +0.000 NA
BRANCH  10  11
ATOM     11  C   UNL     1      34.026   1.773  37.376  0.00  0.00    +0.000 C 
BRANCH  11  12
ATOM     12  C   UNL     1      34.684   3.058  36.918  0.00  0.00    +0.000 C 
BRANCH  12  13
ATOM     13  C   UNL     1      34.039   3.677  35.747  0.00  0.00    +0.000 A 
ATOM     14  C   UNL     1      33.611   5.021  35.810  0.00  0.00    +0.000 A 
ATOM     15  C   UNL     1      33.026   5.567  34.694  0.00  0.00    +0.000 A 
ATOM     16  C   UNL     1      32.823   4.915  33.518  0.00  0.00    +0.000 A 
ATOM     17  C   UNL     1      33.245   3.579  33.443  0.00  0.00    +0.000 A 
ATOM     18  C   UNL     1      33.827   3.038  34.556  0.00  0.00    +0.000 A 
ENDBRANCH  12  13
ENDBRANCH  11  12
ENDBRANCH  10  11
ENDBRANCH   1  10
TORSDOF 5
ENDMDL
MODEL 9
REMARK VINA RESULT:      -5.2      4.427      6.699
REMARK  Name = 
REMARK  5 active torsions:
REMARK  status: ('A' for Active; 'I' for Inactive)
REMARK    1  A    between atoms: N_6  and  C_7
REMARK    2  A    between atoms: C_7  and  N_9
REMARK    3  A    between atoms: N_9  and  C_10
REMARK    4  A    between atoms: C_10  and  C_11
REMARK    5  A    between atoms: C_11  and  C_12
REMARK                            x       y       z     vdW  Elec       q    Type
REMARK                         _______ _______ _______ _____ _____    ______ ____
ROOT
ATOM      1  C   UNL     1      32.884  21.811   9.259  0.00  0.00    +0.000 C 
ATOM      2  S   UNL     1      34.449  22.155   9.048  0.00  0.00    +0.000 S 
ENDROOT
BRANCH   1   8
ATOM      3  O   UNL     1      32.929  21.001   6.030  0.00  0.00    +0.000 OA
ATOM      4  C   UNL     1      33.108  19.557   6.410  0.00  0.00    +0.000 C 
ATOM      5  C   UNL     1      31.547  19.175   6.180  0.00  0.00    +0.000 C 
ATOM      6  C   UNL     1      30.646  19.781   7.104  0.00  0.00    +0.000 C 
ATOM      7  C   UNL     1      30.975  21.056   7.782  0.00  0.00    +0.000 C 
ATOM      8  N   UNL     1      32.298  20.888   8.379  0.00  0.00    +0.000 N 
ATOM      9  C   UNL     1      32.983  19.723   8.023  0.00  0.00    +0.000 C 
ENDBRANCH   1   8
BRANCH   1  10
ATOM     10  N   UNL     1      32.165  22.415  10.287  0.00  0.00    +0.000 NA
BRANCH  10  11
ATOM     11  C   UNL     1      31.885  21.846  11.595  0.00  0.00    +0.000 C 
BRANCH  11  12
ATOM     12  C   UNL     1      30.456  21.351  11.506  0.00  0.00    +0.000 C 
BRANCH  12  13
ATOM     13  C   UNL     1      29.469  22.258  12.117  0.00  0.00    +0.000 A 
ATOM     14  C   UNL     1      29.786  22.935  13.315  0.00  0.00    +0.000 A 
ATOM     15  C   UNL     1      28.846  23.783  13.848  0.00  0.00    +0.000 A 
ATOM     16  C   UNL     1      27.621  24.028  13.313  0.00  0.00    +0.000 A 
ATOM     17  C   UNL     1      27.295  23.361  12.122  0.00  0.00    +0.000 A 
ATOM     18  C   UNL     1      28.232  22.518  11.594  0.00  0.00    +0.000 A 
ENDBRANCH  12  13
ENDBRANCH  11  12
ENDBRANCH  10  11
ENDBRANCH   1  10
TORSDOF 5
ENDMDL
MODEL 10
REMARK VINA RESULT:      -5.2     13.377     14.412
REMARK  Name = 
REMARK  5 active torsions:
REMARK  status: ('A' for Active; 'I' for Inactive)
REMARK    1  A    between atoms: N_6  and  C_7
REMARK    2  A    between atoms: C_7  and  N_9
REMARK    3  A    between atoms: N_9  and  C_10
REMARK    4  A    between atoms: C_10  and  C_11
REMARK    5  A    between atoms: C_11  and  C_12
REMARK                            x       y       z     vdW  Elec       q    Type
REMARK                         _______ _______ _______ _____ _____    ______ ____
ROOT
ATOM      1  C   UNL     1      26.961  25.582  23.558  0.00  0.00    +0.000 C 
ATOM      2  S   UNL     1      27.250  27.106  23.106  0.00  0.00    +0.000 S 
ENDROOT
BRANCH   1   8
ATOM      3  O   UNL     1      25.815  23.096  25.454  0.00  0.00    +0.000 OA
ATOM      4  C   UNL     1      26.595  23.644  26.617  0.00  0.00    +0.000 C 
ATOM      5  C   UNL     1      25.309  24.362  27.300  0.00  0.00    +0.000 C 
ATOM      6  C   UNL     1      24.774  25.453  26.555  0.00  0.00    +0.000 C 
ATOM      7  C   UNL     1      24.946  25.545  25.086  0.00  0.00    +0.000 C 
ATOM      8  N   UNL     1      26.372  25.379  24.816  0.00  0.00    +0.000 N 
ATOM      9  C   UNL     1      27.157  24.995  25.906  0.00  0.00    +0.000 C 
ENDBRANCH   1   8
BRANCH   1  10
ATOM     10  N   UNL     1      27.286  24.525  22.712  0.00  0.00    +0.000 NA
BRANCH  10  11
ATOM     11  C   UNL     1      28.625  24.063  22.381  0.00  0.00    +0.000 C 
BRANCH  11  12
ATOM     12  C   UNL     1      28.874  22.895  23.314  0.00  0.00    +0.000 C 
BRANCH  12  13
ATOM     13  C   UNL     1      29.921  23.145  24.320  0.00  0.00    +0.000 A 
ATOM     14  C   UNL     1      29.898  22.444  25.545  0.00  0.00    +0.000 A 
ATOM     15  C   UNL     1      30.898  22.694  26.453  0.00  0.00    +0.000 A 
ATOM     16  C   UNL     1      31.922  23.569  26.268  0.00  0.00    +0.000 A 
ATOM     17  C   UNL     1      31.955  24.271  25.054  0.00  0.00    +0.000 A 
ATOM     18  C   UNL     1      30.958  24.021  24.153  0.00  0.00    +0.000 A 
ENDBRANCH  12  13
ENDBRANCH  11  12
ENDBRANCH  10  11
ENDBRANCH   1  10
TORSDOF 5
ENDMDL
