MODEL 1
REMARK VINA RESULT:      -6.0      0.000      0.000
REMARK  Name = 
REMARK  4 active torsions:
REMARK  status: ('A' for Active; 'I' for Inactive)
REMARK    1  A    between atoms: C_2  and  C_3
REMARK    2  A    between atoms: C_3  and  N_4
REMARK    3  A    between atoms: N_4  and  C_5
REMARK    4  A    between atoms: N_12  and  N_13
REMARK                            x       y       z     vdW  Elec       q    Type
REMARK                         _______ _______ _______ _____ _____    ______ ____
ROOT
ATOM      1  O   UNL     1      29.584  26.915  21.972  0.00  0.00    +0.000 OA
ATOM      2  C   UNL     1      29.517  26.383  20.840  0.00  0.00    +0.000 C 
ATOM      3  N   UNL     1      29.576  24.965  20.773  0.00  0.00    +0.000 NA
ENDROOT
BRANCH   3   4
ATOM      4  N   UNL     1      29.704  24.195  21.930  0.00  0.00    +0.000 NA
ATOM      5  C   UNL     1      28.669  23.709  22.475  0.00  0.00    +0.000 C 
ATOM      6  C   UNL     1      27.281  23.860  22.019  0.00  0.00    +0.000 C 
ATOM      7  C   UNL     1      26.454  23.862  23.288  0.00  0.00    +0.000 C 
ATOM      8  C   UNL     1      27.395  23.402  24.390  0.00  0.00    +0.000 C 
ATOM      9  C   UNL     1      28.633  22.881  23.692  0.00  0.00    +0.000 C 
ENDBRANCH   3   4
BRANCH   2  10
ATOM     10  C   UNL     1      29.381  27.234  19.616  0.00  0.00    +0.000 C 
BRANCH  10  11
ATOM     11  N   UNL     1      30.382  26.870  18.637  0.00  0.00    +0.000 NA
BRANCH  11  12
ATOM     12  C   UNL     1      30.291  27.466  17.348  0.00  0.00    +0.000 A 
ATOM     13  C   UNL     1      29.503  26.946  16.344  0.00  0.00    +0.000 A 
ATOM     14  C   UNL     1      29.413  27.520  15.100  0.00  0.00    +0.000 A 
ATOM     15  C   UNL     1      30.135  28.674  14.806  0.00  0.00    +0.000 A 
ATOM     16  C   UNL     1      30.925  29.201  15.806  0.00  0.00    +0.000 A 
ATOM     17  C   UNL     1      31.017  28.624  17.062  0.00  0.00    +0.000 A 
ATOM     18 CL   UNL     1      32.029  29.306  18.327  0.00  0.00    +0.000 Cl
ENDBRANCH  11  12
ENDBRANCH  10  11
ENDBRANCH   2  10
TORSDOF 4
ENDMDL
MODEL 2
REMARK VINA RESULT:      -5.7      6.597      9.012
REMARK  Name = 
REMARK  4 active torsions:
REMARK  status: ('A' for Active; 'I' for Inactive)
REMARK    1  A    between atoms: C_2  and  C_3
REMARK    2  A    between atoms: C_3  and  N_4
REMARK    3  A    between atoms: N_4  and  C_5
REMARK    4  A    between atoms: N_12  and  N_13
REMARK                            x       y       z     vdW  Elec       q    Type
REMARK                         _______ _______ _______ _____ _____    ______ ____
ROOT
ATOM      1  O   UNL     1      28.125  25.201  23.982  0.00  0.00    +0.000 OA
ATOM      2  C   UNL     1      27.902  23.972  23.888  0.00  0.00    +0.000 C 
ATOM      3  N   UNL     1      29.014  23.113  23.679  0.00  0.00    +0.000 NA
ENDROOT
BRANCH   3   4
ATOM      4  N   UNL     1      30.309  23.624  23.582  0.00  0.00    +0.000 NA
ATOM      5  C   UNL     1      31.121  23.453  24.539  0.00  0.00    +0.000 C 
ATOM      6  C   UNL     1      30.859  22.749  25.801  0.00  0.00    +0.000 C 
ATOM      7  C   UNL     1      31.702  23.472  26.831  0.00  0.00    +0.000 C 
ATOM      8  C   UNL     1      32.641  24.366  26.036  0.00  0.00    +0.000 C 
ATOM      9  C   UNL     1      32.514  23.926  24.593  0.00  0.00    +0.000 C 
ENDBRANCH   3   4
BRANCH   2  10
ATOM     10  C   UNL     1      26.501  23.453  23.996  0.00  0.00    +0.000 C 
BRANCH  10  11
ATOM     11  N   UNL     1      26.313  22.773  25.259  0.00  0.00    +0.000 NA
BRANCH  11  12
ATOM     12  C   UNL     1      26.028  23.572  26.401  0.00  0.00    +0.000 A 
ATOM     13  C   UNL     1      25.096  24.586  26.383  0.00  0.00    +0.000 A 
ATOM     14  C   UNL     1      24.818  25.358  27.483  0.00  0.00    +0.000 A 
ATOM     15  C   UNL     1      25.489  25.136  28.683  0.00  0.00    +0.000 A 
ATOM     16  C   UNL     1      26.424  24.122  28.710  0.00  0.00    +0.000 A 
ATOM     17  C   UNL     1      26.704  23.342  27.600  0.00  0.00    +0.000 A 
ATOM     18 CL   UNL     1      27.900  22.054  27.648  0.00  0.00    +0.000 Cl
ENDBRANCH  11  12
ENDBRANCH  10  11
ENDBRANCH   2  10
TORSDOF 4
ENDMDL
MODEL 3
REMARK VINA RESULT:      -5.7      5.541      7.173
REMARK  Name = 
REMARK  4 active torsions:
REMARK  status: ('A' for Active; 'I' for Inactive)
REMARK    1  A    between atoms: C_2  and  C_3
REMARK    2  A    between atoms: C_3  and  N_4
REMARK    3  A    between atoms: N_4  and  C_5
REMARK    4  A    between atoms: N_12  and  N_13
REMARK                            x       y       z     vdW  Elec       q    Type
REMARK                         _______ _______ _______ _____ _____    ______ ____
ROOT
ATOM      1  O   UNL     1      26.222  25.482  24.512  0.00  0.00    +0.000 OA
ATOM      2  C   UNL     1      26.278  24.241  24.350  0.00  0.00    +0.000 C 
ATOM      3  N   UNL     1      25.897  23.415  25.442  0.00  0.00    +0.000 NA
ENDROOT
BRANCH   3   4
ATOM      4  N   UNL     1      25.476  23.971  26.651  0.00  0.00    +0.000 NA
ATOM      5  C   UNL     1      26.167  23.788  27.696  0.00  0.00    +0.000 C 
ATOM      6  C   UNL     1      27.417  23.026  27.804  0.00  0.00    +0.000 C 
ATOM      7  C   UNL     1      27.390  22.428  29.195  0.00  0.00    +0.000 C 
ATOM      8  C   UNL     1      26.258  23.138  29.922  0.00  0.00    +0.000 C 
ATOM      9  C   UNL     1      25.862  24.303  29.042  0.00  0.00    +0.000 C 
ENDBRANCH   3   4
BRANCH   2  10
ATOM     10  C   UNL     1      26.734  23.674  23.042  0.00  0.00    +0.000 C 
BRANCH  10  11
ATOM     11  N   UNL     1      27.982  24.284  22.637  0.00  0.00    +0.000 NA
BRANCH  11  12
ATOM     12  C   UNL     1      29.132  24.022  23.433  0.00  0.00    +0.000 A 
ATOM     13  C   UNL     1      29.433  22.765  23.911  0.00  0.00    +0.000 A 
ATOM     14  C   UNL     1      30.542  22.509  24.678  0.00  0.00    +0.000 A 
ATOM     15  C   UNL     1      31.419  23.540  25.008  0.00  0.00    +0.000 A 
ATOM     16  C   UNL     1      31.125  24.801  24.534  0.00  0.00    +0.000 A 
ATOM     17  C   UNL     1      30.007  25.060  23.759  0.00  0.00    +0.000 A 
ATOM     18 CL   UNL     1      29.643  26.673  23.162  0.00  0.00    +0.000 Cl
ENDBRANCH  11  12
ENDBRANCH  10  11
ENDBRANCH   2  10
TORSDOF 4
ENDMDL
MODEL 4
REMARK VINA RESULT:      -5.6     16.232     18.473
REMARK  Name = 
REMARK  4 active torsions:
REMARK  status: ('A' for Active; 'I' for Inactive)
REMARK    1  A    between atoms: C_2  and  C_3
REMARK    2  A    between atoms: C_3  and  N_4
REMARK    3  A    between atoms: N_4  and  C_5
REMARK    4  A    between atoms: N_12  and  N_13
REMARK                            x       y       z     vdW  Elec       q    Type
REMARK                         _______ _______ _______ _____ _____    ______ ____
ROOT
ATOM      1  O   UNL     1       9.543  24.963  21.962  0.00  0.00    +0.000 OA
ATOM      2  C   UNL     1      10.539  24.498  22.563  0.00  0.00    +0.000 C 
ATOM      3  N   UNL     1      10.586  23.094  22.776  0.00  0.00    +0.000 NA
ENDROOT
BRANCH   3   4
ATOM      4  N   UNL     1       9.555  22.265  22.330  0.00  0.00    +0.000 NA
ATOM      5  C   UNL     1       9.838  21.164  21.770  0.00  0.00    +0.000 C 
ATOM      6  C   UNL     1      11.179  20.624  21.516  0.00  0.00    +0.000 C 
ATOM      7  C   UNL     1      11.045  19.842  20.226  0.00  0.00    +0.000 C 
ATOM      8  C   UNL     1       9.550  19.726  19.972  0.00  0.00    +0.000 C 
ATOM      9  C   UNL     1       8.873  20.182  21.246  0.00  0.00    +0.000 C 
ENDBRANCH   3   4
BRANCH   2  10
ATOM     10  C   UNL     1      11.629  25.412  23.030  0.00  0.00    +0.000 C 
BRANCH  10  11
ATOM     11  N   UNL     1      12.606  25.606  21.981  0.00  0.00    +0.000 NA
BRANCH  11  12
ATOM     12  C   UNL     1      13.462  24.513  21.668  0.00  0.00    +0.000 A 
ATOM     13  C   UNL     1      14.547  24.175  22.447  0.00  0.00    +0.000 A 
ATOM     14  C   UNL     1      15.375  23.121  22.148  0.00  0.00    +0.000 A 
ATOM     15  C   UNL     1      15.139  22.343  21.017  0.00  0.00    +0.000 A 
ATOM     16  C   UNL     1      14.055  22.676  20.232  0.00  0.00    +0.000 A 
ATOM     17  C   UNL     1      13.219  23.738  20.533  0.00  0.00    +0.000 A 
ATOM     18 CL   UNL     1      11.841  24.152  19.522  0.00  0.00    +0.000 Cl
ENDBRANCH  11  12
ENDBRANCH  10  11
ENDBRANCH   2  10
TORSDOF 4
ENDMDL
MODEL 5
REMARK VINA RESULT:      -5.6      7.409     11.179
REMARK  Name = 
REMARK  4 active torsions:
REMARK  status: ('A' for Active; 'I' for Inactive)
REMARK    1  A    between atoms: C_2  and  C_3
REMARK    2  A    between atoms: C_3  and  N_4
REMARK    3  A    between atoms: N_4  and  C_5
REMARK    4  A    between atoms: N_12  and  N_13
REMARK                            x       y       z     vdW  Elec       q    Type
REMARK                         _______ _______ _______ _____ _____    ______ ____
ROOT
ATOM      1  O   UNL     1      27.928  24.310  28.154  0.00  0.00    +0.000 OA
ATOM      2  C   UNL     1      28.092  23.096  28.413  0.00  0.00    +0.000 C 
ATOM      3  N   UNL     1      28.116  22.185  27.322  0.00  0.00    +0.000 NA
ENDROOT
BRANCH   3   4
ATOM      4  N   UNL     1      27.964  22.634  26.009  0.00  0.00    +0.000 NA
ATOM      5  C   UNL     1      28.969  22.663  25.238  0.00  0.00    +0.000 C 
ATOM      6  C   UNL     1      30.343  22.267  25.568  0.00  0.00    +0.000 C 
ATOM      7  C   UNL     1      31.221  23.184  24.742  0.00  0.00    +0.000 C 
ATOM      8  C   UNL     1      30.287  23.856  23.747  0.00  0.00    +0.000 C 
ATOM      9  C   UNL     1      28.975  23.107  23.834  0.00  0.00    +0.000 C 
ENDBRANCH   3   4
BRANCH   2  10
ATOM     10  C   UNL     1      28.252  22.644  29.831  0.00  0.00    +0.000 C 
BRANCH  10  11
ATOM     11  N   UNL     1      29.400  23.286  30.436  0.00  0.00    +0.000 NA
BRANCH  11  12
ATOM     12  C   UNL     1      30.670  22.671  30.255  0.00  0.00    +0.000 A 
ATOM     13  C   UNL     1      31.440  22.878  29.131  0.00  0.00    +0.000 A 
ATOM     14  C   UNL     1      32.666  22.287  28.954  0.00  0.00    +0.000 A 
ATOM     15  C   UNL     1      33.182  21.436  29.929  0.00  0.00    +0.000 A 
ATOM     16  C   UNL     1      32.417  21.224  31.057  0.00  0.00    +0.000 A 
ATOM     17  C   UNL     1      31.180  21.820  31.237  0.00  0.00    +0.000 A 
ATOM     18 CL   UNL     1      30.215  21.540  32.679  0.00  0.00    +0.000 Cl
ENDBRANCH  11  12
ENDBRANCH  10  11
ENDBRANCH   2  10
TORSDOF 4
ENDMDL
MODEL 6
REMARK VINA RESULT:      -5.5     25.533     27.828
REMARK  Name = 
REMARK  4 active torsions:
REMARK  status: ('A' for Active; 'I' for Inactive)
REMARK    1  A    between atoms: C_2  and  C_3
REMARK    2  A    between atoms: C_3  and  N_4
REMARK    3  A    between atoms: N_4  and  C_5
REMARK    4  A    between atoms: N_12  and  N_13
REMARK                            x       y       z     vdW  Elec       q    Type
REMARK                         _______ _______ _______ _____ _____    ______ ____
ROOT
ATOM      1  O   UNL     1      20.090   9.190  38.950  0.00  0.00    +0.000 OA
ATOM      2  C   UNL     1      18.961   9.408  38.452  0.00  0.00    +0.000 C 
ATOM      3  N   UNL     1      17.833   8.832  39.094  0.00  0.00    +0.000 NA
ENDROOT
BRANCH   3   4
ATOM      4  N   UNL     1      17.981   8.050  40.241  0.00  0.00    +0.000 NA
ATOM      5  C   UNL     1      17.268   8.294  41.259  0.00  0.00    +0.000 C 
ATOM      6  C   UNL     1      16.255   9.348  41.393  0.00  0.00    +0.000 C 
ATOM      7  C   UNL     1      16.307   9.755  42.851  0.00  0.00    +0.000 C 
ATOM      8  C   UNL     1      17.143   8.688  43.542  0.00  0.00    +0.000 C 
ATOM      9  C   UNL     1      17.301   7.566  42.539  0.00  0.00    +0.000 C 
ENDBRANCH   3   4
BRANCH   2  10
ATOM     10  C   UNL     1      18.834  10.251  37.221  0.00  0.00    +0.000 C 
BRANCH  10  11
ATOM     11  N   UNL     1      17.740   9.780  36.400  0.00  0.00    +0.000 NA
BRANCH  11  12
ATOM     12  C   UNL     1      16.682  10.691  36.125  0.00  0.00    +0.000 A 
ATOM     13  C   UNL     1      15.923  11.267  37.120  0.00  0.00    +0.000 A 
ATOM     14  C   UNL     1      14.902  12.147  36.858  0.00  0.00    +0.000 A 
ATOM     15  C   UNL     1      14.593  12.491  35.544  0.00  0.00    +0.000 A 
ATOM     16  C   UNL     1      15.348  11.918  34.543  0.00  0.00    +0.000 A 
ATOM     17  C   UNL     1      16.379  11.031  34.806  0.00  0.00    +0.000 A 
ATOM     18 CL   UNL     1      17.333  10.307  33.519  0.00  0.00    +0.000 Cl
ENDBRANCH  11  12
ENDBRANCH  10  11
ENDBRANCH   2  10
TORSDOF 4
ENDMDL
MODEL 7
REMARK VINA RESULT:      -5.5      5.550      8.593
REMARK  Name = 
REMARK  4 active torsions:
REMARK  status: ('A' for Active; 'I' for Inactive)
REMARK    1  A    between atoms: C_2  and  C_3
REMARK    2  A    between atoms: C_3  and  N_4
REMARK    3  A    between atoms: N_4  and  C_5
REMARK    4  A    between atoms: N_12  and  N_13
REMARK                            x       y       z     vdW  Elec       q    Type
REMARK                         _______ _______ _______ _____ _____    ______ ____
ROOT
ATOM      1  O   UNL     1      25.782  25.183  26.108  0.00  0.00    +0.000 OA
ATOM      2  C   UNL     1      25.997  23.987  26.411  0.00  0.00    +0.000 C 
ATOM      3  N   UNL     1      26.052  23.038  25.354  0.00  0.00    +0.000 NA
ENDROOT
BRANCH   3   4
ATOM      4  N   UNL     1      25.872  23.430  24.027  0.00  0.00    +0.000 NA
ATOM      5  C   UNL     1      26.876  23.513  23.259  0.00  0.00    +0.000 C 
ATOM      6  C   UNL     1      28.276  23.235  23.606  0.00  0.00    +0.000 C 
ATOM      7  C   UNL     1      29.085  24.190  22.753  0.00  0.00    +0.000 C 
ATOM      8  C   UNL     1      28.107  24.755  21.733  0.00  0.00    +0.000 C 
ATOM      9  C   UNL     1      26.857  23.909  21.841  0.00  0.00    +0.000 C 
ENDBRANCH   3   4
BRANCH   2  10
ATOM     10  C   UNL     1      26.185  23.596  27.844  0.00  0.00    +0.000 C 
BRANCH  10  11
ATOM     11  N   UNL     1      27.456  24.082  28.334  0.00  0.00    +0.000 NA
BRANCH  11  12
ATOM     12  C   UNL     1      28.630  23.675  27.641  0.00  0.00    +0.000 A 
ATOM     13  C   UNL     1      29.010  22.355  27.540  0.00  0.00    +0.000 A 
ATOM     14  C   UNL     1      30.142  21.959  26.871  0.00  0.00    +0.000 A 
ATOM     15  C   UNL     1      30.963  22.904  26.261  0.00  0.00    +0.000 A 
ATOM     16  C   UNL     1      30.588  24.228  26.358  0.00  0.00    +0.000 A 
ATOM     17  C   UNL     1      29.447  24.629  27.032  0.00  0.00    +0.000 A 
ATOM     18 CL   UNL     1      28.982  26.320  27.149  0.00  0.00    +0.000 Cl
ENDBRANCH  11  12
ENDBRANCH  10  11
ENDBRANCH   2  10
TORSDOF 4
ENDMDL
MODEL 8
REMARK VINA RESULT:      -5.5      2.430      7.954
REMARK  Name = 
REMARK  4 active torsions:
REMARK  status: ('A' for Active; 'I' for Inactive)
REMARK    1  A    between atoms: C_2  and  C_3
REMARK    2  A    between atoms: C_3  and  N_4
REMARK    3  A    between atoms: N_4  and  C_5
REMARK    4  A    between atoms: N_12  and  N_13
REMARK                            x       y       z     vdW  Elec       q    Type
REMARK                         _______ _______ _______ _____ _____    ______ ____
ROOT
ATOM      1  O   UNL     1      28.368  26.760  21.543  0.00  0.00    +0.000 OA
ATOM      2  C   UNL     1      29.073  25.904  20.959  0.00  0.00    +0.000 C 
ATOM      3  N   UNL     1      29.907  26.347  19.897  0.00  0.00    +0.000 NA
ENDROOT
BRANCH   3   4
ATOM      4  N   UNL     1      29.937  27.690  19.521  0.00  0.00    +0.000 NA
ATOM      5  C   UNL     1      30.079  27.993  18.299  0.00  0.00    +0.000 C 
ATOM      6  C   UNL     1      30.223  27.063  17.172  0.00  0.00    +0.000 C 
ATOM      7  C   UNL     1      31.124  27.780  16.189  0.00  0.00    +0.000 C 
ATOM      8  C   UNL     1      31.200  29.218  16.678  0.00  0.00    +0.000 C 
ATOM      9  C   UNL     1      30.130  29.355  17.740  0.00  0.00    +0.000 C 
ENDBRANCH   3   4
BRANCH   2  10
ATOM     10  C   UNL     1      29.019  24.469  21.385  0.00  0.00    +0.000 C 
BRANCH  10  11
ATOM     11  N   UNL     1      29.858  24.258  22.545  0.00  0.00    +0.000 NA
BRANCH  11  12
ATOM     12  C   UNL     1      29.256  23.683  23.699  0.00  0.00    +0.000 A 
ATOM     13  C   UNL     1      27.893  23.682  23.901  0.00  0.00    +0.000 A 
ATOM     14  C   UNL     1      27.308  23.128  25.012  0.00  0.00    +0.000 A 
ATOM     15  C   UNL     1      28.096  22.536  25.997  0.00  0.00    +0.000 A 
ATOM     16  C   UNL     1      29.461  22.533  25.802  0.00  0.00    +0.000 A 
ATOM     17  C   UNL     1      30.052  23.091  24.680  0.00  0.00    +0.000 A 
ATOM     18 CL   UNL     1      31.794  23.082  24.446  0.00  0.00    +0.000 Cl
ENDBRANCH  11  12
ENDBRANCH  10  11
ENDBRANCH   2  10
TORSDOF 4
ENDMDL
MODEL 9
REMARK VINA RESULT:      -5.4     30.855     33.372
REMARK  Name = 
REMARK  4 active torsions:
REMARK  status: ('A' for Active; 'I' for Inactive)
REMARK    1  A    between atoms: C_2  and  C_3
REMARK    2  A    between atoms: C_3  and  N_4
REMARK    3  A    between atoms: N_4  and  C_5
REMARK    4  A    between atoms: N_12  and  N_13
REMARK                            x       y       z     vdW  Elec       q    Type
REMARK                         _______ _______ _______ _____ _____    ______ ____
ROOT
ATOM      1  O   UNL     1      32.949  -6.252  33.781  0.00  0.00    +0.000 OA
ATOM      2  C   UNL     1      33.284  -5.137  33.320  0.00  0.00    +0.000 C 
ATOM      3  N   UNL     1      34.100  -5.122  32.157  0.00  0.00    +0.000 NA
ENDROOT
BRANCH   3   4
ATOM      4  N   UNL     1      34.511  -6.310  31.552  0.00  0.00    +0.000 NA
ATOM      5  C   UNL     1      34.504  -6.403  30.288  0.00  0.00    +0.000 C 
ATOM      6  C   UNL     1      34.096  -5.367  29.331  0.00  0.00    +0.000 C 
ATOM      7  C   UNL     1      33.496  -6.127  28.167  0.00  0.00    +0.000 C 
ATOM      8  C   UNL     1      33.874  -7.584  28.392  0.00  0.00    +0.000 C 
ATOM      9  C   UNL     1      34.905  -7.581  29.500  0.00  0.00    +0.000 C 
ENDBRANCH   3   4
BRANCH   2  10
ATOM     10  C   UNL     1      32.828  -3.878  33.991  0.00  0.00    +0.000 C 
BRANCH  10  11
ATOM     11  N   UNL     1      33.967  -3.085  34.399  0.00  0.00    +0.000 NA
BRANCH  11  12
ATOM     12  C   UNL     1      33.828  -1.669  34.370  0.00  0.00    +0.000 A 
ATOM     13  C   UNL     1      33.928  -0.938  33.207  0.00  0.00    +0.000 A 
ATOM     14  C   UNL     1      33.794   0.428  33.176  0.00  0.00    +0.000 A 
ATOM     15  C   UNL     1      33.550   1.135  34.350  0.00  0.00    +0.000 A 
ATOM     16  C   UNL     1      33.448   0.410  35.519  0.00  0.00    +0.000 A 
ATOM     17  C   UNL     1      33.582  -0.968  35.551  0.00  0.00    +0.000 A 
ATOM     18 CL   UNL     1      33.452  -1.880  37.049  0.00  0.00    +0.000 Cl
ENDBRANCH  11  12
ENDBRANCH  10  11
ENDBRANCH   2  10
TORSDOF 4
ENDMDL
MODEL 10
REMARK VINA RESULT:      -5.4      4.531      8.463
REMARK  Name = 
REMARK  4 active torsions:
REMARK  status: ('A' for Active; 'I' for Inactive)
REMARK    1  A    between atoms: C_2  and  C_3
REMARK    2  A    between atoms: C_3  and  N_4
REMARK    3  A    between atoms: N_4  and  C_5
REMARK    4  A    between atoms: N_12  and  N_13
REMARK                            x       y       z     vdW  Elec       q    Type
REMARK                         _______ _______ _______ _____ _____    ______ ____
ROOT
ATOM      1  O   UNL     1      27.005  25.940  26.178  0.00  0.00    +0.000 OA
ATOM      2  C   UNL     1      26.529  25.040  25.449  0.00  0.00    +0.000 C 
ATOM      3  N   UNL     1      26.475  25.282  24.050  0.00  0.00    +0.000 NA
ENDROOT
BRANCH   3   4
ATOM      4  N   UNL     1      26.938  26.483  23.510  0.00  0.00    +0.000 NA
ATOM      5  C   UNL     1      27.536  26.476  22.394  0.00  0.00    +0.000 C 
ATOM      6  C   UNL     1      27.819  25.306  21.553  0.00  0.00    +0.000 C 
ATOM      7  C   UNL     1      29.132  25.627  20.870  0.00  0.00    +0.000 C 
ATOM      8  C   UNL     1      29.376  27.106  21.128  0.00  0.00    +0.000 C 
ATOM      9  C   UNL     1      28.082  27.650  21.692  0.00  0.00    +0.000 C 
ENDBRANCH   3   4
BRANCH   2  10
ATOM     10  C   UNL     1      26.040  23.762  26.056  0.00  0.00    +0.000 C 
BRANCH  10  11
ATOM     11  N   UNL     1      26.886  22.659  25.656  0.00  0.00    +0.000 NA
BRANCH  11  12
ATOM     12  C   UNL     1      28.203  22.611  26.192  0.00  0.00    +0.000 A 
ATOM     13  C   UNL     1      28.451  22.501  27.543  0.00  0.00    +0.000 A 
ATOM     14  C   UNL     1      29.720  22.454  28.063  0.00  0.00    +0.000 A 
ATOM     15  C   UNL     1      30.826  22.518  27.218  0.00  0.00    +0.000 A 
ATOM     16  C   UNL     1      30.587  22.627  25.865  0.00  0.00    +0.000 A 
ATOM     17  C   UNL     1      29.306  22.675  25.339  0.00  0.00    +0.000 A 
ATOM     18 CL   UNL     1      29.016  22.815  23.611  0.00  0.00    +0.000 Cl
ENDBRANCH  11  12
ENDBRANCH  10  11
ENDBRANCH   2  10
TORSDOF 4
ENDMDL
