MODEL 1
REMARK VINA RESULT:      -7.2      0.000      0.000
REMARK  Name = 
REMARK  1 active torsions:
REMARK  status: ('A' for Active; 'I' for Inactive)
REMARK    1  A    between atoms: N_2  and  C_3
REMARK                            x       y       z     vdW  Elec       q    Type
REMARK                         _______ _______ _______ _____ _____    ______ ____
ROOT
ATOM      1  C   UNL     1      23.233   2.214  17.535  0.00  0.00    +0.000 A 
ATOM      2  C   UNL     1      23.851   2.528  18.728  0.00  0.00    +0.000 A 
ATOM      3  C   UNL     1      24.848   3.490  18.810  0.00  0.00    +0.000 A 
ATOM      4  C   UNL     1      25.253   4.164  17.687  0.00  0.00    +0.000 A 
ATOM      5  C   UNL     1      24.643   3.857  16.486  0.00  0.00    +0.000 A 
ATOM      6  C   UNL     1      23.646   2.894  16.410  0.00  0.00    +0.000 A 
ATOM      7  C   UNL     1      25.107   4.601  15.307  0.00  0.00    +0.000 C 
ATOM      8  O   UNL     1      24.600   4.375  14.195  0.00  0.00    +0.000 OA
ATOM      9  C   UNL     1      26.151   5.610  15.385  0.00  0.00    +0.000 A 
ATOM     10  C   UNL     1      26.822   6.473  14.550  0.00  0.00    +0.000 A 
ATOM     11  C   UNL     1      26.565   6.577  13.098  0.00  0.00    +0.000 C 
ATOM     12  N   UNL     1      27.723   7.183  15.274  0.00  0.00    +0.000 N 
ATOM     13  C   UNL     1      28.619   8.193  14.746  0.00  0.00    +0.000 C 
ATOM     14  C   UNL     1      27.663   6.806  16.574  0.00  0.00    +0.000 A 
ATOM     15  C   UNL     1      28.310   7.157  17.742  0.00  0.00    +0.000 A 
ATOM     16  C   UNL     1      27.931   6.498  18.910  0.00  0.00    +0.000 A 
ATOM     17  C   UNL     1      26.944   5.519  18.943  0.00  0.00    +0.000 A 
ATOM     18  C   UNL     1      26.307   5.181  17.764  0.00  0.00    +0.000 A 
ATOM     19  C   UNL     1      26.694   5.838  16.628  0.00  0.00    +0.000 A 
ENDROOT
BRANCH   1  21
ATOM     20  C   UNL     1      20.817   1.613  17.593  0.00  0.00    +0.000 C 
ATOM     21  N   UNL     1      22.206   1.214  17.488  0.00  0.00    +0.000 NA
ENDBRANCH   1  21
TORSDOF 1
ENDMDL
MODEL 2
REMARK VINA RESULT:      -7.1     14.151     17.685
REMARK  Name = 
REMARK  1 active torsions:
REMARK  status: ('A' for Active; 'I' for Inactive)
REMARK    1  A    between atoms: N_2  and  C_3
REMARK                            x       y       z     vdW  Elec       q    Type
REMARK                         _______ _______ _______ _____ _____    ______ ____
ROOT
ATOM      1  C   UNL     1      23.830  -7.439  23.776  0.00  0.00    +0.000 A 
ATOM      2  C   UNL     1      23.104  -6.266  23.761  0.00  0.00    +0.000 A 
ATOM      3  C   UNL     1      21.922  -6.121  24.474  0.00  0.00    +0.000 A 
ATOM      4  C   UNL     1      21.435  -7.159  25.225  0.00  0.00    +0.000 A 
ATOM      5  C   UNL     1      22.153  -8.340  25.248  0.00  0.00    +0.000 A 
ATOM      6  C   UNL     1      23.334  -8.479  24.533  0.00  0.00    +0.000 A 
ATOM      7  C   UNL     1      21.596  -9.428  26.064  0.00  0.00    +0.000 C 
ATOM      8  O   UNL     1      22.190 -10.516  26.130  0.00  0.00    +0.000 OA
ATOM      9  C   UNL     1      20.359  -9.283  26.813  0.00  0.00    +0.000 A 
ATOM     10  C   UNL     1      19.559 -10.030  27.647  0.00  0.00    +0.000 A 
ATOM     11  C   UNL     1      19.855 -11.425  28.036  0.00  0.00    +0.000 C 
ATOM     12  N   UNL     1      18.495  -9.282  28.032  0.00  0.00    +0.000 N 
ATOM     13  C   UNL     1      17.430  -9.723  28.911  0.00  0.00    +0.000 C 
ATOM     14  C   UNL     1      18.573  -8.053  27.468  0.00  0.00    +0.000 A 
ATOM     15  C   UNL     1      17.812  -6.900  27.485  0.00  0.00    +0.000 A 
ATOM     16  C   UNL     1      18.268  -5.817  26.735  0.00  0.00    +0.000 A 
ATOM     17  C   UNL     1      19.438  -5.853  25.985  0.00  0.00    +0.000 A 
ATOM     18  C   UNL     1      20.186  -7.015  25.981  0.00  0.00    +0.000 A 
ATOM     19  C   UNL     1      19.722  -8.067  26.721  0.00  0.00    +0.000 A 
ENDROOT
BRANCH   1  21
ATOM     20  C   UNL     1      25.527  -8.865  22.644  0.00  0.00    +0.000 C 
ATOM     21  N   UNL     1      25.047  -7.554  23.028  0.00  0.00    +0.000 NA
ENDBRANCH   1  21
TORSDOF 1
ENDMDL
MODEL 3
REMARK VINA RESULT:      -7.1     20.109     21.728
REMARK  Name = 
REMARK  1 active torsions:
REMARK  status: ('A' for Active; 'I' for Inactive)
REMARK    1  A    between atoms: N_2  and  C_3
REMARK                            x       y       z     vdW  Elec       q    Type
REMARK                         _______ _______ _______ _____ _____    ______ ____
ROOT
ATOM      1  C   UNL     1      27.937  23.296  23.499  0.00  0.00    +0.000 A 
ATOM      2  C   UNL     1      26.712  23.425  24.122  0.00  0.00    +0.000 A 
ATOM      3  C   UNL     1      26.576  23.352  25.502  0.00  0.00    +0.000 A 
ATOM      4  C   UNL     1      27.675  23.145  26.295  0.00  0.00    +0.000 A 
ATOM      5  C   UNL     1      28.907  23.013  25.683  0.00  0.00    +0.000 A 
ATOM      6  C   UNL     1      29.036  23.088  24.303  0.00  0.00    +0.000 A 
ATOM      7  C   UNL     1      30.058  22.792  26.569  0.00  0.00    +0.000 C 
ATOM      8  O   UNL     1      31.195  22.666  26.085  0.00  0.00    +0.000 OA
ATOM      9  C   UNL     1      29.923  22.715  28.014  0.00  0.00    +0.000 A 
ATOM     10  C   UNL     1      30.719  22.528  29.121  0.00  0.00    +0.000 A 
ATOM     11  C   UNL     1      32.182  22.328  29.055  0.00  0.00    +0.000 C 
ATOM     12  N   UNL     1      29.948  22.562  30.236  0.00  0.00    +0.000 N 
ATOM     13  C   UNL     1      30.426  22.403  31.596  0.00  0.00    +0.000 C 
ATOM     14  C   UNL     1      28.654  22.766  29.890  0.00  0.00    +0.000 A 
ATOM     15  C   UNL     1      27.453  22.890  30.560  0.00  0.00    +0.000 A 
ATOM     16  C   UNL     1      26.307  23.101  29.794  0.00  0.00    +0.000 A 
ATOM     17  C   UNL     1      26.329  23.191  28.407  0.00  0.00    +0.000 A 
ATOM     18  C   UNL     1      27.540  23.066  27.754  0.00  0.00    +0.000 A 
ATOM     19  C   UNL     1      28.652  22.857  28.522  0.00  0.00    +0.000 A 
ENDROOT
BRANCH   1  21
ATOM     20  C   UNL     1      28.943  24.341  21.476  0.00  0.00    +0.000 C 
ATOM     21  N   UNL     1      28.040  23.377  22.072  0.00  0.00    +0.000 NA
ENDBRANCH   1  21
TORSDOF 1
ENDMDL
MODEL 4
REMARK VINA RESULT:      -7.0     23.053     24.701
REMARK  Name = 
REMARK  1 active torsions:
REMARK  status: ('A' for Active; 'I' for Inactive)
REMARK    1  A    between atoms: N_2  and  C_3
REMARK                            x       y       z     vdW  Elec       q    Type
REMARK                         _______ _______ _______ _____ _____    ______ ____
ROOT
ATOM      1  C   UNL     1      17.662   8.886  41.155  0.00  0.00    +0.000 A 
ATOM      2  C   UNL     1      16.349   9.025  41.555  0.00  0.00    +0.000 A 
ATOM      3  C   UNL     1      15.387   9.602  40.738  0.00  0.00    +0.000 A 
ATOM      4  C   UNL     1      15.722  10.059  39.490  0.00  0.00    +0.000 A 
ATOM      5  C   UNL     1      17.035   9.926  39.078  0.00  0.00    +0.000 A 
ATOM      6  C   UNL     1      17.993   9.348  39.899  0.00  0.00    +0.000 A 
ATOM      7  C   UNL     1      17.353  10.428  37.734  0.00  0.00    +0.000 C 
ATOM      8  O   UNL     1      18.513  10.340  37.300  0.00  0.00    +0.000 OA
ATOM      9  C   UNL     1      16.350  11.034  36.873  0.00  0.00    +0.000 A 
ATOM     10  C   UNL     1      16.263  11.594  35.619  0.00  0.00    +0.000 A 
ATOM     11  C   UNL     1      17.409  11.719  34.694  0.00  0.00    +0.000 C 
ATOM     12  N   UNL     1      14.985  11.990  35.396  0.00  0.00    +0.000 N 
ATOM     13  C   UNL     1      14.499  12.624  34.186  0.00  0.00    +0.000 C 
ATOM     14  C   UNL     1      14.223  11.705  36.479  0.00  0.00    +0.000 A 
ATOM     15  C   UNL     1      12.898  11.866  36.834  0.00  0.00    +0.000 A 
ATOM     16  C   UNL     1      12.509  11.417  38.095  0.00  0.00    +0.000 A 
ATOM     17  C   UNL     1      13.390  10.824  38.992  0.00  0.00    +0.000 A 
ATOM     18  C   UNL     1      14.712  10.671  38.620  0.00  0.00    +0.000 A 
ATOM     19  C   UNL     1      15.074  11.119  37.380  0.00  0.00    +0.000 A 
ENDROOT
BRANCH   1  21
ATOM     20  C   UNL     1      18.390   6.955  42.548  0.00  0.00    +0.000 C 
ATOM     21  N   UNL     1      18.630   8.285  42.025  0.00  0.00    +0.000 NA
ENDBRANCH   1  21
TORSDOF 1
ENDMDL
MODEL 5
REMARK VINA RESULT:      -6.8     20.663     21.851
REMARK  Name = 
REMARK  1 active torsions:
REMARK  status: ('A' for Active; 'I' for Inactive)
REMARK    1  A    between atoms: N_2  and  C_3
REMARK                            x       y       z     vdW  Elec       q    Type
REMARK                         _______ _______ _______ _____ _____    ______ ____
ROOT
ATOM      1  C   UNL     1      29.093  25.380  21.145  0.00  0.00    +0.000 A 
ATOM      2  C   UNL     1      27.846  25.921  21.379  0.00  0.00    +0.000 A 
ATOM      3  C   UNL     1      27.156  25.699  22.562  0.00  0.00    +0.000 A 
ATOM      4  C   UNL     1      27.705  24.920  23.548  0.00  0.00    +0.000 A 
ATOM      5  C   UNL     1      28.954  24.371  23.325  0.00  0.00    +0.000 A 
ATOM      6  C   UNL     1      29.639  24.598  22.140  0.00  0.00    +0.000 A 
ATOM      7  C   UNL     1      29.506  23.543  24.406  0.00  0.00    +0.000 C 
ATOM      8  O   UNL     1      30.624  23.020  24.273  0.00  0.00    +0.000 OA
ATOM      9  C   UNL     1      28.789  23.306  25.648  0.00  0.00    +0.000 A 
ATOM     10  C   UNL     1      28.964  22.626  26.832  0.00  0.00    +0.000 A 
ATOM     11  C   UNL     1      30.168  21.832  27.153  0.00  0.00    +0.000 C 
ATOM     12  N   UNL     1      27.874  22.813  27.618  0.00  0.00    +0.000 N 
ATOM     13  C   UNL     1      27.686  22.255  28.943  0.00  0.00    +0.000 C 
ATOM     14  C   UNL     1      26.979  23.603  26.977  0.00  0.00    +0.000 A 
ATOM     15  C   UNL     1      25.731  24.123  27.258  0.00  0.00    +0.000 A 
ATOM     16  C   UNL     1      25.132  24.920  26.285  0.00  0.00    +0.000 A 
ATOM     17  C   UNL     1      25.733  25.208  25.065  0.00  0.00    +0.000 A 
ATOM     18  C   UNL     1      26.983  24.680  24.802  0.00  0.00    +0.000 A 
ATOM     19  C   UNL     1      27.553  23.898  25.768  0.00  0.00    +0.000 A 
ENDROOT
BRANCH   1  21
ATOM     20  C   UNL     1      29.918  26.992  19.437  0.00  0.00    +0.000 C 
ATOM     21  N   UNL     1      29.777  25.630  19.911  0.00  0.00    +0.000 NA
ENDBRANCH   1  21
TORSDOF 1
ENDMDL
MODEL 6
REMARK VINA RESULT:      -6.8     19.270     21.836
REMARK  Name = 
REMARK  1 active torsions:
REMARK  status: ('A' for Active; 'I' for Inactive)
REMARK    1  A    between atoms: N_2  and  C_3
REMARK                            x       y       z     vdW  Elec       q    Type
REMARK                         _______ _______ _______ _____ _____    ______ ____
ROOT
ATOM      1  C   UNL     1      33.941   5.903  36.496  0.00  0.00    +0.000 A 
ATOM      2  C   UNL     1      33.917   5.855  35.117  0.00  0.00    +0.000 A 
ATOM      3  C   UNL     1      33.915   4.653  34.422  0.00  0.00    +0.000 A 
ATOM      4  C   UNL     1      33.939   3.462  35.100  0.00  0.00    +0.000 A 
ATOM      5  C   UNL     1      33.964   3.497  36.481  0.00  0.00    +0.000 A 
ATOM      6  C   UNL     1      33.965   4.702  37.171  0.00  0.00    +0.000 A 
ATOM      7  C   UNL     1      33.990   2.199  37.169  0.00  0.00    +0.000 C 
ATOM      8  O   UNL     1      34.013   2.157  38.409  0.00  0.00    +0.000 OA
ATOM      9  C   UNL     1      33.988   0.937  36.447  0.00  0.00    +0.000 A 
ATOM     10  C   UNL     1      34.006  -0.412  36.719  0.00  0.00    +0.000 A 
ATOM     11  C   UNL     1      34.036  -0.974  38.085  0.00  0.00    +0.000 C 
ATOM     12  N   UNL     1      33.991  -1.102  35.551  0.00  0.00    +0.000 N 
ATOM     13  C   UNL     1      34.002  -2.546  35.426  0.00  0.00    +0.000 C 
ATOM     14  C   UNL     1      33.963  -0.236  34.509  0.00  0.00    +0.000 A 
ATOM     15  C   UNL     1      33.939  -0.337  33.132  0.00  0.00    +0.000 A 
ATOM     16  C   UNL     1      33.914   0.849  32.400  0.00  0.00    +0.000 A 
ATOM     17  C   UNL     1      33.914   2.106  32.994  0.00  0.00    +0.000 A 
ATOM     18  C   UNL     1      33.938   2.188  34.373  0.00  0.00    +0.000 A 
ATOM     19  C   UNL     1      33.963   1.013  35.073  0.00  0.00    +0.000 A 
ENDROOT
BRANCH   1  21
ATOM     20  C   UNL     1      34.754   7.327  38.370  0.00  0.00    +0.000 C 
ATOM     21  N   UNL     1      33.942   7.162  37.181  0.00  0.00    +0.000 NA
ENDBRANCH   1  21
TORSDOF 1
ENDMDL
MODEL 7
REMARK VINA RESULT:      -6.6     20.353     22.054
REMARK  Name = 
REMARK  1 active torsions:
REMARK  status: ('A' for Active; 'I' for Inactive)
REMARK    1  A    between atoms: N_2  and  C_3
REMARK                            x       y       z     vdW  Elec       q    Type
REMARK                         _______ _______ _______ _____ _____    ______ ____
ROOT
ATOM      1  C   UNL     1      31.310  22.182  30.442  0.00  0.00    +0.000 A 
ATOM      2  C   UNL     1      32.044  21.883  29.313  0.00  0.00    +0.000 A 
ATOM      3  C   UNL     1      31.536  22.065  28.033  0.00  0.00    +0.000 A 
ATOM      4  C   UNL     1      30.269  22.556  27.856  0.00  0.00    +0.000 A 
ATOM      5  C   UNL     1      29.523  22.860  28.980  0.00  0.00    +0.000 A 
ATOM      6  C   UNL     1      30.037  22.675  30.256  0.00  0.00    +0.000 A 
ATOM      7  C   UNL     1      28.170  23.383  28.745  0.00  0.00    +0.000 C 
ATOM      8  O   UNL     1      27.446  23.677  29.710  0.00  0.00    +0.000 OA
ATOM      9  C   UNL     1      27.632  23.577  27.409  0.00  0.00    +0.000 A 
ATOM     10  C   UNL     1      26.473  24.020  26.813  0.00  0.00    +0.000 A 
ATOM     11  C   UNL     1      25.291  24.490  27.564  0.00  0.00    +0.000 C 
ATOM     12  N   UNL     1      26.611  23.950  25.465  0.00  0.00    +0.000 N 
ATOM     13  C   UNL     1      25.603  24.331  24.495  0.00  0.00    +0.000 C 
ATOM     14  C   UNL     1      27.839  23.469  25.156  0.00  0.00    +0.000 A 
ATOM     15  C   UNL     1      28.534  23.185  23.996  0.00  0.00    +0.000 A 
ATOM     16  C   UNL     1      29.827  22.683  24.127  0.00  0.00    +0.000 A 
ATOM     17  C   UNL     1      30.434  22.461  25.359  0.00  0.00    +0.000 A 
ATOM     18  C   UNL     1      29.724  22.752  26.508  0.00  0.00    +0.000 A 
ATOM     19  C   UNL     1      28.456  23.243  26.359  0.00  0.00    +0.000 A 
ENDROOT
BRANCH   1  21
ATOM     20  C   UNL     1      33.122  21.272  31.886  0.00  0.00    +0.000 C 
ATOM     21  N   UNL     1      31.866  21.981  31.747  0.00  0.00    +0.000 NA
ENDBRANCH   1  21
TORSDOF 1
ENDMDL
MODEL 8
REMARK VINA RESULT:      -6.2     19.607     21.513
REMARK  Name = 
REMARK  1 active torsions:
REMARK  status: ('A' for Active; 'I' for Inactive)
REMARK    1  A    between atoms: N_2  and  C_3
REMARK                            x       y       z     vdW  Elec       q    Type
REMARK                         _______ _______ _______ _____ _____    ______ ____
ROOT
ATOM      1  C   UNL     1      33.561  -4.217  35.106  0.00  0.00    +0.000 A 
ATOM      2  C   UNL     1      33.545  -3.753  33.806  0.00  0.00    +0.000 A 
ATOM      3  C   UNL     1      33.605  -2.398  33.507  0.00  0.00    +0.000 A 
ATOM      4  C   UNL     1      33.682  -1.470  34.513  0.00  0.00    +0.000 A 
ATOM      5  C   UNL     1      33.698  -1.924  35.819  0.00  0.00    +0.000 A 
ATOM      6  C   UNL     1      33.638  -3.279  36.112  0.00  0.00    +0.000 A 
ATOM      7  C   UNL     1      33.782  -0.897  36.867  0.00  0.00    +0.000 C 
ATOM      8  O   UNL     1      33.801  -1.234  38.062  0.00  0.00    +0.000 OA
ATOM      9  C   UNL     1      33.845   0.523  36.561  0.00  0.00    +0.000 A 
ATOM     10  C   UNL     1      33.925   1.724  37.228  0.00  0.00    +0.000 A 
ATOM     11  C   UNL     1      33.976   1.844  38.700  0.00  0.00    +0.000 C 
ATOM     12  N   UNL     1      33.950   2.735  36.324  0.00  0.00    +0.000 N 
ATOM     13  C   UNL     1      34.031   4.147  36.642  0.00  0.00    +0.000 C 
ATOM     14  C   UNL     1      33.887   2.228  35.069  0.00  0.00    +0.000 A 
ATOM     15  C   UNL     1      33.875   2.741  33.788  0.00  0.00    +0.000 A 
ATOM     16  C   UNL     1      33.796   1.835  32.732  0.00  0.00    +0.000 A 
ATOM     17  C   UNL     1      33.732   0.459  32.917  0.00  0.00    +0.000 A 
ATOM     18  C   UNL     1      33.746  -0.037  34.206  0.00  0.00    +0.000 A 
ATOM     19  C   UNL     1      33.822   0.868  35.229  0.00  0.00    +0.000 A 
ENDROOT
BRANCH   1  21
ATOM     20  C   UNL     1      32.457  -6.135  36.248  0.00  0.00    +0.000 C 
ATOM     21  N   UNL     1      33.497  -5.623  35.378  0.00  0.00    +0.000 NA
ENDBRANCH   1  21
TORSDOF 1
ENDMDL
MODEL 9
REMARK VINA RESULT:      -6.1     20.625     22.169
REMARK  Name = 
REMARK  1 active torsions:
REMARK  status: ('A' for Active; 'I' for Inactive)
REMARK    1  A    between atoms: N_2  and  C_3
REMARK                            x       y       z     vdW  Elec       q    Type
REMARK                         _______ _______ _______ _____ _____    ______ ____
ROOT
ATOM      1  C   UNL     1      27.866  26.778  21.329  0.00  0.00    +0.000 A 
ATOM      2  C   UNL     1      29.047  26.078  21.182  0.00  0.00    +0.000 A 
ATOM      3  C   UNL     1      29.490  25.173  22.137  0.00  0.00    +0.000 A 
ATOM      4  C   UNL     1      28.754  24.947  23.271  0.00  0.00    +0.000 A 
ATOM      5  C   UNL     1      27.570  25.642  23.430  0.00  0.00    +0.000 A 
ATOM      6  C   UNL     1      27.132  26.546  22.472  0.00  0.00    +0.000 A 
ATOM      7  C   UNL     1      26.812  25.371  24.659  0.00  0.00    +0.000 C 
ATOM      8  O   UNL     1      25.739  25.961  24.865  0.00  0.00    +0.000 OA
ATOM      9  C   UNL     1      27.271  24.425  25.662  0.00  0.00    +0.000 A 
ATOM     10  C   UNL     1      26.864  23.926  26.879  0.00  0.00    +0.000 A 
ATOM     11  C   UNL     1      25.616  24.333  27.557  0.00  0.00    +0.000 C 
ATOM     12  N   UNL     1      27.780  23.029  27.321  0.00  0.00    +0.000 N 
ATOM     13  C   UNL     1      27.702  22.290  28.567  0.00  0.00    +0.000 C 
ATOM     14  C   UNL     1      28.788  22.923  26.422  0.00  0.00    +0.000 A 
ATOM     15  C   UNL     1      29.960  22.200  26.320  0.00  0.00    +0.000 A 
ATOM     16  C   UNL     1      30.742  22.397  25.184  0.00  0.00    +0.000 A 
ATOM     17  C   UNL     1      30.393  23.278  24.167  0.00  0.00    +0.000 A 
ATOM     18  C   UNL     1      29.216  23.993  24.285  0.00  0.00    +0.000 A 
ATOM     19  C   UNL     1      28.463  23.787  25.408  0.00  0.00    +0.000 A 
ENDROOT
BRANCH   1  21
ATOM     20  C   UNL     1      28.426  28.490  19.611  0.00  0.00    +0.000 C 
ATOM     21  N   UNL     1      27.438  27.705  20.323  0.00  0.00    +0.000 NA
ENDBRANCH   1  21
TORSDOF 1
ENDMDL
MODEL 10
REMARK VINA RESULT:      -6.0     20.421     22.334
REMARK  Name = 
REMARK  1 active torsions:
REMARK  status: ('A' for Active; 'I' for Inactive)
REMARK    1  A    between atoms: N_2  and  C_3
REMARK                            x       y       z     vdW  Elec       q    Type
REMARK                         _______ _______ _______ _____ _____    ______ ____
ROOT
ATOM      1  C   UNL     1      23.184  26.560  25.620  0.00  0.00    +0.000 A 
ATOM      2  C   UNL     1      23.042  26.298  26.968  0.00  0.00    +0.000 A 
ATOM      3  C   UNL     1      23.962  25.529  27.669  0.00  0.00    +0.000 A 
ATOM      4  C   UNL     1      25.053  25.001  27.030  0.00  0.00    +0.000 A 
ATOM      5  C   UNL     1      25.205  25.257  25.680  0.00  0.00    +0.000 A 
ATOM      6  C   UNL     1      24.283  26.026  24.984  0.00  0.00    +0.000 A 
ATOM      7  C   UNL     1      26.388  24.672  25.032  0.00  0.00    +0.000 C 
ATOM      8  O   UNL     1      26.586  24.862  23.821  0.00  0.00    +0.000 OA
ATOM      9  C   UNL     1      27.354  23.867  25.761  0.00  0.00    +0.000 A 
ATOM     10  C   UNL     1      28.524  23.183  25.520  0.00  0.00    +0.000 A 
ATOM     11  C   UNL     1      29.178  23.114  24.196  0.00  0.00    +0.000 C 
ATOM     12  N   UNL     1      28.951  22.611  26.674  0.00  0.00    +0.000 N 
ATOM     13  C   UNL     1      30.150  21.809  26.823  0.00  0.00    +0.000 C 
ATOM     14  C   UNL     1      28.086  22.901  27.675  0.00  0.00    +0.000 A 
ATOM     15  C   UNL     1      27.989  22.611  29.022  0.00  0.00    +0.000 A 
ATOM     16  C   UNL     1      26.895  23.127  29.714  0.00  0.00    +0.000 A 
ATOM     17  C   UNL     1      25.915  23.908  29.111  0.00  0.00    +0.000 A 
ATOM     18  C   UNL     1      26.029  24.188  27.763  0.00  0.00    +0.000 A 
ATOM     19  C   UNL     1      27.109  23.672  27.101  0.00  0.00    +0.000 A 
ENDROOT
BRANCH   1  21
ATOM     20  C   UNL     1      22.661  28.430  24.062  0.00  0.00    +0.000 C 
ATOM     21  N   UNL     1      22.215  27.357  24.928  0.00  0.00    +0.000 NA
ENDBRANCH   1  21
TORSDOF 1
ENDMDL
