MODEL 1
REMARK VINA RESULT:      -7.1      0.000      0.000
REMARK  Name = 
REMARK  3 active torsions:
REMARK  status: ('A' for Active; 'I' for Inactive)
REMARK    1  A    between atoms: C_2  and  C_12
REMARK    2  A    between atoms: N_3  and  N_4
REMARK    3  A    between atoms: N_4  and  C_5
REMARK                            x       y       z     vdW  Elec       q    Type
REMARK                         _______ _______ _______ _____ _____    ______ ____
ROOT
ATOM      1  O   UNL     1      14.413  11.966  37.416  0.00  0.00    +0.000 OA
ATOM      2  C   UNL     1      15.415  11.477  36.842  0.00  0.00    +0.000 C 
ATOM      3  N   UNL     1      15.554  11.715  35.450  0.00  0.00    +0.000 NA
ENDROOT
BRANCH   2   4
ATOM      4  C   UNL     1      16.414  10.695  37.536  0.00  0.00    +0.000 A 
ATOM      5  C   UNL     1      16.334  10.381  38.875  0.00  0.00    +0.000 A 
ATOM      6  C   UNL     1      17.291   9.631  39.513  0.00  0.00    +0.000 A 
ATOM      7  C   UNL     1      18.401   9.143  38.844  0.00  0.00    +0.000 A 
ATOM      8 CL   UNL     1      19.616   8.181  39.670  0.00  0.00    +0.000 Cl
ATOM      9  C   UNL     1      18.498   9.447  37.501  0.00  0.00    +0.000 A 
ATOM     10  C   UNL     1      17.533  10.201  36.867  0.00  0.00    +0.000 A 
ENDBRANCH   2   4
BRANCH   3  11
ATOM     11  N   UNL     1      14.633  12.463  34.719  0.00  0.00    +0.000 NA
BRANCH  11  12
ATOM     12  C   UNL     1      14.812  12.647  33.324  0.00  0.00    +0.000 C 
ATOM     13  C   UNL     1      14.048  13.483  32.681  0.00  0.00    +0.000 C 
ATOM     14  C   UNL     1      14.062  13.830  31.224  0.00  0.00    +0.000 C 
ATOM     15  C   UNL     1      15.077  12.947  30.521  0.00  0.00    +0.000 C 
ATOM     16  C   UNL     1      14.638  11.490  30.603  0.00  0.00    +0.000 C 
ATOM     17  C   UNL     1      15.254  10.831  31.806  0.00  0.00    +0.000 C 
ATOM     18  C   UNL     1      15.909  11.819  32.746  0.00  0.00    +0.000 C 
ENDBRANCH  11  12
ENDBRANCH   3  11
TORSDOF 3
ENDMDL
MODEL 2
REMARK VINA RESULT:      -6.7      3.708      7.190
REMARK  Name = 
REMARK  3 active torsions:
REMARK  status: ('A' for Active; 'I' for Inactive)
REMARK    1  A    between atoms: C_2  and  C_12
REMARK    2  A    between atoms: N_3  and  N_4
REMARK    3  A    between atoms: N_4  and  C_5
REMARK                            x       y       z     vdW  Elec       q    Type
REMARK                         _______ _______ _______ _____ _____    ______ ____
ROOT
ATOM      1  O   UNL     1      17.811   9.724  34.341  0.00  0.00    +0.000 OA
ATOM      2  C   UNL     1      16.926  10.528  34.715  0.00  0.00    +0.000 C 
ATOM      3  N   UNL     1      16.735  10.691  36.111  0.00  0.00    +0.000 NA
ENDROOT
BRANCH   2   4
ATOM      4  C   UNL     1      16.110  11.283  33.790  0.00  0.00    +0.000 A 
ATOM      5  C   UNL     1      15.147  12.184  34.190  0.00  0.00    +0.000 A 
ATOM      6  C   UNL     1      14.387  12.896  33.294  0.00  0.00    +0.000 A 
ATOM      7  C   UNL     1      14.546  12.748  31.926  0.00  0.00    +0.000 A 
ATOM      8 CL   UNL     1      13.571  13.668  30.790  0.00  0.00    +0.000 Cl
ATOM      9  C   UNL     1      15.506  11.851  31.506  0.00  0.00    +0.000 A 
ATOM     10  C   UNL     1      16.265  11.140  32.411  0.00  0.00    +0.000 A 
ENDBRANCH   2   4
BRANCH   3  11
ATOM     11  N   UNL     1      17.487  10.001  37.059  0.00  0.00    +0.000 NA
BRANCH  11  12
ATOM     12  C   UNL     1      18.606  10.621  37.671  0.00  0.00    +0.000 C 
ATOM     13  C   UNL     1      18.662  11.921  37.744  0.00  0.00    +0.000 C 
ATOM     14  C   UNL     1      19.736  12.777  38.341  0.00  0.00    +0.000 C 
ATOM     15  C   UNL     1      20.880  11.885  38.789  0.00  0.00    +0.000 C 
ATOM     16  C   UNL     1      21.509  11.205  37.579  0.00  0.00    +0.000 C 
ATOM     17  C   UNL     1      20.869   9.865  37.348  0.00  0.00    +0.000 C 
ATOM     18  C   UNL     1      19.622   9.657  38.181  0.00  0.00    +0.000 C 
ENDBRANCH  11  12
ENDBRANCH   3  11
TORSDOF 3
ENDMDL
MODEL 3
REMARK VINA RESULT:      -6.5     21.379     23.619
REMARK  Name = 
REMARK  3 active torsions:
REMARK  status: ('A' for Active; 'I' for Inactive)
REMARK    1  A    between atoms: C_2  and  C_12
REMARK    2  A    between atoms: N_3  and  N_4
REMARK    3  A    between atoms: N_4  and  C_5
REMARK                            x       y       z     vdW  Elec       q    Type
REMARK                         _______ _______ _______ _____ _____    ______ ____
ROOT
ATOM      1  O   UNL     1      34.245  -3.021  34.946  0.00  0.00    +0.000 OA
ATOM      2  C   UNL     1      33.927  -2.398  33.906  0.00  0.00    +0.000 C 
ATOM      3  N   UNL     1      33.644  -3.160  32.744  0.00  0.00    +0.000 NA
ENDROOT
BRANCH   2   4
ATOM      4  C   UNL     1      33.839  -0.955  33.852  0.00  0.00    +0.000 A 
ATOM      5  C   UNL     1      34.112  -0.222  32.718  0.00  0.00    +0.000 A 
ATOM      6  C   UNL     1      34.015   1.148  32.686  0.00  0.00    +0.000 A 
ATOM      7  C   UNL     1      33.636   1.877  33.801  0.00  0.00    +0.000 A 
ATOM      8 CL   UNL     1      33.512   3.629  33.747  0.00  0.00    +0.000 Cl
ATOM      9  C   UNL     1      33.358   1.160  34.946  0.00  0.00    +0.000 A 
ATOM     10  C   UNL     1      33.457  -0.215  34.971  0.00  0.00    +0.000 A 
ENDBRANCH   2   4
BRANCH   3  11
ATOM     11  N   UNL     1      33.704  -4.553  32.725  0.00  0.00    +0.000 NA
BRANCH  11  12
ATOM     12  C   UNL     1      33.989  -5.237  31.515  0.00  0.00    +0.000 C 
ATOM     13  C   UNL     1      33.088  -5.290  30.576  0.00  0.00    +0.000 C 
ATOM     14  C   UNL     1      33.174  -5.950  29.235  0.00  0.00    +0.000 C 
ATOM     15  C   UNL     1      34.496  -6.690  29.139  0.00  0.00    +0.000 C 
ATOM     16  C   UNL     1      34.532  -7.817  30.165  0.00  0.00    +0.000 C 
ATOM     17  C   UNL     1      35.168  -7.335  31.439  0.00  0.00    +0.000 C 
ATOM     18  C   UNL     1      35.355  -5.833  31.472  0.00  0.00    +0.000 C 
ENDBRANCH  11  12
ENDBRANCH   3  11
TORSDOF 3
ENDMDL
MODEL 4
REMARK VINA RESULT:      -6.4      4.243      7.276
REMARK  Name = 
REMARK  3 active torsions:
REMARK  status: ('A' for Active; 'I' for Inactive)
REMARK    1  A    between atoms: C_2  and  C_12
REMARK    2  A    between atoms: N_3  and  N_4
REMARK    3  A    between atoms: N_4  and  C_5
REMARK                            x       y       z     vdW  Elec       q    Type
REMARK                         _______ _______ _______ _____ _____    ______ ____
ROOT
ATOM      1  O   UNL     1      17.986   8.885  35.157  0.00  0.00    +0.000 OA
ATOM      2  C   UNL     1      17.902   9.887  35.906  0.00  0.00    +0.000 C 
ATOM      3  N   UNL     1      19.066  10.274  36.618  0.00  0.00    +0.000 NA
ENDROOT
BRANCH   2   4
ATOM      4  C   UNL     1      16.682  10.648  36.065  0.00  0.00    +0.000 A 
ATOM      5  C   UNL     1      16.075  10.860  37.283  0.00  0.00    +0.000 A 
ATOM      6  C   UNL     1      14.920  11.593  37.412  0.00  0.00    +0.000 A 
ATOM      7  C   UNL     1      14.293  12.163  36.317  0.00  0.00    +0.000 A 
ATOM      8 CL   UNL     1      12.819  13.102  36.496  0.00  0.00    +0.000 Cl
ATOM      9  C   UNL     1      14.887  11.962  35.088  0.00  0.00    +0.000 A 
ATOM     10  C   UNL     1      16.046  11.226  34.966  0.00  0.00    +0.000 A 
ENDBRANCH   2   4
BRANCH   3  11
ATOM     11  N   UNL     1      20.275   9.590  36.510  0.00  0.00    +0.000 NA
BRANCH  11  12
ATOM     12  C   UNL     1      21.456  10.138  37.072  0.00  0.00    +0.000 C 
ATOM     13  C   UNL     1      21.395  11.256  37.739  0.00  0.00    +0.000 C 
ATOM     14  C   UNL     1      22.504  12.005  38.410  0.00  0.00    +0.000 C 
ATOM     15  C   UNL     1      23.818  11.308  38.108  0.00  0.00    +0.000 C 
ATOM     16  C   UNL     1      24.108  11.377  36.614  0.00  0.00    +0.000 C 
ATOM     17  C   UNL     1      23.574  10.152  35.926  0.00  0.00    +0.000 C 
ATOM     18  C   UNL     1      22.677   9.320  36.818  0.00  0.00    +0.000 C 
ENDBRANCH  11  12
ENDBRANCH   3  11
TORSDOF 3
ENDMDL
MODEL 5
REMARK VINA RESULT:      -6.4      3.412      7.707
REMARK  Name = 
REMARK  3 active torsions:
REMARK  status: ('A' for Active; 'I' for Inactive)
REMARK    1  A    between atoms: C_2  and  C_12
REMARK    2  A    between atoms: N_3  and  N_4
REMARK    3  A    between atoms: N_4  and  C_5
REMARK                            x       y       z     vdW  Elec       q    Type
REMARK                         _______ _______ _______ _____ _____    ______ ____
ROOT
ATOM      1  O   UNL     1      17.998   8.907  35.662  0.00  0.00    +0.000 OA
ATOM      2  C   UNL     1      17.417  10.004  35.838  0.00  0.00    +0.000 C 
ATOM      3  N   UNL     1      17.510  10.598  37.122  0.00  0.00    +0.000 NA
ENDROOT
BRANCH   2   4
ATOM      4  C   UNL     1      16.672  10.673  34.794  0.00  0.00    +0.000 A 
ATOM      5  C   UNL     1      16.891  10.459  33.451  0.00  0.00    +0.000 A 
ATOM      6  C   UNL     1      16.166  11.101  32.476  0.00  0.00    +0.000 A 
ATOM      7  C   UNL     1      15.167  12.007  32.789  0.00  0.00    +0.000 A 
ATOM      8 CL   UNL     1      14.243  12.818  31.533  0.00  0.00    +0.000 Cl
ATOM      9  C   UNL     1      14.933  12.234  34.129  0.00  0.00    +0.000 A 
ATOM     10  C   UNL     1      15.664  11.586  35.103  0.00  0.00    +0.000 A 
ENDBRANCH   2   4
BRANCH   3  11
ATOM     11  N   UNL     1      18.215  10.012  38.172  0.00  0.00    +0.000 NA
BRANCH  11  12
ATOM     12  C   UNL     1      17.526   9.552  39.323  0.00  0.00    +0.000 C 
ATOM     13  C   UNL     1      16.306   9.950  39.547  0.00  0.00    +0.000 C 
ATOM     14  C   UNL     1      15.401   9.593  40.686  0.00  0.00    +0.000 C 
ATOM     15  C   UNL     1      16.171   8.733  41.672  0.00  0.00    +0.000 C 
ATOM     16  C   UNL     1      17.313   9.540  42.278  0.00  0.00    +0.000 C 
ATOM     17  C   UNL     1      18.571   9.335  41.482  0.00  0.00    +0.000 C 
ATOM     18  C   UNL     1      18.327   8.621  40.170  0.00  0.00    +0.000 C 
ENDBRANCH  11  12
ENDBRANCH   3  11
TORSDOF 3
ENDMDL
MODEL 6
REMARK VINA RESULT:      -6.4      3.637      7.892
REMARK  Name = 
REMARK  3 active torsions:
REMARK  status: ('A' for Active; 'I' for Inactive)
REMARK    1  A    between atoms: C_2  and  C_12
REMARK    2  A    between atoms: N_3  and  N_4
REMARK    3  A    between atoms: N_4  and  C_5
REMARK                            x       y       z     vdW  Elec       q    Type
REMARK                         _______ _______ _______ _____ _____    ______ ____
ROOT
ATOM      1  O   UNL     1      19.472   9.616  36.775  0.00  0.00    +0.000 OA
ATOM      2  C   UNL     1      18.299  10.036  36.909  0.00  0.00    +0.000 C 
ATOM      3  N   UNL     1      17.760  10.072  38.221  0.00  0.00    +0.000 NA
ENDROOT
BRANCH   2   4
ATOM      4  C   UNL     1      17.492  10.479  35.794  0.00  0.00    +0.000 A 
ATOM      5  C   UNL     1      16.451  11.374  35.921  0.00  0.00    +0.000 A 
ATOM      6  C   UNL     1      15.701  11.787  34.846  0.00  0.00    +0.000 A 
ATOM      7  C   UNL     1      15.949  11.325  33.565  0.00  0.00    +0.000 A 
ATOM      8 CL   UNL     1      14.986  11.865  32.198  0.00  0.00    +0.000 Cl
ATOM      9  C   UNL     1      16.988  10.429  33.418  0.00  0.00    +0.000 A 
ATOM     10  C   UNL     1      17.737  10.019  34.501  0.00  0.00    +0.000 A 
ENDBRANCH   2   4
BRANCH   3  11
ATOM     11  N   UNL     1      18.482   9.664  39.342  0.00  0.00    +0.000 NA
BRANCH  11  12
ATOM     12  C   UNL     1      17.879   8.820  40.309  0.00  0.00    +0.000 C 
ATOM     13  C   UNL     1      17.991   7.527  40.196  0.00  0.00    +0.000 C 
ATOM     14  C   UNL     1      17.443   6.461  41.092  0.00  0.00    +0.000 C 
ATOM     15  C   UNL     1      16.592   7.114  42.166  0.00  0.00    +0.000 C 
ATOM     16  C   UNL     1      15.384   7.789  41.528  0.00  0.00    +0.000 C 
ATOM     17  C   UNL     1      15.694   9.230  41.232  0.00  0.00    +0.000 C 
ATOM     18  C   UNL     1      17.163   9.560  41.387  0.00  0.00    +0.000 C 
ENDBRANCH  11  12
ENDBRANCH   3  11
TORSDOF 3
ENDMDL
MODEL 7
REMARK VINA RESULT:      -6.3      3.751      7.568
REMARK  Name = 
REMARK  3 active torsions:
REMARK  status: ('A' for Active; 'I' for Inactive)
REMARK    1  A    between atoms: C_2  and  C_12
REMARK    2  A    between atoms: N_3  and  N_4
REMARK    3  A    between atoms: N_4  and  C_5
REMARK                            x       y       z     vdW  Elec       q    Type
REMARK                         _______ _______ _______ _____ _____    ______ ____
ROOT
ATOM      1  O   UNL     1      16.577  11.017  36.727  0.00  0.00    +0.000 OA
ATOM      2  C   UNL     1      17.057  10.657  35.627  0.00  0.00    +0.000 C 
ATOM      3  N   UNL     1      18.247   9.886  35.650  0.00  0.00    +0.000 NA
ENDROOT
BRANCH   2   4
ATOM      4  C   UNL     1      16.448  10.993  34.358  0.00  0.00    +0.000 A 
ATOM      5  C   UNL     1      16.841  10.439  33.159  0.00  0.00    +0.000 A 
ATOM      6  C   UNL     1      16.245  10.767  31.966  0.00  0.00    +0.000 A 
ATOM      7  C   UNL     1      15.207  11.680  31.898  0.00  0.00    +0.000 A 
ATOM      8 CL   UNL     1      14.448  12.089  30.367  0.00  0.00    +0.000 Cl
ATOM      9  C   UNL     1      14.799  12.246  33.089  0.00  0.00    +0.000 A 
ATOM     10  C   UNL     1      15.402  11.912  34.283  0.00  0.00    +0.000 A 
ENDBRANCH   2   4
BRANCH   3  11
ATOM     11  N   UNL     1      18.885   9.522  36.834  0.00  0.00    +0.000 NA
BRANCH  11  12
ATOM     12  C   UNL     1      20.061  10.198  37.247  0.00  0.00    +0.000 C 
ATOM     13  C   UNL     1      21.217   9.832  36.770  0.00  0.00    +0.000 C 
ATOM     14  C   UNL     1      22.571  10.399  37.063  0.00  0.00    +0.000 C 
ATOM     15  C   UNL     1      22.434  11.461  38.140  0.00  0.00    +0.000 C 
ATOM     16  C   UNL     1      21.956  10.821  39.437  0.00  0.00    +0.000 C 
ATOM     17  C   UNL     1      20.456  10.880  39.522  0.00  0.00    +0.000 C 
ATOM     18  C   UNL     1      19.810  11.300  38.219  0.00  0.00    +0.000 C 
ENDBRANCH  11  12
ENDBRANCH   3  11
TORSDOF 3
ENDMDL
MODEL 8
REMARK VINA RESULT:      -6.3      4.266      7.755
REMARK  Name = 
REMARK  3 active torsions:
REMARK  status: ('A' for Active; 'I' for Inactive)
REMARK    1  A    between atoms: C_2  and  C_12
REMARK    2  A    between atoms: N_3  and  N_4
REMARK    3  A    between atoms: N_4  and  C_5
REMARK                            x       y       z     vdW  Elec       q    Type
REMARK                         _______ _______ _______ _____ _____    ______ ____
ROOT
ATOM      1  O   UNL     1      17.315   9.993  37.780  0.00  0.00    +0.000 OA
ATOM      2  C   UNL     1      17.820  10.206  36.652  0.00  0.00    +0.000 C 
ATOM      3  N   UNL     1      19.223  10.043  36.521  0.00  0.00    +0.000 NA
ENDROOT
BRANCH   2   4
ATOM      4  C   UNL     1      17.037  10.602  35.503  0.00  0.00    +0.000 A 
ATOM      5  C   UNL     1      15.907  11.386  35.591  0.00  0.00    +0.000 A 
ATOM      6  C   UNL     1      15.181  11.757  34.485  0.00  0.00    +0.000 A 
ATOM      7  C   UNL     1      15.545  11.362  33.209  0.00  0.00    +0.000 A 
ATOM      8 CL   UNL     1      14.611  11.847  31.802  0.00  0.00    +0.000 Cl
ATOM      9  C   UNL     1      16.674  10.577  33.101  0.00  0.00    +0.000 A 
ATOM     10  C   UNL     1      17.398  10.208  34.215  0.00  0.00    +0.000 A 
ENDBRANCH   2   4
BRANCH   3  11
ATOM     11  N   UNL     1      20.039   9.658  37.583  0.00  0.00    +0.000 NA
BRANCH  11  12
ATOM     12  C   UNL     1      21.439   9.873  37.521  0.00  0.00    +0.000 C 
ATOM     13  C   UNL     1      22.035   9.908  36.363  0.00  0.00    +0.000 C 
ATOM     14  C   UNL     1      23.487  10.120  36.066  0.00  0.00    +0.000 C 
ATOM     15  C   UNL     1      24.249  10.191  37.377  0.00  0.00    +0.000 C 
ATOM     16  C   UNL     1      24.159   8.852  38.100  0.00  0.00    +0.000 C 
ATOM     17  C   UNL     1      22.995   8.856  39.051  0.00  0.00    +0.000 C 
ATOM     18  C   UNL     1      22.080  10.045  38.856  0.00  0.00    +0.000 C 
ENDBRANCH  11  12
ENDBRANCH   3  11
TORSDOF 3
ENDMDL
MODEL 9
REMARK VINA RESULT:      -6.2      4.285      7.444
REMARK  Name = 
REMARK  3 active torsions:
REMARK  status: ('A' for Active; 'I' for Inactive)
REMARK    1  A    between atoms: C_2  and  C_12
REMARK    2  A    between atoms: N_3  and  N_4
REMARK    3  A    between atoms: N_4  and  C_5
REMARK                            x       y       z     vdW  Elec       q    Type
REMARK                         _______ _______ _______ _____ _____    ______ ____
ROOT
ATOM      1  O   UNL     1      17.828   9.400  39.041  0.00  0.00    +0.000 OA
ATOM      2  C   UNL     1      17.845  10.251  38.120  0.00  0.00    +0.000 C 
ATOM      3  N   UNL     1      19.089  10.512  37.490  0.00  0.00    +0.000 NA
ENDROOT
BRANCH   2   4
ATOM      4  C   UNL     1      16.662  10.959  37.685  0.00  0.00    +0.000 A 
ATOM      5  C   UNL     1      16.668  11.893  36.671  0.00  0.00    +0.000 A 
ATOM      6  C   UNL     1      15.530  12.550  36.269  0.00  0.00    +0.000 A 
ATOM      7  C   UNL     1      14.303  12.311  36.863  0.00  0.00    +0.000 A 
ATOM      8 CL   UNL     1      12.854  13.154  36.337  0.00  0.00    +0.000 Cl
ATOM      9  C   UNL     1      14.276  11.378  37.880  0.00  0.00    +0.000 A 
ATOM     10  C   UNL     1      15.422  10.723  38.279  0.00  0.00    +0.000 A 
ENDBRANCH   2   4
BRANCH   3  11
ATOM     11  N   UNL     1      20.267   9.864  37.855  0.00  0.00    +0.000 NA
BRANCH  11  12
ATOM     12  C   UNL     1      21.516  10.331  37.371  0.00  0.00    +0.000 C 
ATOM     13  C   UNL     1      22.171   9.628  36.491  0.00  0.00    +0.000 C 
ATOM     14  C   UNL     1      23.490   9.928  35.851  0.00  0.00    +0.000 C 
ATOM     15  C   UNL     1      24.062  11.189  36.474  0.00  0.00    +0.000 C 
ATOM     16  C   UNL     1      24.356  10.947  37.950  0.00  0.00    +0.000 C 
ATOM     17  C   UNL     1      23.174  11.354  38.786  0.00  0.00    +0.000 C 
ATOM     18  C   UNL     1      21.938  11.635  37.960  0.00  0.00    +0.000 C 
ENDBRANCH  11  12
ENDBRANCH   3  11
TORSDOF 3
ENDMDL
MODEL 10
REMARK VINA RESULT:      -6.0      3.556      4.733
REMARK  Name = 
REMARK  3 active torsions:
REMARK  status: ('A' for Active; 'I' for Inactive)
REMARK    1  A    between atoms: C_2  and  C_12
REMARK    2  A    between atoms: N_3  and  N_4
REMARK    3  A    between atoms: N_4  and  C_5
REMARK                            x       y       z     vdW  Elec       q    Type
REMARK                         _______ _______ _______ _____ _____    ______ ____
ROOT
ATOM      1  O   UNL     1      19.174  11.615  38.460  0.00  0.00    +0.000 OA
ATOM      2  C   UNL     1      19.643  10.784  37.648  0.00  0.00    +0.000 C 
ATOM      3  N   UNL     1      18.724   9.983  36.923  0.00  0.00    +0.000 NA
ENDROOT
BRANCH   2   4
ATOM      4  C   UNL     1      21.063  10.617  37.427  0.00  0.00    +0.000 A 
ATOM      5  C   UNL     1      21.593   9.646  36.606  0.00  0.00    +0.000 A 
ATOM      6  C   UNL     1      22.945   9.510  36.404  0.00  0.00    +0.000 A 
ATOM      7  C   UNL     1      23.861  10.347  37.019  0.00  0.00    +0.000 A 
ATOM      8 CL   UNL     1      25.588  10.166  36.750  0.00  0.00    +0.000 Cl
ATOM      9  C   UNL     1      23.349  11.327  37.845  0.00  0.00    +0.000 A 
ATOM     10  C   UNL     1      21.990  11.457  38.043  0.00  0.00    +0.000 A 
ENDBRANCH   2   4
BRANCH   3  11
ATOM     11  N   UNL     1      17.343  10.092  37.083  0.00  0.00    +0.000 NA
BRANCH  11  12
ATOM     12  C   UNL     1      16.586  10.900  36.197  0.00  0.00    +0.000 C 
ATOM     13  C   UNL     1      15.413  11.333  36.562  0.00  0.00    +0.000 C 
ATOM     14  C   UNL     1      14.454  12.190  35.796  0.00  0.00    +0.000 C 
ATOM     15  C   UNL     1      15.010  12.422  34.403  0.00  0.00    +0.000 C 
ATOM     16  C   UNL     1      15.085  11.099  33.650  0.00  0.00    +0.000 C 
ATOM     17  C   UNL     1      16.443  10.478  33.831  0.00  0.00    +0.000 C 
ATOM     18  C   UNL     1      17.267  11.166  34.897  0.00  0.00    +0.000 C 
ENDBRANCH  11  12
ENDBRANCH   3  11
TORSDOF 3
ENDMDL
