MODEL 1
REMARK VINA RESULT:      -5.7      0.000      0.000
REMARK  Name = 
REMARK  9 active torsions:
REMARK  status: ('A' for Active; 'I' for Inactive)
REMARK    1  A    between atoms: C_6  and  N_7
REMARK    2  A    between atoms: C_8  and  C_10
REMARK    3  A    between atoms: C_10  and  O_12
REMARK    4  A    between atoms: O_12  and  C_13
REMARK    5  A    between atoms: C_13  and  C_15
REMARK    6  A    between atoms: C_15  and  C_16
REMARK    7  A    between atoms: C_16  and  C_17
REMARK    8  A    between atoms: C_17  and  O_18
REMARK    9  A    between atoms: O_18  and  C_19
REMARK                            x       y       z     vdW  Elec       q    Type
REMARK                         _______ _______ _______ _____ _____    ______ ____
ROOT
ATOM      1  C   UNL     1      35.178   2.681  15.612  0.00  0.00    +0.000 C 
ATOM      2  O   UNL     1      34.164   3.384  15.397  0.00  0.00    +0.000 OA
ENDROOT
BRANCH   1   3
ATOM      3  O   UNL     1      36.129   2.628  14.609  0.00  0.00    +0.000 OA
BRANCH   3   4
ATOM      4  C   UNL     1      36.519   3.949  13.959  0.00  0.00    +0.000 C 
ATOM      5  C   UNL     1      37.721   4.256  15.043  0.00  0.00    +0.000 C 
BRANCH   4   7
ATOM      6  N   UNL     1      37.931   1.980  13.165  0.00  0.00    +0.000 NA
ATOM      7  C   UNL     1      37.497   3.323  12.873  0.00  0.00    +0.000 C 
ATOM      8  O   UNL     1      37.862   3.908  11.877  0.00  0.00    +0.000 OA
BRANCH   6  14
ATOM      9  C   UNL     1      42.506   0.593  11.918  0.00  0.00    +0.000 C 
ATOM     10  C   UNL     1      41.045   0.691  11.623  0.00  0.00    +0.000 A 
ATOM     11  C   UNL     1      40.594   0.173  10.433  0.00  0.00    +0.000 A 
ATOM     12  C   UNL     1      39.252   0.256  10.148  0.00  0.00    +0.000 A 
ATOM     13  C   UNL     1      38.374   0.844  11.035  0.00  0.00    +0.000 A 
ATOM     14  C   UNL     1      38.805   1.369  12.232  0.00  0.00    +0.000 A 
ATOM     15  C   UNL     1      40.154   1.270  12.487  0.00  0.00    +0.000 A 
ATOM     16  C   UNL     1      40.655   1.825  13.770  0.00  0.00    +0.000 C 
ENDBRANCH   6  14
ENDBRANCH   4   7
ENDBRANCH   3   4
ENDBRANCH   1   3
BRANCH   1  17
ATOM     17  C   UNL     1      35.428   1.915  16.837  0.00  0.00    +0.000 C 
BRANCH  17  18
ATOM     18  C   UNL     1      34.905   0.536  16.855  0.00  0.00    +0.000 C 
BRANCH  18  19
ATOM     19  C   UNL     1      35.882  -0.528  17.244  0.00  0.00    +0.000 C 
BRANCH  19  20
ATOM     20  O   UNL     1      37.145  -0.132  16.740  0.00  0.00    +0.000 OA
BRANCH  20  21
ATOM     21  C   UNL     1      37.765  -0.784  15.685  0.00  0.00    +0.000 A 
ATOM     22  C   UNL     1      37.000  -1.179  14.619  0.00  0.00    +0.000 A 
ATOM     23  C   UNL     1      37.518  -1.835  13.519  0.00  0.00    +0.000 A 
ATOM     24  C   UNL     1      38.885  -2.092  13.524  0.00  0.00    +0.000 A 
ATOM     25  C   UNL     1      39.456  -2.753  12.434  0.00  0.00    +0.000 A 
ATOM     26  C   UNL     1      40.814  -3.024  12.408  0.00  0.00    +0.000 A 
ATOM     27  C   UNL     1      41.591  -2.632  13.474  0.00  0.00    +0.000 A 
ATOM     28  C   UNL     1      41.004  -1.973  14.555  0.00  0.00    +0.000 A 
ATOM     29  C   UNL     1      39.665  -1.709  14.574  0.00  0.00    +0.000 A 
ATOM     30  C   UNL     1      39.116  -1.046  15.676  0.00  0.00    +0.000 A 
ENDBRANCH  20  21
ENDBRANCH  19  20
ENDBRANCH  18  19
ENDBRANCH  17  18
ENDBRANCH   1  17
TORSDOF 9
ENDMDL
MODEL 2
REMARK VINA RESULT:      -5.7      5.959      9.031
REMARK  Name = 
REMARK  9 active torsions:
REMARK  status: ('A' for Active; 'I' for Inactive)
REMARK    1  A    between atoms: C_6  and  N_7
REMARK    2  A    between atoms: C_8  and  C_10
REMARK    3  A    between atoms: C_10  and  O_12
REMARK    4  A    between atoms: O_12  and  C_13
REMARK    5  A    between atoms: C_13  and  C_15
REMARK    6  A    between atoms: C_15  and  C_16
REMARK    7  A    between atoms: C_16  and  C_17
REMARK    8  A    between atoms: C_17  and  O_18
REMARK    9  A    between atoms: O_18  and  C_19
REMARK                            x       y       z     vdW  Elec       q    Type
REMARK                         _______ _______ _______ _____ _____    ______ ____
ROOT
ATOM      1  C   UNL     1      35.653   7.809  13.481  0.00  0.00    +0.000 C 
ATOM      2  O   UNL     1      35.432   8.637  12.566  0.00  0.00    +0.000 OA
ENDROOT
BRANCH   1   3
ATOM      3  O   UNL     1      35.567   8.274  14.781  0.00  0.00    +0.000 OA
BRANCH   3   4
ATOM      4  C   UNL     1      35.157   9.728  14.968  0.00  0.00    +0.000 C 
ATOM      5  C   UNL     1      34.107   9.393  16.192  0.00  0.00    +0.000 C 
BRANCH   4   7
ATOM      6  N   UNL     1      37.146   9.004  16.389  0.00  0.00    +0.000 NA
ATOM      7  C   UNL     1      36.351  10.120  15.941  0.00  0.00    +0.000 C 
ATOM      8  O   UNL     1      36.591  11.254  16.291  0.00  0.00    +0.000 OA
BRANCH   6  14
ATOM      9  C   UNL     1      38.926   9.288  20.989  0.00  0.00    +0.000 C 
ATOM     10  C   UNL     1      39.096   9.430  19.512  0.00  0.00    +0.000 A 
ATOM     11  C   UNL     1      40.320   9.843  19.043  0.00  0.00    +0.000 A 
ATOM     12  C   UNL     1      40.490   9.978  17.686  0.00  0.00    +0.000 A 
ATOM     13  C   UNL     1      39.459   9.706  16.811  0.00  0.00    +0.000 A 
ATOM     14  C   UNL     1      38.226   9.291  17.259  0.00  0.00    +0.000 A 
ATOM     15  C   UNL     1      38.087   9.166  18.623  0.00  0.00    +0.000 A 
ATOM     16  C   UNL     1      36.770   8.720  19.143  0.00  0.00    +0.000 C 
ENDBRANCH   6  14
ENDBRANCH   4   7
ENDBRANCH   3   4
ENDBRANCH   1   3
BRANCH   1  17
ATOM     17  C   UNL     1      35.995   6.399  13.276  0.00  0.00    +0.000 C 
BRANCH  17  18
ATOM     18  C   UNL     1      36.143   5.586  14.498  0.00  0.00    +0.000 C 
BRANCH  18  19
ATOM     19  C   UNL     1      37.428   4.831  14.629  0.00  0.00    +0.000 C 
BRANCH  19  20
ATOM     20  O   UNL     1      38.440   5.785  14.901  0.00  0.00    +0.000 OA
BRANCH  20  21
ATOM     21  C   UNL     1      39.062   5.881  16.138  0.00  0.00    +0.000 A 
ATOM     22  C   UNL     1      38.331   5.597  17.261  0.00  0.00    +0.000 A 
ATOM     23  C   UNL     1      38.855   5.662  18.538  0.00  0.00    +0.000 A 
ATOM     24  C   UNL     1      40.189   6.037  18.655  0.00  0.00    +0.000 A 
ATOM     25  C   UNL     1      40.763   6.117  19.926  0.00  0.00    +0.000 A 
ATOM     26  C   UNL     1      42.089   6.486  20.076  0.00  0.00    +0.000 A 
ATOM     27  C   UNL     1      42.832   6.774  18.954  0.00  0.00    +0.000 A 
ATOM     28  C   UNL     1      42.242   6.688  17.692  0.00  0.00    +0.000 A 
ATOM     29  C   UNL     1      40.933   6.323  17.550  0.00  0.00    +0.000 A 
ATOM     30  C   UNL     1      40.381   6.250  16.269  0.00  0.00    +0.000 A 
ENDBRANCH  20  21
ENDBRANCH  19  20
ENDBRANCH  18  19
ENDBRANCH  17  18
ENDBRANCH   1  17
TORSDOF 9
ENDMDL
MODEL 3
REMARK VINA RESULT:      -5.6      3.454      7.600
REMARK  Name = 
REMARK  9 active torsions:
REMARK  status: ('A' for Active; 'I' for Inactive)
REMARK    1  A    between atoms: C_6  and  N_7
REMARK    2  A    between atoms: C_8  and  C_10
REMARK    3  A    between atoms: C_10  and  O_12
REMARK    4  A    between atoms: O_12  and  C_13
REMARK    5  A    between atoms: C_13  and  C_15
REMARK    6  A    between atoms: C_15  and  C_16
REMARK    7  A    between atoms: C_16  and  C_17
REMARK    8  A    between atoms: C_17  and  O_18
REMARK    9  A    between atoms: O_18  and  C_19
REMARK                            x       y       z     vdW  Elec       q    Type
REMARK                         _______ _______ _______ _____ _____    ______ ____
ROOT
ATOM      1  C   UNL     1      37.588   0.977  12.692  0.00  0.00    +0.000 C 
ATOM      2  O   UNL     1      37.499   0.915  11.444  0.00  0.00    +0.000 OA
ENDROOT
BRANCH   1   3
ATOM      3  O   UNL     1      38.321  -0.015  13.319  0.00  0.00    +0.000 OA
BRANCH   3   4
ATOM      4  C   UNL     1      37.801  -1.440  13.192  0.00  0.00    +0.000 C 
ATOM      5  C   UNL     1      39.199  -2.119  13.738  0.00  0.00    +0.000 C 
BRANCH   4   7
ATOM      6  N   UNL     1      37.786  -0.786  15.656  0.00  0.00    +0.000 NA
ATOM      7  C   UNL     1      37.086  -1.488  14.611  0.00  0.00    +0.000 C 
ATOM      8  O   UNL     1      36.039  -2.062  14.819  0.00  0.00    +0.000 OA
BRANCH   6  14
ATOM      9  C   UNL     1      37.618  -2.638  20.233  0.00  0.00    +0.000 C 
ATOM     10  C   UNL     1      37.115  -1.702  19.184  0.00  0.00    +0.000 A 
ATOM     11  C   UNL     1      36.077  -0.865  19.515  0.00  0.00    +0.000 A 
ATOM     12  C   UNL     1      35.604   0.002  18.559  0.00  0.00    +0.000 A 
ATOM     13  C   UNL     1      36.156   0.035  17.296  0.00  0.00    +0.000 A 
ATOM     14  C   UNL     1      37.196  -0.794  16.944  0.00  0.00    +0.000 A 
ATOM     15  C   UNL     1      37.647  -1.650  17.923  0.00  0.00    +0.000 A 
ATOM     16  C   UNL     1      38.769  -2.560  17.579  0.00  0.00    +0.000 C 
ENDBRANCH   6  14
ENDBRANCH   4   7
ENDBRANCH   3   4
ENDBRANCH   1   3
BRANCH   1  17
ATOM     17  C   UNL     1      36.978   2.014  13.529  0.00  0.00    +0.000 C 
BRANCH  17  18
ATOM     18  C   UNL     1      37.850   2.609  14.560  0.00  0.00    +0.000 C 
BRANCH  18  19
ATOM     19  C   UNL     1      37.414   3.934  15.099  0.00  0.00    +0.000 C 
BRANCH  19  20
ATOM     20  O   UNL     1      38.561   4.766  15.130  0.00  0.00    +0.000 OA
BRANCH  20  21
ATOM     21  C   UNL     1      39.154   5.174  16.315  0.00  0.00    +0.000 A 
ATOM     22  C   UNL     1      38.473   4.984  17.488  0.00  0.00    +0.000 A 
ATOM     23  C   UNL     1      38.975   5.353  18.721  0.00  0.00    +0.000 A 
ATOM     24  C   UNL     1      40.233   5.946  18.739  0.00  0.00    +0.000 A 
ATOM     25  C   UNL     1      40.783   6.338  19.962  0.00  0.00    +0.000 A 
ATOM     26  C   UNL     1      42.033   6.929  20.013  0.00  0.00    +0.000 A 
ATOM     27  C   UNL     1      42.726   7.126  18.840  0.00  0.00    +0.000 A 
ATOM     28  C   UNL     1      42.162   6.728  17.627  0.00  0.00    +0.000 A 
ATOM     29  C   UNL     1      40.928   6.145  17.583  0.00  0.00    +0.000 A 
ATOM     30  C   UNL     1      40.398   5.761  16.348  0.00  0.00    +0.000 A 
ENDBRANCH  20  21
ENDBRANCH  19  20
ENDBRANCH  18  19
ENDBRANCH  17  18
ENDBRANCH   1  17
TORSDOF 9
ENDMDL
MODEL 4
REMARK VINA RESULT:      -5.4      8.557     11.529
REMARK  Name = 
REMARK  9 active torsions:
REMARK  status: ('A' for Active; 'I' for Inactive)
REMARK    1  A    between atoms: C_6  and  N_7
REMARK    2  A    between atoms: C_8  and  C_10
REMARK    3  A    between atoms: C_10  and  O_12
REMARK    4  A    between atoms: O_12  and  C_13
REMARK    5  A    between atoms: C_13  and  C_15
REMARK    6  A    between atoms: C_15  and  C_16
REMARK    7  A    between atoms: C_16  and  C_17
REMARK    8  A    between atoms: C_17  and  O_18
REMARK    9  A    between atoms: O_18  and  C_19
REMARK                            x       y       z     vdW  Elec       q    Type
REMARK                         _______ _______ _______ _____ _____    ______ ____
ROOT
ATOM      1  C   UNL     1      44.307  11.927  20.390  0.00  0.00    +0.000 C 
ATOM      2  O   UNL     1      45.006  12.405  21.314  0.00  0.00    +0.000 OA
ENDROOT
BRANCH   1   3
ATOM      3  O   UNL     1      42.943  12.147  20.457  0.00  0.00    +0.000 OA
BRANCH   3   4
ATOM      4  C   UNL     1      42.270  11.898  21.800  0.00  0.00    +0.000 C 
ATOM      5  C   UNL     1      41.785  13.463  21.974  0.00  0.00    +0.000 C 
BRANCH   4   7
ATOM      6  N   UNL     1      40.924  10.122  20.562  0.00  0.00    +0.000 NA
ATOM      7  C   UNL     1      40.878  11.410  21.206  0.00  0.00    +0.000 C 
ATOM      8  O   UNL     1      39.853  12.052  21.276  0.00  0.00    +0.000 OA
BRANCH   6  14
ATOM      9  C   UNL     1      38.191   9.072  16.582  0.00  0.00    +0.000 C 
ATOM     10  C   UNL     1      38.376   9.121  18.063  0.00  0.00    +0.000 A 
ATOM     11  C   UNL     1      37.342   8.681  18.854  0.00  0.00    +0.000 A 
ATOM     12  C   UNL     1      37.498   8.720  20.219  0.00  0.00    +0.000 A 
ATOM     13  C   UNL     1      38.665   9.189  20.786  0.00  0.00    +0.000 A 
ATOM     14  C   UNL     1      39.712   9.634  20.012  0.00  0.00    +0.000 A 
ATOM     15  C   UNL     1      39.525   9.582  18.649  0.00  0.00    +0.000 A 
ATOM     16  C   UNL     1      40.634  10.054  17.783  0.00  0.00    +0.000 C 
ENDBRANCH   6  14
ENDBRANCH   4   7
ENDBRANCH   3   4
ENDBRANCH   1   3
BRANCH   1  17
ATOM     17  C   UNL     1      44.824  11.158  19.255  0.00  0.00    +0.000 C 
BRANCH  17  18
ATOM     18  C   UNL     1      44.206   9.837  19.033  0.00  0.00    +0.000 C 
BRANCH  18  19
ATOM     19  C   UNL     1      44.422   8.825  20.114  0.00  0.00    +0.000 C 
BRANCH  19  20
ATOM     20  O   UNL     1      44.204   7.550  19.535  0.00  0.00    +0.000 OA
BRANCH  20  21
ATOM     21  C   UNL     1      42.935   7.045  19.300  0.00  0.00    +0.000 A 
ATOM     22  C   UNL     1      42.132   6.764  20.374  0.00  0.00    +0.000 A 
ATOM     23  C   UNL     1      40.853   6.258  20.250  0.00  0.00    +0.000 A 
ATOM     24  C   UNL     1      40.386   6.034  18.959  0.00  0.00    +0.000 A 
ATOM     25  C   UNL     1      39.098   5.523  18.781  0.00  0.00    +0.000 A 
ATOM     26  C   UNL     1      38.604   5.290  17.509  0.00  0.00    +0.000 A 
ATOM     27  C   UNL     1      39.402   5.568  16.423  0.00  0.00    +0.000 A 
ATOM     28  C   UNL     1      40.686   6.078  16.619  0.00  0.00    +0.000 A 
ATOM     29  C   UNL     1      41.168   6.307  17.876  0.00  0.00    +0.000 A 
ATOM     30  C   UNL     1      42.459   6.818  18.029  0.00  0.00    +0.000 A 
ENDBRANCH  20  21
ENDBRANCH  19  20
ENDBRANCH  18  19
ENDBRANCH  17  18
ENDBRANCH   1  17
TORSDOF 9
ENDMDL
MODEL 5
REMARK VINA RESULT:      -5.4      5.300      8.192
REMARK  Name = 
REMARK  9 active torsions:
REMARK  status: ('A' for Active; 'I' for Inactive)
REMARK    1  A    between atoms: C_6  and  N_7
REMARK    2  A    between atoms: C_8  and  C_10
REMARK    3  A    between atoms: C_10  and  O_12
REMARK    4  A    between atoms: O_12  and  C_13
REMARK    5  A    between atoms: C_13  and  C_15
REMARK    6  A    between atoms: C_15  and  C_16
REMARK    7  A    between atoms: C_16  and  C_17
REMARK    8  A    between atoms: C_17  and  O_18
REMARK    9  A    between atoms: O_18  and  C_19
REMARK                            x       y       z     vdW  Elec       q    Type
REMARK                         _______ _______ _______ _____ _____    ______ ____
ROOT
ATOM      1  C   UNL     1      38.603   4.124  15.974  0.00  0.00    +0.000 C 
ATOM      2  O   UNL     1      39.439   4.158  15.041  0.00  0.00    +0.000 OA
ENDROOT
BRANCH   1   3
ATOM      3  O   UNL     1      37.833   2.980  16.085  0.00  0.00    +0.000 OA
BRANCH   3   4
ATOM      4  C   UNL     1      36.349   3.172  16.363  0.00  0.00    +0.000 C 
ATOM      5  C   UNL     1      35.935   3.169  14.768  0.00  0.00    +0.000 C 
BRANCH   4   7
ATOM      6  N   UNL     1      37.132   0.745  16.371  0.00  0.00    +0.000 NA
ATOM      7  C   UNL     1      36.014   1.632  16.573  0.00  0.00    +0.000 C 
ATOM      8  O   UNL     1      34.918   1.216  16.877  0.00  0.00    +0.000 OA
BRANCH   6  14
ATOM      9  C   UNL     1      36.359  -3.708  14.377  0.00  0.00    +0.000 C 
ATOM     10  C   UNL     1      36.515  -2.820  15.567  0.00  0.00    +0.000 A 
ATOM     11  C   UNL     1      36.421  -3.393  16.812  0.00  0.00    +0.000 A 
ATOM     12  C   UNL     1      36.563  -2.587  17.917  0.00  0.00    +0.000 A 
ATOM     13  C   UNL     1      36.795  -1.234  17.782  0.00  0.00    +0.000 A 
ATOM     14  C   UNL     1      36.894  -0.641  16.545  0.00  0.00    +0.000 A 
ATOM     15  C   UNL     1      36.747  -1.474  15.459  0.00  0.00    +0.000 A 
ATOM     16  C   UNL     1      36.847  -0.869  14.107  0.00  0.00    +0.000 C 
ENDBRANCH   6  14
ENDBRANCH   4   7
ENDBRANCH   3   4
ENDBRANCH   1   3
BRANCH   1  17
ATOM     17  C   UNL     1      38.381   5.198  16.946  0.00  0.00    +0.000 C 
BRANCH  17  18
ATOM     18  C   UNL     1      38.988   5.002  18.276  0.00  0.00    +0.000 C 
BRANCH  18  19
ATOM     19  C   UNL     1      39.068   6.218  19.144  0.00  0.00    +0.000 C 
BRANCH  19  20
ATOM     20  O   UNL     1      40.104   7.030  18.621  0.00  0.00    +0.000 OA
BRANCH  20  21
ATOM     21  C   UNL     1      41.432   6.873  18.987  0.00  0.00    +0.000 A 
ATOM     22  C   UNL     1      42.400   7.052  18.034  0.00  0.00    +0.000 A 
ATOM     23  C   UNL     1      43.750   6.919  18.295  0.00  0.00    +0.000 A 
ATOM     24  C   UNL     1      44.112   6.587  19.596  0.00  0.00    +0.000 A 
ATOM     25  C   UNL     1      45.466   6.441  19.909  0.00  0.00    +0.000 A 
ATOM     26  C   UNL     1      45.858   6.113  21.195  0.00  0.00    +0.000 A 
ATOM     27  C   UNL     1      44.894   5.930  22.160  0.00  0.00    +0.000 A 
ATOM     28  C   UNL     1      43.546   6.080  21.830  0.00  0.00    +0.000 A 
ATOM     29  C   UNL     1      43.165   6.405  20.560  0.00  0.00    +0.000 A 
ATOM     30  C   UNL     1      41.805   6.545  20.270  0.00  0.00    +0.000 A 
ENDBRANCH  20  21
ENDBRANCH  19  20
ENDBRANCH  18  19
ENDBRANCH  17  18
ENDBRANCH   1  17
TORSDOF 9
ENDMDL
MODEL 6
REMARK VINA RESULT:      -5.4      3.834      7.737
REMARK  Name = 
REMARK  9 active torsions:
REMARK  status: ('A' for Active; 'I' for Inactive)
REMARK    1  A    between atoms: C_6  and  N_7
REMARK    2  A    between atoms: C_8  and  C_10
REMARK    3  A    between atoms: C_10  and  O_12
REMARK    4  A    between atoms: O_12  and  C_13
REMARK    5  A    between atoms: C_13  and  C_15
REMARK    6  A    between atoms: C_15  and  C_16
REMARK    7  A    between atoms: C_16  and  C_17
REMARK    8  A    between atoms: C_17  and  O_18
REMARK    9  A    between atoms: O_18  and  C_19
REMARK                            x       y       z     vdW  Elec       q    Type
REMARK                         _______ _______ _______ _____ _____    ______ ____
ROOT
ATOM      1  C   UNL     1      37.246   2.980  16.369  0.00  0.00    +0.000 C 
ATOM      2  O   UNL     1      37.515   3.595  17.427  0.00  0.00    +0.000 OA
ENDROOT
BRANCH   1   3
ATOM      3  O   UNL     1      36.841   1.663  16.496  0.00  0.00    +0.000 OA
BRANCH   3   4
ATOM      4  C   UNL     1      35.943   1.329  17.678  0.00  0.00    +0.000 C 
ATOM      5  C   UNL     1      34.643   0.967  16.733  0.00  0.00    +0.000 C 
BRANCH   4   7
ATOM      6  N   UNL     1      36.858  -0.791  16.595  0.00  0.00    +0.000 NA
ATOM      7  C   UNL     1      36.407  -0.185  17.823  0.00  0.00    +0.000 C 
ATOM      8  O   UNL     1      36.391  -0.798  18.867  0.00  0.00    +0.000 OA
BRANCH   6  14
ATOM      9  C   UNL     1      35.807  -5.598  16.159  0.00  0.00    +0.000 C 
ATOM     10  C   UNL     1      36.769  -4.493  16.449  0.00  0.00    +0.000 A 
ATOM     11  C   UNL     1      38.059  -4.834  16.776  0.00  0.00    +0.000 A 
ATOM     12  C   UNL     1      38.955  -3.826  17.044  0.00  0.00    +0.000 A 
ATOM     13  C   UNL     1      38.572  -2.503  16.988  0.00  0.00    +0.000 A 
ATOM     14  C   UNL     1      37.285  -2.140  16.662  0.00  0.00    +0.000 A 
ATOM     15  C   UNL     1      36.412  -3.171  16.399  0.00  0.00    +0.000 A 
ATOM     16  C   UNL     1      35.015  -2.817  16.044  0.00  0.00    +0.000 C 
ENDBRANCH   6  14
ENDBRANCH   4   7
ENDBRANCH   3   4
ENDBRANCH   1   3
BRANCH   1  17
ATOM     17  C   UNL     1      37.329   3.548  15.021  0.00  0.00    +0.000 C 
BRANCH  17  18
ATOM     18  C   UNL     1      36.943   4.965  14.891  0.00  0.00    +0.000 C 
BRANCH  18  19
ATOM     19  C   UNL     1      38.042   5.910  14.518  0.00  0.00    +0.000 C 
BRANCH  19  20
ATOM     20  O   UNL     1      39.265   5.251  14.797  0.00  0.00    +0.000 OA
BRANCH  20  21
ATOM     21  C   UNL     1      40.122   5.665  15.805  0.00  0.00    +0.000 A 
ATOM     22  C   UNL     1      41.395   6.042  15.468  0.00  0.00    +0.000 A 
ATOM     23  C   UNL     1      42.326   6.470  16.395  0.00  0.00    +0.000 A 
ATOM     24  C   UNL     1      41.921   6.508  17.725  0.00  0.00    +0.000 A 
ATOM     25  C   UNL     1      42.827   6.933  18.700  0.00  0.00    +0.000 A 
ATOM     26  C   UNL     1      42.455   6.983  20.032  0.00  0.00    +0.000 A 
ATOM     27  C   UNL     1      41.178   6.606  20.381  0.00  0.00    +0.000 A 
ATOM     28  C   UNL     1      40.286   6.183  19.395  0.00  0.00    +0.000 A 
ATOM     29  C   UNL     1      40.659   6.137  18.082  0.00  0.00    +0.000 A 
ATOM     30  C   UNL     1      39.735   5.708  17.125  0.00  0.00    +0.000 A 
ENDBRANCH  20  21
ENDBRANCH  19  20
ENDBRANCH  18  19
ENDBRANCH  17  18
ENDBRANCH   1  17
TORSDOF 9
ENDMDL
MODEL 7
REMARK VINA RESULT:      -5.3      4.601      8.009
REMARK  Name = 
REMARK  9 active torsions:
REMARK  status: ('A' for Active; 'I' for Inactive)
REMARK    1  A    between atoms: C_6  and  N_7
REMARK    2  A    between atoms: C_8  and  C_10
REMARK    3  A    between atoms: C_10  and  O_12
REMARK    4  A    between atoms: O_12  and  C_13
REMARK    5  A    between atoms: C_13  and  C_15
REMARK    6  A    between atoms: C_15  and  C_16
REMARK    7  A    between atoms: C_16  and  C_17
REMARK    8  A    between atoms: C_17  and  O_18
REMARK    9  A    between atoms: O_18  and  C_19
REMARK                            x       y       z     vdW  Elec       q    Type
REMARK                         _______ _______ _______ _____ _____    ______ ____
ROOT
ATOM      1  C   UNL     1      37.013   2.382  14.961  0.00  0.00    +0.000 C 
ATOM      2  O   UNL     1      36.872   2.101  13.748  0.00  0.00    +0.000 OA
ENDROOT
BRANCH   1   3
ATOM      3  O   UNL     1      37.199   1.323  15.832  0.00  0.00    +0.000 OA
BRANCH   3   4
ATOM      4  C   UNL     1      36.283   1.260  17.046  0.00  0.00    +0.000 C 
ATOM      5  C   UNL     1      34.935   0.945  16.153  0.00  0.00    +0.000 C 
BRANCH   4   7
ATOM      6  N   UNL     1      37.064  -1.044  16.284  0.00  0.00    +0.000 NA
ATOM      7  C   UNL     1      36.557  -0.268  17.387  0.00  0.00    +0.000 C 
ATOM      8  O   UNL     1      36.362  -0.761  18.477  0.00  0.00    +0.000 OA
BRANCH   6  14
ATOM      9  C   UNL     1      35.578  -5.752  16.077  0.00  0.00    +0.000 C 
ATOM     10  C   UNL     1      36.599  -4.719  16.426  0.00  0.00    +0.000 A 
ATOM     11  C   UNL     1      37.780  -5.146  16.984  0.00  0.00    +0.000 A 
ATOM     12  C   UNL     1      38.728  -4.205  17.311  0.00  0.00    +0.000 A 
ATOM     13  C   UNL     1      38.503  -2.864  17.086  0.00  0.00    +0.000 A 
ATOM     14  C   UNL     1      37.327  -2.415  16.528  0.00  0.00    +0.000 A 
ATOM     15  C   UNL     1      36.398  -3.381  16.212  0.00  0.00    +0.000 A 
ATOM     16  C   UNL     1      35.118  -2.933  15.609  0.00  0.00    +0.000 C 
ENDBRANCH   6  14
ENDBRANCH   4   7
ENDBRANCH   3   4
ENDBRANCH   1   3
BRANCH   1  17
ATOM     17  C   UNL     1      36.993   3.737  15.519  0.00  0.00    +0.000 C 
BRANCH  17  18
ATOM     18  C   UNL     1      38.277   4.238  16.044  0.00  0.00    +0.000 C 
BRANCH  18  19
ATOM     19  C   UNL     1      38.259   4.728  17.457  0.00  0.00    +0.000 C 
BRANCH  19  20
ATOM     20  O   UNL     1      38.921   5.981  17.469  0.00  0.00    +0.000 OA
BRANCH  20  21
ATOM     21  C   UNL     1      40.107   6.192  18.156  0.00  0.00    +0.000 A 
ATOM     22  C   UNL     1      40.080   6.184  19.525  0.00  0.00    +0.000 A 
ATOM     23  C   UNL     1      41.204   6.383  20.303  0.00  0.00    +0.000 A 
ATOM     24  C   UNL     1      42.404   6.601  19.635  0.00  0.00    +0.000 A 
ATOM     25  C   UNL     1      43.568   6.809  20.378  0.00  0.00    +0.000 A 
ATOM     26  C   UNL     1      44.779   7.027  19.743  0.00  0.00    +0.000 A 
ATOM     27  C   UNL     1      44.816   7.039  18.367  0.00  0.00    +0.000 A 
ATOM     28  C   UNL     1      43.643   6.830  17.640  0.00  0.00    +0.000 A 
ATOM     29  C   UNL     1      42.453   6.614  18.273  0.00  0.00    +0.000 A 
ATOM     30  C   UNL     1      41.301   6.409  17.508  0.00  0.00    +0.000 A 
ENDBRANCH  20  21
ENDBRANCH  19  20
ENDBRANCH  18  19
ENDBRANCH  17  18
ENDBRANCH   1  17
TORSDOF 9
ENDMDL
MODEL 8
REMARK VINA RESULT:      -5.2     27.357     29.435
REMARK  Name = 
REMARK  9 active torsions:
REMARK  status: ('A' for Active; 'I' for Inactive)
REMARK    1  A    between atoms: C_6  and  N_7
REMARK    2  A    between atoms: C_8  and  C_10
REMARK    3  A    between atoms: C_10  and  O_12
REMARK    4  A    between atoms: O_12  and  C_13
REMARK    5  A    between atoms: C_13  and  C_15
REMARK    6  A    between atoms: C_15  and  C_16
REMARK    7  A    between atoms: C_16  and  C_17
REMARK    8  A    between atoms: C_17  and  O_18
REMARK    9  A    between atoms: O_18  and  C_19
REMARK                            x       y       z     vdW  Elec       q    Type
REMARK                         _______ _______ _______ _____ _____    ______ ____
ROOT
ATOM      1  C   UNL     1      31.451  15.211  37.771  0.00  0.00    +0.000 C 
ATOM      2  O   UNL     1      31.750  15.770  38.852  0.00  0.00    +0.000 OA
ENDROOT
BRANCH   1   3
ATOM      3  O   UNL     1      30.395  15.748  37.058  0.00  0.00    +0.000 OA
BRANCH   3   4
ATOM      4  C   UNL     1      28.992  15.406  37.541  0.00  0.00    +0.000 C 
ATOM      5  C   UNL     1      28.621  16.965  37.923  0.00  0.00    +0.000 C 
BRANCH   4   7
ATOM      6  N   UNL     1      26.859  15.448  36.146  0.00  0.00    +0.000 NA
ATOM      7  C   UNL     1      28.299  15.467  36.112  0.00  0.00    +0.000 C 
ATOM      8  O   UNL     1      28.911  15.523  35.068  0.00  0.00    +0.000 OA
BRANCH   6  14
ATOM      9  C   UNL     1      24.353  18.063  32.786  0.00  0.00    +0.000 C 
ATOM     10  C   UNL     1      24.958  16.782  33.257  0.00  0.00    +0.000 A 
ATOM     11  C   UNL     1      24.835  15.678  32.448  0.00  0.00    +0.000 A 
ATOM     12  C   UNL     1      25.387  14.491  32.870  0.00  0.00    +0.000 A 
ATOM     13  C   UNL     1      26.050  14.407  34.076  0.00  0.00    +0.000 A 
ATOM     14  C   UNL     1      26.185  15.500  34.901  0.00  0.00    +0.000 A 
ATOM     15  C   UNL     1      25.621  16.673  34.451  0.00  0.00    +0.000 A 
ATOM     16  C   UNL     1      25.747  17.873  35.315  0.00  0.00    +0.000 C 
ENDBRANCH   6  14
ENDBRANCH   4   7
ENDBRANCH   3   4
ENDBRANCH   1   3
BRANCH   1  17
ATOM     17  C   UNL     1      32.133  14.040  37.212  0.00  0.00    +0.000 C 
BRANCH  17  18
ATOM     18  C   UNL     1      31.573  12.727  37.585  0.00  0.00    +0.000 C 
BRANCH  18  19
ATOM     19  C   UNL     1      31.726  12.336  39.021  0.00  0.00    +0.000 C 
BRANCH  19  20
ATOM     20  O   UNL     1      30.420  12.241  39.564  0.00  0.00    +0.000 OA
BRANCH  20  21
ATOM     21  C   UNL     1      29.978  11.120  40.251  0.00  0.00    +0.000 A 
ATOM     22  C   UNL     1      30.910  10.268  40.782  0.00  0.00    +0.000 A 
ATOM     23  C   UNL     1      30.575   9.126  41.484  0.00  0.00    +0.000 A 
ATOM     24  C   UNL     1      29.219   8.856  41.640  0.00  0.00    +0.000 A 
ATOM     25  C   UNL     1      28.831   7.712  42.342  0.00  0.00    +0.000 A 
ATOM     26  C   UNL     1      27.490   7.416  42.516  0.00  0.00    +0.000 A 
ATOM     27  C   UNL     1      26.546   8.265  41.986  0.00  0.00    +0.000 A 
ATOM     28  C   UNL     1      26.952   9.404  41.288  0.00  0.00    +0.000 A 
ATOM     29  C   UNL     1      28.276   9.691  41.120  0.00  0.00    +0.000 A 
ATOM     30  C   UNL     1      28.641  10.841  40.414  0.00  0.00    +0.000 A 
ENDBRANCH  20  21
ENDBRANCH  19  20
ENDBRANCH  18  19
ENDBRANCH  17  18
ENDBRANCH   1  17
TORSDOF 9
ENDMDL
MODEL 9
REMARK VINA RESULT:      -5.1      2.463      7.156
REMARK  Name = 
REMARK  9 active torsions:
REMARK  status: ('A' for Active; 'I' for Inactive)
REMARK    1  A    between atoms: C_6  and  N_7
REMARK    2  A    between atoms: C_8  and  C_10
REMARK    3  A    between atoms: C_10  and  O_12
REMARK    4  A    between atoms: O_12  and  C_13
REMARK    5  A    between atoms: C_13  and  C_15
REMARK    6  A    between atoms: C_15  and  C_16
REMARK    7  A    between atoms: C_16  and  C_17
REMARK    8  A    between atoms: C_17  and  O_18
REMARK    9  A    between atoms: O_18  and  C_19
REMARK                            x       y       z     vdW  Elec       q    Type
REMARK                         _______ _______ _______ _____ _____    ______ ____
ROOT
ATOM      1  C   UNL     1      39.885  -0.461  12.317  0.00  0.00    +0.000 C 
ATOM      2  O   UNL     1      39.705  -1.130  11.273  0.00  0.00    +0.000 OA
ENDROOT
BRANCH   1   3
ATOM      3  O   UNL     1      40.224  -1.163  13.460  0.00  0.00    +0.000 OA
BRANCH   3   4
ATOM      4  C   UNL     1      39.529  -2.500  13.679  0.00  0.00    +0.000 C 
ATOM      5  C   UNL     1      40.257  -2.768  15.133  0.00  0.00    +0.000 C 
BRANCH   4   7
ATOM      6  N   UNL     1      38.430  -0.916  15.347  0.00  0.00    +0.000 NA
ATOM      7  C   UNL     1      38.204  -1.901  14.320  0.00  0.00    +0.000 C 
ATOM      8  O   UNL     1      37.086  -2.231  13.988  0.00  0.00    +0.000 OA
BRANCH   6  14
ATOM      9  C   UNL     1      35.428  -0.579  19.257  0.00  0.00    +0.000 C 
ATOM     10  C   UNL     1      35.815  -0.183  17.870  0.00  0.00    +0.000 A 
ATOM     11  C   UNL     1      35.030   0.740  17.223  0.00  0.00    +0.000 A 
ATOM     12  C   UNL     1      35.375   1.115  15.946  0.00  0.00    +0.000 A 
ATOM     13  C   UNL     1      36.484   0.579  15.326  0.00  0.00    +0.000 A 
ATOM     14  C   UNL     1      37.284  -0.346  15.956  0.00  0.00    +0.000 A 
ATOM     15  C   UNL     1      36.912  -0.700  17.233  0.00  0.00    +0.000 A 
ATOM     16  C   UNL     1      37.752  -1.696  17.944  0.00  0.00    +0.000 C 
ENDBRANCH   6  14
ENDBRANCH   4   7
ENDBRANCH   3   4
ENDBRANCH   1   3
BRANCH   1  17
ATOM     17  C   UNL     1      39.763   0.996  12.416  0.00  0.00    +0.000 C 
BRANCH  17  18
ATOM     18  C   UNL     1      38.389   1.525  12.497  0.00  0.00    +0.000 C 
BRANCH  18  19
ATOM     19  C   UNL     1      38.169   2.869  11.876  0.00  0.00    +0.000 C 
BRANCH  19  20
ATOM     20  O   UNL     1      37.568   3.687  12.865  0.00  0.00    +0.000 OA
BRANCH  20  21
ATOM     21  C   UNL     1      38.291   4.256  13.902  0.00  0.00    +0.000 A 
ATOM     22  C   UNL     1      39.421   4.968  13.600  0.00  0.00    +0.000 A 
ATOM     23  C   UNL     1      40.211   5.574  14.557  0.00  0.00    +0.000 A 
ATOM     24  C   UNL     1      39.814   5.435  15.883  0.00  0.00    +0.000 A 
ATOM     25  C   UNL     1      40.581   6.029  16.888  0.00  0.00    +0.000 A 
ATOM     26  C   UNL     1      40.212   5.910  18.217  0.00  0.00    +0.000 A 
ATOM     27  C   UNL     1      39.079   5.195  18.533  0.00  0.00    +0.000 A 
ATOM     28  C   UNL     1      38.324   4.608  17.516  0.00  0.00    +0.000 A 
ATOM     29  C   UNL     1      38.693   4.730  16.206  0.00  0.00    +0.000 A 
ATOM     30  C   UNL     1      37.910   4.126  15.218  0.00  0.00    +0.000 A 
ENDBRANCH  20  21
ENDBRANCH  19  20
ENDBRANCH  18  19
ENDBRANCH  17  18
ENDBRANCH   1  17
TORSDOF 9
ENDMDL
MODEL 10
REMARK VINA RESULT:      -5.1      3.480      6.706
REMARK  Name = 
REMARK  9 active torsions:
REMARK  status: ('A' for Active; 'I' for Inactive)
REMARK    1  A    between atoms: C_6  and  N_7
REMARK    2  A    between atoms: C_8  and  C_10
REMARK    3  A    between atoms: C_10  and  O_12
REMARK    4  A    between atoms: O_12  and  C_13
REMARK    5  A    between atoms: C_13  and  C_15
REMARK    6  A    between atoms: C_15  and  C_16
REMARK    7  A    between atoms: C_16  and  C_17
REMARK    8  A    between atoms: C_17  and  O_18
REMARK    9  A    between atoms: O_18  and  C_19
REMARK                            x       y       z     vdW  Elec       q    Type
REMARK                         _______ _______ _______ _____ _____    ______ ____
ROOT
ATOM      1  C   UNL     1      38.102   3.317  13.432  0.00  0.00    +0.000 C 
ATOM      2  O   UNL     1      37.333   4.031  12.747  0.00  0.00    +0.000 OA
ENDROOT
BRANCH   1   3
ATOM      3  O   UNL     1      38.015   3.441  14.807  0.00  0.00    +0.000 OA
BRANCH   3   4
ATOM      4  C   UNL     1      36.979   4.416  15.347  0.00  0.00    +0.000 C 
ATOM      5  C   UNL     1      36.044   3.233  16.008  0.00  0.00    +0.000 C 
BRANCH   4   7
ATOM      6  N   UNL     1      38.125   6.118  16.861  0.00  0.00    +0.000 NA
ATOM      7  C   UNL     1      37.739   4.738  16.706  0.00  0.00    +0.000 C 
ATOM      8  O   UNL     1      37.985   3.908  17.553  0.00  0.00    +0.000 OA
BRANCH   6  14
ATOM      9  C   UNL     1      38.539   9.064  20.806  0.00  0.00    +0.000 C 
ATOM     10  C   UNL     1      39.008   7.908  19.984  0.00  0.00    +0.000 A 
ATOM     11  C   UNL     1      40.107   7.211  20.425  0.00  0.00    +0.000 A 
ATOM     12  C   UNL     1      40.550   6.145  19.678  0.00  0.00    +0.000 A 
ATOM     13  C   UNL     1      39.908   5.780  18.513  0.00  0.00    +0.000 A 
ATOM     14  C   UNL     1      38.807   6.465  18.054  0.00  0.00    +0.000 A 
ATOM     15  C   UNL     1      38.388   7.527  18.823  0.00  0.00    +0.000 A 
ATOM     16  C   UNL     1      37.202   8.289  18.359  0.00  0.00    +0.000 C 
ENDBRANCH   6  14
ENDBRANCH   4   7
ENDBRANCH   3   4
ENDBRANCH   1   3
BRANCH   1  17
ATOM     17  C   UNL     1      39.079   2.370  12.887  0.00  0.00    +0.000 C 
BRANCH  17  18
ATOM     18  C   UNL     1      40.117   1.900  13.825  0.00  0.00    +0.000 C 
BRANCH  18  19
ATOM     19  C   UNL     1      39.981   0.486  14.295  0.00  0.00    +0.000 C 
BRANCH  19  20
ATOM     20  O   UNL     1      38.904  -0.086  13.575  0.00  0.00    +0.000 OA
BRANCH  20  21
ATOM     21  C   UNL     1      37.879  -0.784  14.196  0.00  0.00    +0.000 A 
ATOM     22  C   UNL     1      37.668  -2.090  13.842  0.00  0.00    +0.000 A 
ATOM     23  C   UNL     1      36.675  -2.872  14.400  0.00  0.00    +0.000 A 
ATOM     24  C   UNL     1      35.868  -2.276  15.363  0.00  0.00    +0.000 A 
ATOM     25  C   UNL     1      34.849  -3.026  15.956  0.00  0.00    +0.000 A 
ATOM     26  C   UNL     1      34.029  -2.462  16.918  0.00  0.00    +0.000 A 
ATOM     27  C   UNL     1      34.232  -1.150  17.280  0.00  0.00    +0.000 A 
ATOM     28  C   UNL     1      35.254  -0.415  16.677  0.00  0.00    +0.000 A 
ATOM     29  C   UNL     1      36.060  -0.977  15.729  0.00  0.00    +0.000 A 
ATOM     30  C   UNL     1      37.072  -0.207  15.150  0.00  0.00    +0.000 A 
ENDBRANCH  20  21
ENDBRANCH  19  20
ENDBRANCH  18  19
ENDBRANCH  17  18
ENDBRANCH   1  17
TORSDOF 9
ENDMDL
