MODEL 1
REMARK VINA RESULT:      -6.9      0.000      0.000
REMARK  Name = 
REMARK  9 active torsions:
REMARK  status: ('A' for Active; 'I' for Inactive)
REMARK    1  A    between atoms: C_2  and  O_3
REMARK    2  A    between atoms: C_2  and  C_21
REMARK    3  A    between atoms: O_3  and  C_4
REMARK    4  A    between atoms: C_4  and  C_6
REMARK    5  A    between atoms: C_6  and  O_7
REMARK    6  A    between atoms: O_7  and  C_8
REMARK    7  A    between atoms: C_11  and  N_12
REMARK    8  A    between atoms: N_12  and  C_13
REMARK    9  A    between atoms: C_21  and  C_23
REMARK                            x       y       z     vdW  Elec       q    Type
REMARK                         _______ _______ _______ _____ _____    ______ ____
ROOT
ATOM      1  C   UNL     1      38.909  -3.689  16.800  0.00  0.00    +0.000 C 
ATOM      2  O   UNL     1      39.232  -3.615  18.030  0.00  0.00    +0.000 OA
ENDROOT
BRANCH   1   3
ATOM      3  O   UNL     1      39.948  -3.422  15.861  0.00  0.00    +0.000 OA
BRANCH   3   5
ATOM      4  C   UNL     1      41.478  -2.218  14.644  0.00  0.00    +0.000 C 
ATOM      5  C   UNL     1      39.967  -1.964  15.465  0.00  0.00    +0.000 C 
BRANCH   5   6
ATOM      6  C   UNL     1      39.268  -2.081  13.973  0.00  0.00    +0.000 C 
ATOM      7  O   UNL     1      39.202  -3.056  13.325  0.00  0.00    +0.000 OA
BRANCH   6   8
ATOM      8  C   UNL     1      38.816  -0.763  13.718  0.00  0.00    +0.000 A 
ATOM      9  C   UNL     1      39.081   0.374  14.415  0.00  0.00    +0.000 A 
ATOM     10  C   UNL     1      38.681   1.589  13.957  0.00  0.00    +0.000 A 
ATOM     11  C   UNL     1      37.985   1.753  12.778  0.00  0.00    +0.000 A 
ATOM     12  C   UNL     1      37.687   0.604  12.015  0.00  0.00    +0.000 A 
ATOM     13  C   UNL     1      38.108  -0.594  12.507  0.00  0.00    +0.000 A 
ATOM     14  C   UNL     1      36.948   0.976  10.788  0.00  0.00    +0.000 C 
ATOM     15  C   UNL     1      37.506   2.399  10.584  0.00  0.00    +0.000 C 
ATOM     16  C   UNL     1      37.458   2.931  12.007  0.00  0.00    +0.000 C 
ENDBRANCH   6   8
ENDBRANCH   5   6
ENDBRANCH   3   5
ENDBRANCH   1   3
BRANCH   1  17
ATOM     17  C   UNL     1      37.569  -4.037  16.318  0.00  0.00    +0.000 C 
BRANCH  17  18
ATOM     18  O   UNL     1      36.557  -3.516  17.058  0.00  0.00    +0.000 OA
BRANCH  18  19
ATOM     19  C   UNL     1      36.091  -2.211  17.028  0.00  0.00    +0.000 A 
ATOM     20  C   UNL     1      35.724  -1.536  18.185  0.00  0.00    +0.000 A 
ATOM     21  C   UNL     1      35.273  -0.258  18.097  0.00  0.00    +0.000 A 
ATOM     22  C   UNL     1      35.166   0.432  16.876  0.00  0.00    +0.000 A 
ATOM     23  C   UNL     1      35.539  -0.244  15.724  0.00  0.00    +0.000 A 
ATOM     24  C   UNL     1      35.993  -1.559  15.819  0.00  0.00    +0.000 A 
BRANCH  22  25
ATOM     25  N   UNL     1      34.640   1.729  16.777  0.00  0.00    +0.000 NA
BRANCH  25  26
ATOM     26  C   UNL     1      35.526   2.708  16.183  0.00  0.00    +0.000 A 
ATOM     27  C   UNL     1      36.725   3.070  16.812  0.00  0.00    +0.000 A 
ATOM     28  C   UNL     1      37.467   4.095  16.306  0.00  0.00    +0.000 A 
ATOM     29  C   UNL     1      37.128   4.848  15.183  0.00  0.00    +0.000 A 
ATOM     30  C   UNL     1      35.929   4.462  14.593  0.00  0.00    +0.000 A 
ATOM     31  C   UNL     1      35.144   3.420  15.075  0.00  0.00    +0.000 A 
ENDBRANCH  25  26
ENDBRANCH  22  25
ENDBRANCH  18  19
ENDBRANCH  17  18
ENDBRANCH   1  17
TORSDOF 9
ENDMDL
MODEL 2
REMARK VINA RESULT:      -6.6      2.327      5.657
REMARK  Name = 
REMARK  9 active torsions:
REMARK  status: ('A' for Active; 'I' for Inactive)
REMARK    1  A    between atoms: C_2  and  O_3
REMARK    2  A    between atoms: C_2  and  C_21
REMARK    3  A    between atoms: O_3  and  C_4
REMARK    4  A    between atoms: C_4  and  C_6
REMARK    5  A    between atoms: C_6  and  O_7
REMARK    6  A    between atoms: O_7  and  C_8
REMARK    7  A    between atoms: C_11  and  N_12
REMARK    8  A    between atoms: N_12  and  C_13
REMARK    9  A    between atoms: C_21  and  C_23
REMARK                            x       y       z     vdW  Elec       q    Type
REMARK                         _______ _______ _______ _____ _____    ______ ____
ROOT
ATOM      1  C   UNL     1      41.297  -0.504  10.644  0.00  0.00    +0.000 C 
ATOM      2  O   UNL     1      42.068  -0.407   9.634  0.00  0.00    +0.000 OA
ENDROOT
BRANCH   1   3
ATOM      3  O   UNL     1      41.846  -1.148  11.792  0.00  0.00    +0.000 OA
BRANCH   3   5
ATOM      4  C   UNL     1      42.322  -3.113  12.880  0.00  0.00    +0.000 C 
ATOM      5  C   UNL     1      40.935  -2.244  12.293  0.00  0.00    +0.000 C 
BRANCH   5   6
ATOM      6  C   UNL     1      40.737  -1.736  13.852  0.00  0.00    +0.000 C 
ATOM      7  O   UNL     1      41.463  -1.025  14.436  0.00  0.00    +0.000 OA
BRANCH   6   8
ATOM      8  C   UNL     1      39.533  -2.368  14.252  0.00  0.00    +0.000 A 
ATOM      9  C   UNL     1      38.421  -2.619  13.512  0.00  0.00    +0.000 A 
ATOM     10  C   UNL     1      37.398  -3.363  14.009  0.00  0.00    +0.000 A 
ATOM     11  C   UNL     1      37.411  -3.899  15.280  0.00  0.00    +0.000 A 
ATOM     12  C   UNL     1      38.544  -3.669  16.089  0.00  0.00    +0.000 A 
ATOM     13  C   UNL     1      39.548  -2.923  15.552  0.00  0.00    +0.000 A 
ATOM     14  C   UNL     1      38.381  -4.325  17.405  0.00  0.00    +0.000 C 
ATOM     15  C   UNL     1      37.463  -5.492  16.989  0.00  0.00    +0.000 C 
ATOM     16  C   UNL     1      36.482  -4.772  16.076  0.00  0.00    +0.000 C 
ENDBRANCH   6   8
ENDBRANCH   5   6
ENDBRANCH   3   5
ENDBRANCH   1   3
BRANCH   1  17
ATOM     17  C   UNL     1      39.924   0.007  10.686  0.00  0.00    +0.000 C 
BRANCH  17  18
ATOM     18  O   UNL     1      39.723   0.990  11.601  0.00  0.00    +0.000 OA
BRANCH  18  19
ATOM     19  C   UNL     1      38.711   1.054  12.545  0.00  0.00    +0.000 A 
ATOM     20  C   UNL     1      38.958   1.421  13.862  0.00  0.00    +0.000 A 
ATOM     21  C   UNL     1      37.929   1.466  14.746  0.00  0.00    +0.000 A 
ATOM     22  C   UNL     1      36.602   1.164  14.390  0.00  0.00    +0.000 A 
ATOM     23  C   UNL     1      36.359   0.803  13.074  0.00  0.00    +0.000 A 
ATOM     24  C   UNL     1      37.421   0.750  12.171  0.00  0.00    +0.000 A 
BRANCH  22  25
ATOM     25  N   UNL     1      35.549   1.148  15.317  0.00  0.00    +0.000 NA
BRANCH  25  26
ATOM     26  C   UNL     1      35.817   0.421  16.540  0.00  0.00    +0.000 A 
ATOM     27  C   UNL     1      35.721  -0.977  16.583  0.00  0.00    +0.000 A 
ATOM     28  C   UNL     1      35.837  -1.622  17.777  0.00  0.00    +0.000 A 
ATOM     29  C   UNL     1      36.043  -0.998  19.006  0.00  0.00    +0.000 A 
ATOM     30  C   UNL     1      36.126   0.388  18.921  0.00  0.00    +0.000 A 
ATOM     31  C   UNL     1      36.017   1.085  17.723  0.00  0.00    +0.000 A 
ENDBRANCH  25  26
ENDBRANCH  22  25
ENDBRANCH  18  19
ENDBRANCH  17  18
ENDBRANCH   1  17
TORSDOF 9
ENDMDL
MODEL 3
REMARK VINA RESULT:      -6.5      2.035      5.362
REMARK  Name = 
REMARK  9 active torsions:
REMARK  status: ('A' for Active; 'I' for Inactive)
REMARK    1  A    between atoms: C_2  and  O_3
REMARK    2  A    between atoms: C_2  and  C_21
REMARK    3  A    between atoms: O_3  and  C_4
REMARK    4  A    between atoms: C_4  and  C_6
REMARK    5  A    between atoms: C_6  and  O_7
REMARK    6  A    between atoms: O_7  and  C_8
REMARK    7  A    between atoms: C_11  and  N_12
REMARK    8  A    between atoms: N_12  and  C_13
REMARK    9  A    between atoms: C_21  and  C_23
REMARK                            x       y       z     vdW  Elec       q    Type
REMARK                         _______ _______ _______ _____ _____    ______ ____
ROOT
ATOM      1  C   UNL     1      39.916  -0.616  11.766  0.00  0.00    +0.000 C 
ATOM      2  O   UNL     1      39.253  -1.687  11.570  0.00  0.00    +0.000 OA
ENDROOT
BRANCH   1   3
ATOM      3  O   UNL     1      40.852  -0.647  12.841  0.00  0.00    +0.000 OA
BRANCH   3   5
ATOM      4  C   UNL     1      42.150  -1.492  14.537  0.00  0.00    +0.000 C 
ATOM      5  C   UNL     1      40.714  -1.914  13.653  0.00  0.00    +0.000 C 
BRANCH   5   6
ATOM      6  C   UNL     1      39.880  -1.315  14.947  0.00  0.00    +0.000 C 
ATOM      7  O   UNL     1      39.946  -0.217  15.352  0.00  0.00    +0.000 OA
BRANCH   6   8
ATOM      8  C   UNL     1      39.127  -2.428  15.395  0.00  0.00    +0.000 A 
ATOM      9  C   UNL     1      39.309  -3.180  16.514  0.00  0.00    +0.000 A 
ATOM     10  C   UNL     1      38.410  -4.133  16.875  0.00  0.00    +0.000 A 
ATOM     11  C   UNL     1      37.274  -4.407  16.142  0.00  0.00    +0.000 A 
ATOM     12  C   UNL     1      37.037  -3.652  14.973  0.00  0.00    +0.000 A 
ATOM     13  C   UNL     1      37.960  -2.706  14.649  0.00  0.00    +0.000 A 
ATOM     14  C   UNL     1      35.775  -4.080  14.330  0.00  0.00    +0.000 C 
ATOM     15  C   UNL     1      35.012  -4.565  15.579  0.00  0.00    +0.000 C 
ATOM     16  C   UNL     1      36.106  -5.338  16.298  0.00  0.00    +0.000 C 
ENDBRANCH   6   8
ENDBRANCH   5   6
ENDBRANCH   3   5
ENDBRANCH   1   3
BRANCH   1  17
ATOM     17  C   UNL     1      39.778   0.599  10.959  0.00  0.00    +0.000 C 
BRANCH  17  18
ATOM     18  O   UNL     1      39.237   1.652  11.624  0.00  0.00    +0.000 OA
BRANCH  18  19
ATOM     19  C   UNL     1      38.243   1.605  12.588  0.00  0.00    +0.000 A 
ATOM     20  C   UNL     1      37.075   0.876  12.403  0.00  0.00    +0.000 A 
ATOM     21  C   UNL     1      36.133   0.866  13.381  0.00  0.00    +0.000 A 
ATOM     22  C   UNL     1      36.285   1.560  14.595  0.00  0.00    +0.000 A 
ATOM     23  C   UNL     1      37.453   2.282  14.778  0.00  0.00    +0.000 A 
ATOM     24  C   UNL     1      38.414   2.297  13.767  0.00  0.00    +0.000 A 
BRANCH  22  25
ATOM     25  N   UNL     1      35.285   1.601  15.578  0.00  0.00    +0.000 NA
BRANCH  25  26
ATOM     26  C   UNL     1      35.468   0.682  16.682  0.00  0.00    +0.000 A 
ATOM     27  C   UNL     1      36.012   1.117  17.898  0.00  0.00    +0.000 A 
ATOM     28  C   UNL     1      36.307   0.204  18.867  0.00  0.00    +0.000 A 
ATOM     29  C   UNL     1      36.116  -1.172  18.753  0.00  0.00    +0.000 A 
ATOM     30  C   UNL     1      35.581  -1.562  17.530  0.00  0.00    +0.000 A 
ATOM     31  C   UNL     1      35.263  -0.664  16.517  0.00  0.00    +0.000 A 
ENDBRANCH  25  26
ENDBRANCH  22  25
ENDBRANCH  18  19
ENDBRANCH  17  18
ENDBRANCH   1  17
TORSDOF 9
ENDMDL
MODEL 4
REMARK VINA RESULT:      -6.5      4.376      6.820
REMARK  Name = 
REMARK  9 active torsions:
REMARK  status: ('A' for Active; 'I' for Inactive)
REMARK    1  A    between atoms: C_2  and  O_3
REMARK    2  A    between atoms: C_2  and  C_21
REMARK    3  A    between atoms: O_3  and  C_4
REMARK    4  A    between atoms: C_4  and  C_6
REMARK    5  A    between atoms: C_6  and  O_7
REMARK    6  A    between atoms: O_7  and  C_8
REMARK    7  A    between atoms: C_11  and  N_12
REMARK    8  A    between atoms: N_12  and  C_13
REMARK    9  A    between atoms: C_21  and  C_23
REMARK                            x       y       z     vdW  Elec       q    Type
REMARK                         _______ _______ _______ _____ _____    ______ ____
ROOT
ATOM      1  C   UNL     1      35.968   1.932  16.045  0.00  0.00    +0.000 C 
ATOM      2  O   UNL     1      35.868   2.011  14.777  0.00  0.00    +0.000 OA
ENDROOT
BRANCH   1   3
ATOM      3  O   UNL     1      35.403   0.771  16.648  0.00  0.00    +0.000 OA
BRANCH   3   5
ATOM      4  C   UNL     1      35.250  -0.982  18.124  0.00  0.00    +0.000 C 
ATOM      5  C   UNL     1      36.473  -0.112  17.248  0.00  0.00    +0.000 C 
BRANCH   5   6
ATOM      6  C   UNL     1      36.426  -1.361  16.168  0.00  0.00    +0.000 C 
ATOM      7  O   UNL     1      35.454  -1.851  15.733  0.00  0.00    +0.000 OA
BRANCH   6   8
ATOM      8  C   UNL     1      37.794  -1.655  15.946  0.00  0.00    +0.000 A 
ATOM      9  C   UNL     1      38.461  -2.817  16.178  0.00  0.00    +0.000 A 
ATOM     10  C   UNL     1      39.749  -2.980  15.778  0.00  0.00    +0.000 A 
ATOM     11  C   UNL     1      40.463  -1.995  15.128  0.00  0.00    +0.000 A 
ATOM     12  C   UNL     1      39.815  -0.769  14.861  0.00  0.00    +0.000 A 
ATOM     13  C   UNL     1      38.524  -0.648  15.275  0.00  0.00    +0.000 A 
ATOM     14  C   UNL     1      40.729   0.154  14.155  0.00  0.00    +0.000 C 
ATOM     15  C   UNL     1      41.615  -0.879  13.429  0.00  0.00    +0.000 C 
ATOM     16  C   UNL     1      41.842  -1.891  14.541  0.00  0.00    +0.000 C 
ENDBRANCH   6   8
ENDBRANCH   5   6
ENDBRANCH   3   5
ENDBRANCH   1   3
BRANCH   1  17
ATOM     17  C   UNL     1      36.626   2.938  16.885  0.00  0.00    +0.000 C 
BRANCH  17  18
ATOM     18  O   UNL     1      37.816   3.377  16.402  0.00  0.00    +0.000 OA
BRANCH  18  19
ATOM     19  C   UNL     1      38.588   4.411  16.905  0.00  0.00    +0.000 A 
ATOM     20  C   UNL     1      39.345   5.232  16.079  0.00  0.00    +0.000 A 
ATOM     21  C   UNL     1      40.084   6.230  16.627  0.00  0.00    +0.000 A 
ATOM     22  C   UNL     1      40.117   6.486  18.009  0.00  0.00    +0.000 A 
ATOM     23  C   UNL     1      39.357   5.668  18.831  0.00  0.00    +0.000 A 
ATOM     24  C   UNL     1      38.606   4.638  18.264  0.00  0.00    +0.000 A 
BRANCH  22  25
ATOM     25  N   UNL     1      40.930   7.476  18.582  0.00  0.00    +0.000 NA
BRANCH  25  26
ATOM     26  C   UNL     1      42.138   6.990  19.217  0.00  0.00    +0.000 A 
ATOM     27  C   UNL     1      42.168   6.714  20.591  0.00  0.00    +0.000 A 
ATOM     28  C   UNL     1      43.351   6.397  21.187  0.00  0.00    +0.000 A 
ATOM     29  C   UNL     1      44.581   6.325  20.534  0.00  0.00    +0.000 A 
ATOM     30  C   UNL     1      44.508   6.611  19.174  0.00  0.00    +0.000 A 
ATOM     31  C   UNL     1      43.322   6.936  18.527  0.00  0.00    +0.000 A 
ENDBRANCH  25  26
ENDBRANCH  22  25
ENDBRANCH  18  19
ENDBRANCH  17  18
ENDBRANCH   1  17
TORSDOF 9
ENDMDL
MODEL 5
REMARK VINA RESULT:      -6.4      2.659      5.214
REMARK  Name = 
REMARK  9 active torsions:
REMARK  status: ('A' for Active; 'I' for Inactive)
REMARK    1  A    between atoms: C_2  and  O_3
REMARK    2  A    between atoms: C_2  and  C_21
REMARK    3  A    between atoms: O_3  and  C_4
REMARK    4  A    between atoms: C_4  and  C_6
REMARK    5  A    between atoms: C_6  and  O_7
REMARK    6  A    between atoms: O_7  and  C_8
REMARK    7  A    between atoms: C_11  and  N_12
REMARK    8  A    between atoms: N_12  and  C_13
REMARK    9  A    between atoms: C_21  and  C_23
REMARK                            x       y       z     vdW  Elec       q    Type
REMARK                         _______ _______ _______ _____ _____    ______ ____
ROOT
ATOM      1  C   UNL     1      35.615  -0.019  17.916  0.00  0.00    +0.000 C 
ATOM      2  O   UNL     1      36.614   0.037  18.705  0.00  0.00    +0.000 OA
ENDROOT
BRANCH   1   3
ATOM      3  O   UNL     1      35.142   1.229  17.414  0.00  0.00    +0.000 OA
BRANCH   3   5
ATOM      4  C   UNL     1      34.553   2.846  15.894  0.00  0.00    +0.000 C 
ATOM      5  C   UNL     1      35.581   1.447  15.985  0.00  0.00    +0.000 C 
BRANCH   5   6
ATOM      6  C   UNL     1      36.816   2.513  16.243  0.00  0.00    +0.000 C 
ATOM      7  O   UNL     1      37.017   3.096  17.240  0.00  0.00    +0.000 OA
BRANCH   6   8
ATOM      8  C   UNL     1      37.502   2.526  15.004  0.00  0.00    +0.000 A 
ATOM      9  C   UNL     1      38.647   3.182  14.675  0.00  0.00    +0.000 A 
ATOM     10  C   UNL     1      39.256   2.979  13.477  0.00  0.00    +0.000 A 
ATOM     11  C   UNL     1      38.761   2.114  12.523  0.00  0.00    +0.000 A 
ATOM     12  C   UNL     1      37.575   1.407  12.816  0.00  0.00    +0.000 A 
ATOM     13  C   UNL     1      36.999   1.637  14.028  0.00  0.00    +0.000 A 
ATOM     14  C   UNL     1      37.206   0.528  11.685  0.00  0.00    +0.000 C 
ATOM     15  C   UNL     1      38.611   0.261  11.108  0.00  0.00    +0.000 C 
ATOM     16  C   UNL     1      39.212   1.657  11.165  0.00  0.00    +0.000 C 
ENDBRANCH   6   8
ENDBRANCH   5   6
ENDBRANCH   3   5
ENDBRANCH   1   3
BRANCH   1  17
ATOM     17  C   UNL     1      34.958  -1.263  17.503  0.00  0.00    +0.000 C 
BRANCH  17  18
ATOM     18  O   UNL     1      35.807  -2.304  17.309  0.00  0.00    +0.000 OA
BRANCH  18  19
ATOM     19  C   UNL     1      36.795  -2.404  16.342  0.00  0.00    +0.000 A 
ATOM     20  C   UNL     1      36.543  -2.124  15.005  0.00  0.00    +0.000 A 
ATOM     21  C   UNL     1      37.549  -2.239  14.099  0.00  0.00    +0.000 A 
ATOM     22  C   UNL     1      38.855  -2.624  14.452  0.00  0.00    +0.000 A 
ATOM     23  C   UNL     1      39.103  -2.897  15.788  0.00  0.00    +0.000 A 
ATOM     24  C   UNL     1      38.065  -2.786  16.713  0.00  0.00    +0.000 A 
BRANCH  22  25
ATOM     25  N   UNL     1      39.877  -2.805  13.508  0.00  0.00    +0.000 NA
BRANCH  25  26
ATOM     26  C   UNL     1      40.685  -1.632  13.243  0.00  0.00    +0.000 A 
ATOM     27  C   UNL     1      41.525  -1.574  12.123  0.00  0.00    +0.000 A 
ATOM     28  C   UNL     1      42.378  -0.522  11.977  0.00  0.00    +0.000 A 
ATOM     29  C   UNL     1      42.502   0.537  12.875  0.00  0.00    +0.000 A 
ATOM     30  C   UNL     1      41.656   0.438  13.974  0.00  0.00    +0.000 A 
ATOM     31  C   UNL     1      40.769  -0.615  14.160  0.00  0.00    +0.000 A 
ENDBRANCH  25  26
ENDBRANCH  22  25
ENDBRANCH  18  19
ENDBRANCH  17  18
ENDBRANCH   1  17
TORSDOF 9
ENDMDL
MODEL 6
REMARK VINA RESULT:      -6.3      3.042      6.146
REMARK  Name = 
REMARK  9 active torsions:
REMARK  status: ('A' for Active; 'I' for Inactive)
REMARK    1  A    between atoms: C_2  and  O_3
REMARK    2  A    between atoms: C_2  and  C_21
REMARK    3  A    between atoms: O_3  and  C_4
REMARK    4  A    between atoms: C_4  and  C_6
REMARK    5  A    between atoms: C_6  and  O_7
REMARK    6  A    between atoms: O_7  and  C_8
REMARK    7  A    between atoms: C_11  and  N_12
REMARK    8  A    between atoms: N_12  and  C_13
REMARK    9  A    between atoms: C_21  and  C_23
REMARK                            x       y       z     vdW  Elec       q    Type
REMARK                         _______ _______ _______ _____ _____    ______ ____
ROOT
ATOM      1  C   UNL     1      38.894   5.161  12.501  0.00  0.00    +0.000 C 
ATOM      2  O   UNL     1      40.061   5.516  12.869  0.00  0.00    +0.000 OA
ENDROOT
BRANCH   1   3
ATOM      3  O   UNL     1      38.833   4.176  11.472  0.00  0.00    +0.000 OA
BRANCH   3   5
ATOM      4  C   UNL     1      38.375   2.198  10.399  0.00  0.00    +0.000 C 
ATOM      5  C   UNL     1      38.339   2.852  12.009  0.00  0.00    +0.000 C 
BRANCH   5   6
ATOM      6  C   UNL     1      39.789   2.093  12.227  0.00  0.00    +0.000 C 
ATOM      7  O   UNL     1      40.761   2.284  11.600  0.00  0.00    +0.000 OA
BRANCH   6   8
ATOM      8  C   UNL     1      39.536   1.205  13.302  0.00  0.00    +0.000 A 
ATOM      9  C   UNL     1      38.417   1.097  14.067  0.00  0.00    +0.000 A 
ATOM     10  C   UNL     1      38.278   0.094  14.973  0.00  0.00    +0.000 A 
ATOM     11  C   UNL     1      39.248  -0.864  15.185  0.00  0.00    +0.000 A 
ATOM     12  C   UNL     1      40.429  -0.798  14.414  0.00  0.00    +0.000 A 
ATOM     13  C   UNL     1      40.526   0.220  13.515  0.00  0.00    +0.000 A 
ATOM     14  C   UNL     1      41.342  -1.905  14.773  0.00  0.00    +0.000 C 
ATOM     15  C   UNL     1      40.300  -2.950  15.223  0.00  0.00    +0.000 C 
ATOM     16  C   UNL     1      39.369  -2.082  16.055  0.00  0.00    +0.000 C 
ENDBRANCH   6   8
ENDBRANCH   5   6
ENDBRANCH   3   5
ENDBRANCH   1   3
BRANCH   1  17
ATOM     17  C   UNL     1      37.652   5.689  13.073  0.00  0.00    +0.000 C 
BRANCH  17  18
ATOM     18  O   UNL     1      37.508   5.457  14.403  0.00  0.00    +0.000 OA
BRANCH  18  19
ATOM     19  C   UNL     1      36.756   4.456  14.997  0.00  0.00    +0.000 A 
ATOM     20  C   UNL     1      35.573   3.996  14.434  0.00  0.00    +0.000 A 
ATOM     21  C   UNL     1      34.875   3.013  15.060  0.00  0.00    +0.000 A 
ATOM     22  C   UNL     1      35.300   2.422  16.263  0.00  0.00    +0.000 A 
ATOM     23  C   UNL     1      36.483   2.881  16.819  0.00  0.00    +0.000 A 
ATOM     24  C   UNL     1      37.192   3.896  16.177  0.00  0.00    +0.000 A 
BRANCH  22  25
ATOM     25  N   UNL     1      34.547   1.452  16.942  0.00  0.00    +0.000 NA
BRANCH  25  26
ATOM     26  C   UNL     1      35.274   0.253  17.306  0.00  0.00    +0.000 A 
ATOM     27  C   UNL     1      35.168  -0.914  16.538  0.00  0.00    +0.000 A 
ATOM     28  C   UNL     1      35.746  -2.066  16.982  0.00  0.00    +0.000 A 
ATOM     29  C   UNL     1      36.453  -2.196  18.176  0.00  0.00    +0.000 A 
ATOM     30  C   UNL     1      36.529  -1.017  18.911  0.00  0.00    +0.000 A 
ATOM     31  C   UNL     1      35.957   0.179  18.493  0.00  0.00    +0.000 A 
ENDBRANCH  25  26
ENDBRANCH  22  25
ENDBRANCH  18  19
ENDBRANCH  17  18
ENDBRANCH   1  17
TORSDOF 9
ENDMDL
MODEL 7
REMARK VINA RESULT:      -6.1      8.075     10.846
REMARK  Name = 
REMARK  9 active torsions:
REMARK  status: ('A' for Active; 'I' for Inactive)
REMARK    1  A    between atoms: C_2  and  O_3
REMARK    2  A    between atoms: C_2  and  C_21
REMARK    3  A    between atoms: O_3  and  C_4
REMARK    4  A    between atoms: C_4  and  C_6
REMARK    5  A    between atoms: C_6  and  O_7
REMARK    6  A    between atoms: O_7  and  C_8
REMARK    7  A    between atoms: C_11  and  N_12
REMARK    8  A    between atoms: N_12  and  C_13
REMARK    9  A    between atoms: C_21  and  C_23
REMARK                            x       y       z     vdW  Elec       q    Type
REMARK                         _______ _______ _______ _____ _____    ______ ____
ROOT
ATOM      1  C   UNL     1      43.271  10.030  22.254  0.00  0.00    +0.000 C 
ATOM      2  O   UNL     1      43.391  10.761  23.291  0.00  0.00    +0.000 OA
ENDROOT
BRANCH   1   3
ATOM      3  O   UNL     1      44.014   8.813  22.255  0.00  0.00    +0.000 OA
BRANCH   3   5
ATOM      4  C   UNL     1      45.497   7.295  21.377  0.00  0.00    +0.000 C 
ATOM      5  C   UNL     1      44.134   8.243  20.861  0.00  0.00    +0.000 C 
BRANCH   5   6
ATOM      6  C   UNL     1      43.246   6.864  21.057  0.00  0.00    +0.000 C 
ATOM      7  O   UNL     1      43.258   6.174  22.004  0.00  0.00    +0.000 OA
BRANCH   6   8
ATOM      8  C   UNL     1      42.529   6.759  19.839  0.00  0.00    +0.000 A 
ATOM      9  C   UNL     1      43.003   6.839  18.567  0.00  0.00    +0.000 A 
ATOM     10  C   UNL     1      42.202   6.577  17.500  0.00  0.00    +0.000 A 
ATOM     11  C   UNL     1      40.874   6.227  17.629  0.00  0.00    +0.000 A 
ATOM     12  C   UNL     1      40.334   6.128  18.930  0.00  0.00    +0.000 A 
ATOM     13  C   UNL     1      41.171   6.395  19.970  0.00  0.00    +0.000 A 
ATOM     14  C   UNL     1      38.909   5.736  18.868  0.00  0.00    +0.000 C 
ATOM     15  C   UNL     1      38.928   4.937  17.550  0.00  0.00    +0.000 C 
ATOM     16  C   UNL     1      39.777   5.847  16.676  0.00  0.00    +0.000 C 
ENDBRANCH   6   8
ENDBRANCH   5   6
ENDBRANCH   3   5
ENDBRANCH   1   3
BRANCH   1  17
ATOM     17  C   UNL     1      42.425  10.362  21.104  0.00  0.00    +0.000 C 
BRANCH  17  18
ATOM     18  O   UNL     1      41.093  10.303  21.356  0.00  0.00    +0.000 OA
BRANCH  18  19
ATOM     19  C   UNL     1      40.092   9.951  20.465  0.00  0.00    +0.000 A 
ATOM     20  C   UNL     1      38.828   9.567  20.894  0.00  0.00    +0.000 A 
ATOM     21  C   UNL     1      37.886   9.231  19.975  0.00  0.00    +0.000 A 
ATOM     22  C   UNL     1      38.124   9.260  18.590  0.00  0.00    +0.000 A 
ATOM     23  C   UNL     1      39.385   9.649  18.165  0.00  0.00    +0.000 A 
ATOM     24  C   UNL     1      40.352   9.985  19.112  0.00  0.00    +0.000 A 
BRANCH  22  25
ATOM     25  N   UNL     1      37.172   8.852  17.644  0.00  0.00    +0.000 NA
BRANCH  25  26
ATOM     26  C   UNL     1      36.154   9.834  17.333  0.00  0.00    +0.000 A 
ATOM     27  C   UNL     1      34.809   9.605  17.656  0.00  0.00    +0.000 A 
ATOM     28  C   UNL     1      33.856  10.478  17.224  0.00  0.00    +0.000 A 
ATOM     29  C   UNL     1      34.103  11.615  16.457  0.00  0.00    +0.000 A 
ATOM     30  C   UNL     1      35.447  11.802  16.152  0.00  0.00    +0.000 A 
ATOM     31  C   UNL     1      36.451  10.939  16.576  0.00  0.00    +0.000 A 
ENDBRANCH  25  26
ENDBRANCH  22  25
ENDBRANCH  18  19
ENDBRANCH  17  18
ENDBRANCH   1  17
TORSDOF 9
ENDMDL
MODEL 8
REMARK VINA RESULT:      -6.1      5.621      8.240
REMARK  Name = 
REMARK  9 active torsions:
REMARK  status: ('A' for Active; 'I' for Inactive)
REMARK    1  A    between atoms: C_2  and  O_3
REMARK    2  A    between atoms: C_2  and  C_21
REMARK    3  A    between atoms: O_3  and  C_4
REMARK    4  A    between atoms: C_4  and  C_6
REMARK    5  A    between atoms: C_6  and  O_7
REMARK    6  A    between atoms: O_7  and  C_8
REMARK    7  A    between atoms: C_11  and  N_12
REMARK    8  A    between atoms: N_12  and  C_13
REMARK    9  A    between atoms: C_21  and  C_23
REMARK                            x       y       z     vdW  Elec       q    Type
REMARK                         _______ _______ _______ _____ _____    ______ ____
ROOT
ATOM      1  C   UNL     1      38.233   5.492  14.611  0.00  0.00    +0.000 C 
ATOM      2  O   UNL     1      38.611   6.507  13.939  0.00  0.00    +0.000 OA
ENDROOT
BRANCH   1   3
ATOM      3  O   UNL     1      38.211   4.250  13.911  0.00  0.00    +0.000 OA
BRANCH   3   5
ATOM      4  C   UNL     1      37.153   2.506  12.857  0.00  0.00    +0.000 C 
ATOM      5  C   UNL     1      37.040   3.398  14.345  0.00  0.00    +0.000 C 
BRANCH   5   6
ATOM      6  C   UNL     1      37.863   2.140  15.028  0.00  0.00    +0.000 C 
ATOM      7  O   UNL     1      39.005   1.915  14.889  0.00  0.00    +0.000 OA
BRANCH   6   8
ATOM      8  C   UNL     1      36.865   1.457  15.767  0.00  0.00    +0.000 A 
ATOM      9  C   UNL     1      35.738   1.962  16.337  0.00  0.00    +0.000 A 
ATOM     10  C   UNL     1      34.806   1.146  16.895  0.00  0.00    +0.000 A 
ATOM     11  C   UNL     1      34.937  -0.227  16.930  0.00  0.00    +0.000 A 
ATOM     12  C   UNL     1      36.089  -0.801  16.350  0.00  0.00    +0.000 A 
ATOM     13  C   UNL     1      36.996   0.051  15.798  0.00  0.00    +0.000 A 
ATOM     14  C   UNL     1      36.049  -2.275  16.476  0.00  0.00    +0.000 C 
ATOM     15  C   UNL     1      34.521  -2.483  16.487  0.00  0.00    +0.000 C 
ATOM     16  C   UNL     1      34.088  -1.365  17.422  0.00  0.00    +0.000 C 
ENDBRANCH   6   8
ENDBRANCH   5   6
ENDBRANCH   3   5
ENDBRANCH   1   3
BRANCH   1  17
ATOM     17  C   UNL     1      37.846   5.536  16.024  0.00  0.00    +0.000 C 
BRANCH  17  18
ATOM     18  O   UNL     1      38.736   4.947  16.864  0.00  0.00    +0.000 OA
BRANCH  18  19
ATOM     19  C   UNL     1      39.675   5.584  17.660  0.00  0.00    +0.000 A 
ATOM     20  C   UNL     1      40.877   6.052  17.146  0.00  0.00    +0.000 A 
ATOM     21  C   UNL     1      41.761   6.668  17.972  0.00  0.00    +0.000 A 
ATOM     22  C   UNL     1      41.515   6.867  19.342  0.00  0.00    +0.000 A 
ATOM     23  C   UNL     1      40.312   6.402  19.851  0.00  0.00    +0.000 A 
ATOM     24  C   UNL     1      39.411   5.763  19.000  0.00  0.00    +0.000 A 
BRANCH  22  25
ATOM     25  N   UNL     1      42.455   7.445  20.209  0.00  0.00    +0.000 NA
BRANCH  25  26
ATOM     26  C   UNL     1      43.578   6.598  20.553  0.00  0.00    +0.000 A 
ATOM     27  C   UNL     1      43.577   5.846  21.735  0.00  0.00    +0.000 A 
ATOM     28  C   UNL     1      44.703   5.173  22.104  0.00  0.00    +0.000 A 
ATOM     29  C   UNL     1      45.901   5.167  21.391  0.00  0.00    +0.000 A 
ATOM     30  C   UNL     1      45.861   5.930  20.228  0.00  0.00    +0.000 A 
ATOM     31  C   UNL     1      44.733   6.630  19.814  0.00  0.00    +0.000 A 
ENDBRANCH  25  26
ENDBRANCH  22  25
ENDBRANCH  18  19
ENDBRANCH  17  18
ENDBRANCH   1  17
TORSDOF 9
ENDMDL
MODEL 9
REMARK VINA RESULT:      -6.0      5.403      8.480
REMARK  Name = 
REMARK  9 active torsions:
REMARK  status: ('A' for Active; 'I' for Inactive)
REMARK    1  A    between atoms: C_2  and  O_3
REMARK    2  A    between atoms: C_2  and  C_21
REMARK    3  A    between atoms: O_3  and  C_4
REMARK    4  A    between atoms: C_4  and  C_6
REMARK    5  A    between atoms: C_6  and  O_7
REMARK    6  A    between atoms: O_7  and  C_8
REMARK    7  A    between atoms: C_11  and  N_12
REMARK    8  A    between atoms: N_12  and  C_13
REMARK    9  A    between atoms: C_21  and  C_23
REMARK                            x       y       z     vdW  Elec       q    Type
REMARK                         _______ _______ _______ _____ _____    ______ ____
ROOT
ATOM      1  C   UNL     1      39.413   6.040  15.580  0.00  0.00    +0.000 C 
ATOM      2  O   UNL     1      40.382   6.744  15.145  0.00  0.00    +0.000 OA
ENDROOT
BRANCH   1   3
ATOM      3  O   UNL     1      38.584   6.655  16.564  0.00  0.00    +0.000 OA
BRANCH   3   5
ATOM      4  C   UNL     1      37.970   7.582  18.573  0.00  0.00    +0.000 C 
ATOM      5  C   UNL     1      39.411   7.328  17.635  0.00  0.00    +0.000 C 
BRANCH   5   6
ATOM      6  C   UNL     1      39.685   6.030  18.619  0.00  0.00    +0.000 C 
ATOM      7  O   UNL     1      38.965   5.116  18.759  0.00  0.00    +0.000 OA
BRANCH   6   8
ATOM      8  C   UNL     1      40.941   6.323  19.206  0.00  0.00    +0.000 A 
ATOM      9  C   UNL     1      41.322   6.191  20.505  0.00  0.00    +0.000 A 
ATOM     10  C   UNL     1      42.612   6.385  20.883  0.00  0.00    +0.000 A 
ATOM     11  C   UNL     1      43.609   6.730  19.994  0.00  0.00    +0.000 A 
ATOM     12  C   UNL     1      43.267   6.877  18.633  0.00  0.00    +0.000 A 
ATOM     13  C   UNL     1      41.964   6.671  18.296  0.00  0.00    +0.000 A 
ATOM     14  C   UNL     1      44.460   7.239  17.837  0.00  0.00    +0.000 C 
ATOM     15  C   UNL     1      45.547   6.568  18.700  0.00  0.00    +0.000 C 
ATOM     16  C   UNL     1      45.090   6.965  20.095  0.00  0.00    +0.000 C 
ENDBRANCH   6   8
ENDBRANCH   5   6
ENDBRANCH   3   5
ENDBRANCH   1   3
BRANCH   1  17
ATOM     17  C   UNL     1      39.111   4.680  15.125  0.00  0.00    +0.000 C 
BRANCH  17  18
ATOM     18  O   UNL     1      37.792   4.359  15.163  0.00  0.00    +0.000 OA
BRANCH  18  19
ATOM     19  C   UNL     1      37.244   3.133  15.507  0.00  0.00    +0.000 A 
ATOM     20  C   UNL     1      36.307   3.008  16.524  0.00  0.00    +0.000 A 
ATOM     21  C   UNL     1      35.803   1.782  16.819  0.00  0.00    +0.000 A 
ATOM     22  C   UNL     1      36.181   0.615  16.131  0.00  0.00    +0.000 A 
ATOM     23  C   UNL     1      37.114   0.745  15.114  0.00  0.00    +0.000 A 
ATOM     24  C   UNL     1      37.634   2.005  14.820  0.00  0.00    +0.000 A 
BRANCH  22  25
ATOM     25  N   UNL     1      35.710  -0.661  16.478  0.00  0.00    +0.000 NA
BRANCH  25  26
ATOM     26  C   UNL     1      36.563  -1.408  17.378  0.00  0.00    +0.000 A 
ATOM     27  C   UNL     1      36.549  -1.158  18.757  0.00  0.00    +0.000 A 
ATOM     28  C   UNL     1      37.461  -1.773  19.561  0.00  0.00    +0.000 A 
ATOM     29  C   UNL     1      38.447  -2.655  19.122  0.00  0.00    +0.000 A 
ATOM     30  C   UNL     1      38.431  -2.871  17.747  0.00  0.00    +0.000 A 
ATOM     31  C   UNL     1      37.515  -2.267  16.893  0.00  0.00    +0.000 A 
ENDBRANCH  25  26
ENDBRANCH  22  25
ENDBRANCH  18  19
ENDBRANCH  17  18
ENDBRANCH   1  17
TORSDOF 9
ENDMDL
MODEL 10
REMARK VINA RESULT:      -6.0      3.268      6.543
REMARK  Name = 
REMARK  9 active torsions:
REMARK  status: ('A' for Active; 'I' for Inactive)
REMARK    1  A    between atoms: C_2  and  O_3
REMARK    2  A    between atoms: C_2  and  C_21
REMARK    3  A    between atoms: O_3  and  C_4
REMARK    4  A    between atoms: C_4  and  C_6
REMARK    5  A    between atoms: C_6  and  O_7
REMARK    6  A    between atoms: O_7  and  C_8
REMARK    7  A    between atoms: C_11  and  N_12
REMARK    8  A    between atoms: N_12  and  C_13
REMARK    9  A    between atoms: C_21  and  C_23
REMARK                            x       y       z     vdW  Elec       q    Type
REMARK                         _______ _______ _______ _____ _____    ______ ____
ROOT
ATOM      1  C   UNL     1      37.673  -1.471  17.051  0.00  0.00    +0.000 C 
ATOM      2  O   UNL     1      38.495  -1.700  17.997  0.00  0.00    +0.000 OA
ENDROOT
BRANCH   1   3
ATOM      3  O   UNL     1      36.497  -0.746  17.403  0.00  0.00    +0.000 OA
BRANCH   3   5
ATOM      4  C   UNL     1      34.203  -0.816  17.350  0.00  0.00    +0.000 C 
ATOM      5  C   UNL     1      35.534  -0.665  16.242  0.00  0.00    +0.000 C 
BRANCH   5   6
ATOM      6  C   UNL     1      35.220   0.956  16.265  0.00  0.00    +0.000 C 
ATOM      7  O   UNL     1      34.414   1.486  16.930  0.00  0.00    +0.000 OA
BRANCH   6   8
ATOM      8  C   UNL     1      36.131   1.480  15.313  0.00  0.00    +0.000 A 
ATOM      9  C   UNL     1      37.163   2.341  15.513  0.00  0.00    +0.000 A 
ATOM     10  C   UNL     1      38.034   2.640  14.513  0.00  0.00    +0.000 A 
ATOM     11  C   UNL     1      37.930   2.106  13.245  0.00  0.00    +0.000 A 
ATOM     12  C   UNL     1      36.875   1.204  12.987  0.00  0.00    +0.000 A 
ATOM     13  C   UNL     1      36.028   0.929  14.016  0.00  0.00    +0.000 A 
ATOM     14  C   UNL     1      36.931   0.733  11.585  0.00  0.00    +0.000 C 
ATOM     15  C   UNL     1      38.449   0.853  11.343  0.00  0.00    +0.000 C 
ATOM     16  C   UNL     1      38.733   2.204  11.980  0.00  0.00    +0.000 C 
ENDBRANCH   6   8
ENDBRANCH   5   6
ENDBRANCH   3   5
ENDBRANCH   1   3
BRANCH   1  17
ATOM     17  C   UNL     1      37.877  -1.891  15.661  0.00  0.00    +0.000 C 
BRANCH  17  18
ATOM     18  O   UNL     1      38.627  -1.033  14.923  0.00  0.00    +0.000 OA
BRANCH  18  19
ATOM     19  C   UNL     1      39.990  -1.110  14.688  0.00  0.00    +0.000 A 
ATOM     20  C   UNL     1      40.692  -2.300  14.828  0.00  0.00    +0.000 A 
ATOM     21  C   UNL     1      42.028  -2.318  14.585  0.00  0.00    +0.000 A 
ATOM     22  C   UNL     1      42.748  -1.178  14.184  0.00  0.00    +0.000 A 
ATOM     23  C   UNL     1      42.042   0.006  14.041  0.00  0.00    +0.000 A 
ATOM     24  C   UNL     1      40.672   0.022  14.299  0.00  0.00    +0.000 A 
BRANCH  22  25
ATOM     25  N   UNL     1      44.138  -1.182  13.996  0.00  0.00    +0.000 NA
BRANCH  25  26
ATOM     26  C   UNL     1      44.924  -1.235  15.211  0.00  0.00    +0.000 A 
ATOM     27  C   UNL     1      45.431  -2.451  15.688  0.00  0.00    +0.000 A 
ATOM     28  C   UNL     1      46.042  -2.493  16.905  0.00  0.00    +0.000 A 
ATOM     29  C   UNL     1      46.210  -1.400  17.753  0.00  0.00    +0.000 A 
ATOM     30  C   UNL     1      45.688  -0.215  17.246  0.00  0.00    +0.000 A 
ATOM     31  C   UNL     1      45.060  -0.128  16.008  0.00  0.00    +0.000 A 
ENDBRANCH  25  26
ENDBRANCH  22  25
ENDBRANCH  18  19
ENDBRANCH  17  18
ENDBRANCH   1  17
TORSDOF 9
ENDMDL
