
     RDKit          3D

 29 32  0  0  0  0  0  0  0  0999 V2000
   -3.7389    0.3211   -1.5999 C   0  0  0  0  0  0  0  0  0  0  0  0
   -2.9160   -0.4731   -0.6591 C   0  0  0  0  0  0  0  0  0  0  0  0
   -1.9085    0.0829    0.1260 C   0  0  0  0  0  0  0  0  0  0  0  0
   -1.5412    1.5172    0.1388 C   0  0  0  0  0  0  0  0  0  0  0  0
   -2.1997    2.3931   -0.7184 C   0  0  0  0  0  0  0  0  0  0  0  0
   -1.9356    3.7354   -0.7579 C   0  0  0  0  0  0  0  0  0  0  0  0
   -0.9764    4.2410    0.0875 C   0  0  0  0  0  0  0  0  0  0  0  0
   -0.6763    5.6159    0.0766 O   0  0  0  0  0  0  0  0  0  0  0  0
   -0.3149    3.3811    0.9439 C   0  0  0  0  0  0  0  0  0  0  0  0
   -0.5988    2.0359    0.9643 C   0  0  0  0  0  0  0  0  0  0  0  0
   -1.4014   -0.9316    0.8312 N   0  0  0  0  0  0  0  0  0  0  0  0
   -0.2850   -0.8200    1.7647 C   0  0  0  0  0  0  0  0  0  0  0  0
    1.0424   -1.1373    1.1918 C   0  0  0  0  0  0  0  0  0  0  0  0
    1.5156   -0.3324    0.0431 C   0  0  0  0  0  0  0  0  0  0  0  0
    2.8855   -0.8351   -0.3575 C   0  0  0  0  0  0  0  0  0  0  0  0
    3.8773   -0.7058    0.7805 C   0  0  0  0  0  0  0  0  0  0  0  0
    4.0521    0.7065    1.2361 C   0  0  0  0  0  0  0  0  0  0  0  0
    4.5293    1.6113    0.2353 N   0  0  0  0  0  0  0  0  0  0  0  0
    5.9013    1.3408   -0.1527 C   0  0  0  0  0  0  0  0  0  0  0  0
    5.7553    0.2906   -1.2427 C   0  0  0  0  0  0  0  0  0  0  0  0
    4.5555    0.8384   -2.0198 C   0  0  0  0  0  0  0  0  0  0  0  0
    3.7409    1.5897   -0.9824 C   0  0  0  0  0  0  0  0  0  0  0  0
   -2.0209   -2.0964    0.5483 C   0  0  0  0  0  0  0  0  0  0  0  0
   -1.8497   -3.4031    1.0199 C   0  0  0  0  0  0  0  0  0  0  0  0
   -2.6359   -4.4202    0.5490 C   0  0  0  0  0  0  0  0  0  0  0  0
   -2.4919   -5.7415    0.9990 O   0  0  0  0  0  0  0  0  0  0  0  0
   -3.5977   -4.1376   -0.3959 C   0  0  0  0  0  0  0  0  0  0  0  0
   -3.7841   -2.8464   -0.8776 C   0  0  0  0  0  0  0  0  0  0  0  0
   -2.9822   -1.8208   -0.3944 C   0  0  0  0  0  0  0  0  0  0  0  0
  1  2  1  0
  2  3  2  0
  3  4  1  0
  4  5  2  0
  5  6  1  0
  6  7  2  0
  7  8  1  0
  7  9  1  0
  9 10  2  0
  3 11  1  0
 11 12  1  0
 12 13  1  0
 13 14  1  0
 14 15  1  0
 15 16  1  0
 16 17  1  0
 17 18  1  0
 18 19  1  0
 19 20  1  0
 20 21  1  0
 21 22  1  0
 11 23  1  0
 23 24  2  0
 24 25  1  0
 25 26  1  0
 25 27  2  0
 27 28  1  0
 28 29  2  0
 29  2  1  0
 10  4  1  0
 22 18  1  0
 29 23  1  0
M  END
>  <zinc_id>  (1) 
ZINC000003815478

>  <smiles>  (1) 
Cc1c(-c2ccc(O)cc2)n(CCCCCCN2CCCC2)c2cc(O)ccc12

$$$$
