
     RDKit          3D

 21 24  0  0  0  0  0  0  0  0999 V2000
   -2.9394    1.0880   -0.2131 C   0  0  0  0  0  0  0  0  0  0  0  0
   -2.6895   -0.0483    0.5960 C   0  0  2  0  0  0  0  0  0  0  0  0
   -2.1221    0.0038    1.9186 C   0  0  0  0  0  0  0  0  0  0  0  0
   -0.6468    0.4316    1.7746 C   0  0  0  0  0  0  0  0  0  0  0  0
    0.0507   -0.7889    0.9527 C   0  0  2  0  0  0  0  0  0  0  0  0
    1.4478   -0.1391    0.7426 C   0  0  0  0  0  0  0  0  0  0  0  0
    2.0719    0.2471    1.8839 C   0  0  0  0  0  0  0  0  0  0  0  0
    3.3525    0.8532    1.8394 C   0  0  0  0  0  0  0  0  0  0  0  0
    3.9353    1.0357    0.6238 C   0  0  0  0  0  0  0  0  0  0  0  0
    5.2154    1.6368    0.5191 O   0  0  0  0  0  0  0  0  0  0  0  0
    3.2805    0.6348   -0.5190 C   0  0  0  0  0  0  0  0  0  0  0  0
    3.8764    0.8207   -1.7706 O   0  0  0  0  0  0  0  0  0  0  0  0
    2.0181    0.0389   -0.4548 C   0  0  0  0  0  0  0  0  0  0  0  0
    1.4001   -0.3570   -1.7711 C   0  0  0  0  0  0  0  0  0  0  0  0
    0.2204   -1.2718   -1.3942 C   0  0  0  0  0  0  0  0  0  0  0  0
   -0.6094   -0.2144   -0.5361 C   0  0  1  0  0  0  0  0  0  0  0  0
   -1.9251   -1.2308   -0.2637 C   0  0  2  0  0  0  0  0  0  0  0  0
   -2.7847   -0.8428   -1.5807 C   0  0  0  0  0  0  0  0  0  0  0  0
   -4.1785   -0.8630   -1.0864 C   0  0  0  0  0  0  0  0  0  0  0  0
   -3.9821   -1.0707    0.5549 C   0  0  2  0  0  0  0  0  0  0  0  0
   -4.9914    0.0361    0.8871 O   0  0  0  0  0  0  0  0  0  0  0  0
  2  1  1  6
  2  3  1  0
  3  4  1  0
  5  4  1  1
  5  6  1  0
  6  7  2  0
  7  8  1  0
  8  9  2  0
  9 10  1  0
  9 11  1  0
 11 12  1  0
 11 13  2  0
 13 14  1  0
 14 15  1  0
 16 15  1  6
 16 17  1  0
 17 18  1  6
 18 19  1  0
 19 20  1  0
 20 21  1  1
 17  2  1  0
 20  2  1  0
 16  5  1  0
 13  6  1  0
M  END
>  <zinc_id>  (1) 
ZINC000003814410

>  <smiles>  (1) 
C[C@]12CC[C@@H]3c4ccc(O)c(O)c4CC[C@H]3[C@@H]1CC[C@@H]2O

$$$$
