
     RDKit          3D

 23 26  0  0  0  0  0  0  0  0999 V2000
    4.5077    0.8259   -1.8390 C   0  0  0  0  0  0  0  0  0  0  0  0
    3.7445    0.4460   -0.9760 C   0  0  0  0  0  0  0  0  0  0  0  0
    2.8011   -0.0176    0.0555 C   0  0  1  0  0  0  0  0  0  0  0  0
    3.4802   -0.8762    0.9399 O   0  0  0  0  0  0  0  0  0  0  0  0
    2.3997    1.1877    0.8528 C   0  0  0  0  0  0  0  0  0  0  0  0
    1.2597    1.6859    0.0728 C   0  0  0  0  0  0  0  0  0  0  0  0
    0.3785    0.3557   -0.1998 C   0  0  2  0  0  0  0  0  0  0  0  0
    0.2937   -0.1171    1.4075 C   0  0  1  0  0  0  0  0  0  0  0  0
   -0.4342    1.1741    1.9321 C   0  0  0  0  0  0  0  0  0  0  0  0
   -1.8714    0.8629    2.2942 C   0  0  0  0  0  0  0  0  0  0  0  0
   -2.4330    0.6641    0.9057 C   0  0  0  0  0  0  0  0  0  0  0  0
   -3.3435    1.5334    0.3385 C   0  0  0  0  0  0  0  0  0  0  0  0
   -3.7336    1.2069   -0.9591 C   0  0  0  0  0  0  0  0  0  0  0  0
   -4.6516    2.0737   -1.5453 O   0  0  0  0  0  0  0  0  0  0  0  0
   -3.2338    0.1041   -1.5916 C   0  0  0  0  0  0  0  0  0  0  0  0
   -2.3093   -0.7437   -0.9621 C   0  0  0  0  0  0  0  0  0  0  0  0
   -1.9353   -0.4276    0.2875 C   0  0  0  0  0  0  0  0  0  0  0  0
   -0.9646   -1.2071    1.1937 C   0  0  1  0  0  0  0  0  0  0  0  0
   -0.2694   -2.0914   -0.0033 C   0  0  0  0  0  0  0  0  0  0  0  0
    1.3117   -1.9597    0.3761 C   0  0  1  0  0  0  0  0  0  0  0  0
    1.7870   -3.0921   -0.7083 C   0  0  0  0  0  0  0  0  0  0  0  0
    1.6075   -0.6377   -0.5393 C   0  0  2  0  0  0  0  0  0  0  0  0
    1.6087   -0.9502   -1.9521 C   0  0  0  0  0  0  0  0  0  0  0  0
  1  2  3  0
  2  3  1  0
  3  4  1  1
  3  5  1  0
  5  6  1  0
  7  6  1  1
  7  8  1  0
  8  9  1  1
  9 10  1  0
 10 11  1  0
 11 12  2  0
 12 13  1  0
 13 14  1  0
 13 15  2  0
 15 16  1  0
 16 17  2  0
 17 18  1  0
 18 19  1  6
 19 20  1  0
 20 21  1  6
 20 22  1  0
 22 23  1  6
 22  3  1  0
 22  7  1  0
 18  8  1  0
 17 11  1  0
M  END
>  <zinc_id>  (1) 
ZINC000003815440

>  <smiles>  (1) 
C#C[C@@]1(O)CC[C@@H]2[C@H]3CCc4cc(O)ccc4[C@H]3C[C@@H](C)[C@@]21C

$$$$
