
     RDKit          3D

 20 23  0  0  0  0  0  0  0  0999 V2000
   -0.2792   -2.9169   -0.5646 O   0  0  0  0  0  0  0  0  0  0  0  0
    0.3101   -1.8268   -0.3800 C   0  0  0  0  0  0  0  0  0  0  0  0
    1.6156   -1.7936   -0.3071 O   0  0  0  0  0  0  0  0  0  0  0  0
    2.3036   -0.6867   -0.1150 C   0  0  0  0  0  0  0  0  0  0  0  0
    3.6832   -0.7014   -0.0450 C   0  0  0  0  0  0  0  0  0  0  0  0
    4.3061    0.5121    0.1587 C   0  0  0  0  0  0  0  0  0  0  0  0
    5.6896    0.6036    0.2440 O   0  0  0  0  0  0  0  0  0  0  0  0
    3.5921    1.6932    0.2881 C   0  0  0  0  0  0  0  0  0  0  0  0
    2.2172    1.6706    0.2130 C   0  0  0  0  0  0  0  0  0  0  0  0
    1.5777    0.4755    0.0110 C   0  0  0  0  0  0  0  0  0  0  0  0
    0.1924    0.5073   -0.0569 C   0  0  0  0  0  0  0  0  0  0  0  0
   -0.7341    1.4138    0.0226 O   0  0  0  0  0  0  0  0  0  0  0  0
   -1.9360    0.9097   -0.1113 C   0  0  0  0  0  0  0  0  0  0  0  0
   -3.2266    1.4373   -0.1043 C   0  0  0  0  0  0  0  0  0  0  0  0
   -4.3375    0.6362   -0.2754 C   0  0  0  0  0  0  0  0  0  0  0  0
   -5.6286    1.1922   -0.2644 O   0  0  0  0  0  0  0  0  0  0  0  0
   -4.1865   -0.7228   -0.4592 C   0  0  0  0  0  0  0  0  0  0  0  0
   -2.9148   -1.2580   -0.4683 C   0  0  0  0  0  0  0  0  0  0  0  0
   -1.8019   -0.4517   -0.2964 C   0  0  0  0  0  0  0  0  0  0  0  0
   -0.4423   -0.6936   -0.2595 C   0  0  0  0  0  0  0  0  0  0  0  0
  1  2  2  0
  2  3  1  0
  3  4  1  0
  4  5  2  0
  5  6  1  0
  6  7  1  0
  6  8  2  0
  8  9  1  0
  9 10  2  0
 10 11  1  0
 11 12  1  0
 12 13  1  0
 13 14  2  0
 14 15  1  0
 15 16  1  0
 15 17  2  0
 17 18  1  0
 18 19  2  0
 19 20  1  0
 20  2  1  0
 10  4  1  0
 20 11  2  0
 19 13  1  0
M  END
>  <zinc_id>  (1) 
ZINC000000001219

>  <smiles>  (1) 
O=c1oc2cc(O)ccc2c2oc3cc(O)ccc3c12

$$$$
