
     RDKit          3D

 21 24  0  0  0  0  0  0  0  0999 V2000
   -2.6328   -1.7401    1.6769 C   0  0  0  0  0  0  0  0  0  0  0  0
   -2.4662   -0.5923    0.7760 C   0  0  1  0  0  0  0  0  0  0  0  0
   -1.7590    0.5778    1.1936 C   0  0  0  0  0  0  0  0  0  0  0  0
   -0.3670    0.2517    1.5224 C   0  0  0  0  0  0  0  0  0  0  0  0
    0.1212   -0.9439    0.5086 C   0  0  1  0  0  0  0  0  0  0  0  0
   -0.5926   -0.2045   -0.8353 C   0  0  1  0  0  0  0  0  0  0  0  0
    0.0749   -1.1866   -1.8989 C   0  0  0  0  0  0  0  0  0  0  0  0
    1.5297   -0.9236   -2.0175 C   0  0  0  0  0  0  0  0  0  0  0  0
    1.7140    0.4029   -1.0544 C   0  0  2  0  0  0  0  0  0  0  0  0
    3.3603    0.3356   -1.1145 C   0  0  0  0  0  0  0  0  0  0  0  0
    3.6561    1.4259   -0.1641 C   0  0  0  0  0  0  0  0  0  0  0  0
    4.5317    2.1964   -0.4357 O   0  0  0  0  0  0  0  0  0  0  0  0
    2.9153    1.5973    1.0996 C   0  0  0  0  0  0  0  0  0  0  0  0
    2.0793    0.3932    1.4536 C   0  0  0  0  0  0  0  0  0  0  0  0
    1.6353   -0.4267    0.3375 C   0  0  1  0  0  0  0  0  0  0  0  0
    2.5145   -1.6257    0.1949 C   0  0  0  0  0  0  0  0  0  0  0  0
   -1.9989   -1.1374   -0.6837 C   0  0  2  0  0  0  0  0  0  0  0  0
   -2.8655   -0.0886   -1.5862 C   0  0  0  0  0  0  0  0  0  0  0  0
   -3.2790    0.9739   -0.7132 C   0  0  0  0  0  0  0  0  0  0  0  0
   -3.9975   -0.1527    0.3002 C   0  0  2  0  0  0  0  0  0  0  0  0
   -4.1738    0.8674    1.4403 O   0  0  0  0  0  0  0  0  0  0  0  0
  2  1  1  1
  2  3  1  0
  3  4  1  0
  5  4  1  1
  5  6  1  0
  6  7  1  6
  7  8  1  0
  9  8  1  6
  9 10  1  0
 10 11  1  0
 11 12  2  0
 11 13  1  0
 13 14  1  0
 14 15  1  0
 15 16  1  6
  6 17  1  0
 17 18  1  6
 18 19  1  0
 19 20  1  0
 20 21  1  1
 17  2  1  0
 20  2  1  0
 15  5  1  0
 15  9  1  0
M  END
>  <zinc_id>  (1) 
ZINC000003814361

>  <smiles>  (1) 
C[C@@]12CC[C@H]3[C@@H](CC[C@@H]4CC(=O)CC[C@@]34C)[C@@H]1CC[C@@H]2O

$$$$
