
     RDKit          3D

 21 22  0  0  0  0  0  0  0  0999 V2000
   -4.6577    3.2711    1.9952 C   0  0  0  0  0  0  0  0  0  0  0  0
   -4.2804    2.7201    0.7496 O   0  0  0  0  0  0  0  0  0  0  0  0
   -3.2714    1.7401    0.6895 C   0  0  0  0  0  0  0  0  0  0  0  0
   -2.6624    1.3308    1.8604 C   0  0  0  0  0  0  0  0  0  0  0  0
   -1.6781    0.3713    1.7789 C   0  0  0  0  0  0  0  0  0  0  0  0
   -1.2728   -0.1980    0.5900 C   0  0  0  0  0  0  0  0  0  0  0  0
   -0.2175   -1.2122    0.5984 C   0  0  0  0  0  0  0  0  0  0  0  0
    1.1450   -0.6530    0.4553 C   0  0  0  0  0  0  0  0  0  0  0  0
    1.9037   -0.2797    1.5469 C   0  0  0  0  0  0  0  0  0  0  0  0
    3.1748    0.2424    1.4219 C   0  0  0  0  0  0  0  0  0  0  0  0
    3.7507    0.4164    0.1832 C   0  0  0  0  0  0  0  0  0  0  0  0
    5.0355    0.9427    0.0306 O   0  0  0  0  0  0  0  0  0  0  0  0
    5.6034    1.1111   -1.2517 C   0  0  0  0  0  0  0  0  0  0  0  0
    3.0021    0.0470   -0.9137 C   0  0  0  0  0  0  0  0  0  0  0  0
    1.7312   -0.4747   -0.7822 C   0  0  0  0  0  0  0  0  0  0  0  0
   -0.5158   -2.3262   -0.3449 C   0  0  0  0  0  0  0  0  0  0  0  0
   -0.6808   -1.8035   -2.0209 Cl  0  0  0  0  0  0  0  0  0  0  0  0
   -2.0688   -3.0636    0.1693 Cl  0  0  0  0  0  0  0  0  0  0  0  0
    0.7334   -3.5930   -0.2244 Cl  0  0  0  0  0  0  0  0  0  0  0  0
   -1.8936    0.2251   -0.5654 C   0  0  0  0  0  0  0  0  0  0  0  0
   -2.8806    1.1857   -0.4927 C   0  0  0  0  0  0  0  0  0  0  0  0
  1  2  1  0
  2  3  1  0
  3  4  2  0
  4  5  1  0
  5  6  2  0
  6  7  1  0
  7  8  1  0
  8  9  2  0
  9 10  1  0
 10 11  2  0
 11 12  1  0
 12 13  1  0
 11 14  1  0
 14 15  2  0
  7 16  1  0
 16 17  1  0
 16 18  1  0
 16 19  1  0
  6 20  1  0
 20 21  2  0
 21  3  1  0
 15  8  1  0
M  END
>  <zinc_id>  (1) 
ZINC000000155246

>  <smiles>  (1) 
COc1ccc(C(c2ccc(OC)cc2)C(Cl)(Cl)Cl)cc1

$$$$
