
     RDKit          3D

 26 28  0  0  0  0  0  0  0  0999 V2000
    3.1562    0.2957    4.2977 C   0  0  0  0  0  0  0  0  0  0  0  0
    1.7819    0.7774    4.7942 C   0  0  0  0  0  0  0  0  0  0  0  0
    1.0698   -0.6632    5.0243 C   0  0  1  0  0  0  0  0  0  0  0  0
   -0.3492   -0.0460    5.5442 C   0  0  0  0  0  0  0  0  0  0  0  0
   -1.4085   -0.9845    5.0014 C   0  0  0  0  0  0  0  0  0  0  0  0
   -0.8764   -2.3365    4.6038 C   0  0  0  0  0  0  0  0  0  0  0  0
    0.1522   -2.2225    3.4652 C   0  0  0  0  0  0  0  0  0  0  0  0
    0.6576   -0.8915    3.5910 N   0  0  0  0  0  0  0  0  0  0  0  0
    0.7213   -0.0209    2.5302 C   0  0  0  0  0  0  0  0  0  0  0  0
    1.1663    1.1686    2.6198 O   0  0  0  0  0  0  0  0  0  0  0  0
    0.2581   -0.4728    1.2302 C   0  0  0  0  0  0  0  0  0  0  0  0
   -0.2495   -1.6607    0.8783 N   0  0  0  0  0  0  0  0  0  0  0  0
   -0.5475   -1.6720   -0.4021 N   0  0  0  0  0  0  0  0  0  0  0  0
   -0.2394   -0.4700   -0.9438 N   0  0  0  0  0  0  0  0  0  0  0  0
   -0.4070   -0.1551   -2.3229 C   0  0  0  0  0  0  0  0  0  0  0  0
   -1.6446   -0.0897   -2.9434 C   0  0  0  0  0  0  0  0  0  0  0  0
   -1.8112    0.1878   -4.2860 C   0  0  0  0  0  0  0  0  0  0  0  0
   -0.6978    0.4153   -5.0690 C   0  0  0  0  0  0  0  0  0  0  0  0
   -0.9220    0.6888   -6.4080 O   0  0  0  0  0  0  0  0  0  0  0  0
   -2.1944    0.7431   -6.9879 C   0  0  0  0  0  0  0  0  0  0  0  0
    0.5460    0.3617   -4.5021 C   0  0  0  0  0  0  0  0  0  0  0  0
    0.6736    0.0815   -3.1565 C   0  0  0  0  0  0  0  0  0  0  0  0
    0.2504    0.2713    0.0346 C   0  0  0  0  0  0  0  0  0  0  0  0
    0.7667    1.6256    0.0068 C   0  0  0  0  0  0  0  0  0  0  0  0
    0.6997    2.3598   -1.1270 O   0  0  0  0  0  0  0  0  0  0  0  0
   -0.5524    2.7089   -1.5790 C   0  0  0  0  0  0  0  0  0  0  0  0
  1  2  1  0
  3  2  1  6
  3  4  1  0
  4  5  1  0
  5  6  1  0
  6  7  1  0
  7  8  1  0
  8  9  1  0
  9 10  2  0
  9 11  1  0
 11 12  1  0
 12 13  2  0
 13 14  1  0
 14 15  1  0
 15 16  2  0
 16 17  1  0
 17 18  2  0
 18 19  1  0
 19 20  1  0
 18 21  1  0
 21 22  2  0
 14 23  1  0
 23 24  1  0
 24 25  1  0
 25 26  1  0
  8  3  1  0
 23 11  2  0
 22 15  1  0
M  END
>  <zinc_id>  (1) 
ZINC000000041692

>  <smiles>  (1) 
CC[C@H]1CCCCN1C(=O)c1nnn(-c2ccc(OC)cc2)c1COC

$$$$
