
     RDKit          3D

 33 37  0  0  0  0  0  0  0  0999 V2000
   -1.9394   -2.7678    1.4679 C   0  0  0  0  0  0  0  0  0  0  0  0
   -3.2573   -2.1471    1.7593 C   0  0  0  0  0  0  0  0  0  0  0  0
   -4.1916   -2.7849    2.5811 C   0  0  0  0  0  0  0  0  0  0  0  0
   -5.3983   -2.1900    2.8325 C   0  0  0  0  0  0  0  0  0  0  0  0
   -6.3077   -2.8638    3.6628 O   0  0  0  0  0  0  0  0  0  0  0  0
   -5.6653   -0.9718    2.2678 C   0  0  0  0  0  0  0  0  0  0  0  0
   -4.7420   -0.3225    1.4447 C   0  0  0  0  0  0  0  0  0  0  0  0
   -3.5265   -0.9225    1.1919 C   0  0  0  0  0  0  0  0  0  0  0  0
   -2.5339   -0.2866    0.3420 C   0  0  0  0  0  0  0  0  0  0  0  0
   -2.7470    0.9353   -0.2536 C   0  0  0  0  0  0  0  0  0  0  0  0
   -1.7917    1.5465   -1.0716 C   0  0  0  0  0  0  0  0  0  0  0  0
   -2.0221    2.8292   -1.6933 C   0  0  0  0  0  0  0  0  0  0  0  0
   -1.4500    3.1130   -2.9058 C   0  0  0  0  0  0  0  0  0  0  0  0
   -1.6357    4.3158   -3.5403 C   0  0  0  0  0  0  0  0  0  0  0  0
   -2.4169    5.2757   -2.9544 C   0  0  0  0  0  0  0  0  0  0  0  0
   -3.0032    5.0229   -1.7420 C   0  0  0  0  0  0  0  0  0  0  0  0
   -2.8049    3.7924   -1.1072 C   0  0  0  0  0  0  0  0  0  0  0  0
   -0.6150    0.8385   -1.2421 C   0  0  0  0  0  0  0  0  0  0  0  0
   -0.3913   -0.3956   -0.6446 C   0  0  0  0  0  0  0  0  0  0  0  0
    0.8271   -1.0829   -0.8464 N   0  0  0  0  0  0  0  0  0  0  0  0
    1.8973   -0.5602   -1.6570 C   0  0  0  0  0  0  0  0  0  0  0  0
    3.2384   -1.1162   -1.2759 C   0  0  0  0  0  0  0  0  0  0  0  0
    3.3329   -1.4617    0.1863 C   0  0  0  0  0  0  0  0  0  0  0  0
    4.6737   -1.9642    0.5915 C   0  0  0  0  0  0  0  0  0  0  0  0
    5.7454   -0.9794    0.3442 C   0  0  0  0  0  0  0  0  0  0  0  0
    6.1248   -0.0458    1.2857 C   0  0  0  0  0  0  0  0  0  0  0  0
    7.1413    0.8609    1.0053 C   0  0  0  0  0  0  0  0  0  0  0  0
    7.7944    0.8608   -0.1995 C   0  0  0  0  0  0  0  0  0  0  0  0
    7.4180   -0.0724   -1.1462 C   0  0  0  0  0  0  0  0  0  0  0  0
    6.4124   -0.9663   -0.8632 C   0  0  0  0  0  0  0  0  0  0  0  0
    2.1857   -2.2329    0.7326 C   0  0  0  0  0  0  0  0  0  0  0  0
    1.0133   -2.3647   -0.2155 C   0  0  0  0  0  0  0  0  0  0  0  0
   -1.3650   -0.8917    0.1163 N   0  0  0  0  0  0  0  0  0  0  0  0
  1  2  1  0
  2  3  2  0
  3  4  1  0
  4  5  1  0
  4  6  2  0
  6  7  1  0
  7  8  2  0
  8  9  1  0
  9 10  2  0
 10 11  1  0
 11 12  1  0
 12 13  2  0
 13 14  1  0
 14 15  2  0
 15 16  1  0
 16 17  2  0
 11 18  2  0
 18 19  1  0
 19 20  1  0
 20 21  1  0
 21 22  1  0
 22 23  1  0
 23 24  1  0
 24 25  1  0
 25 26  2  0
 26 27  1  0
 27 28  2  0
 28 29  1  0
 29 30  2  0
 23 31  1  0
 31 32  1  0
 19 33  2  0
  8  2  1  0
 33  9  1  0
 17 12  1  0
 32 20  1  0
 30 25  1  0
M  END
>  <zinc_id>  (1) 
ZINC000003815463

>  <smiles>  (1) 
Cc1cc(O)ccc1-c1cc(-c2ccccc2)cc(N2CCC(Cc3ccccc3)CC2)n1

$$$$
