
     RDKit          3D

 21 24  0  0  0  0  0  0  0  0999 V2000
    2.2072    0.1638   -1.5652 C   0  0  0  0  0  0  0  0  0  0  0  0
    2.2794   -0.3935   -0.2966 C   0  0  2  0  0  0  0  0  0  0  0  0
    1.8704   -1.7108    0.1133 C   0  0  0  0  0  0  0  0  0  0  0  0
    0.3941   -1.8495   -0.2016 C   0  0  0  0  0  0  0  0  0  0  0  0
   -0.3873   -0.8714    0.8584 C   0  0  2  0  0  0  0  0  0  0  0  0
   -1.7765   -0.8720    0.1383 C   0  0  0  0  0  0  0  0  0  0  0  0
   -2.2502   -1.7637   -0.7137 C   0  0  0  0  0  0  0  0  0  0  0  0
   -3.4977   -1.6455   -1.2877 C   0  0  0  0  0  0  0  0  0  0  0  0
   -4.2696   -0.5602   -0.9575 C   0  0  0  0  0  0  0  0  0  0  0  0
   -5.5620   -0.3892   -1.5194 O   0  0  0  0  0  0  0  0  0  0  0  0
   -3.7790    0.3715   -0.0694 C   0  0  0  0  0  0  0  0  0  0  0  0
   -2.5028    0.2279    0.5025 C   0  0  0  0  0  0  0  0  0  0  0  0
   -1.9486    1.2089    1.4654 C   0  0  0  0  0  0  0  0  0  0  0  0
   -0.5539    1.5447    1.1525 C   0  0  0  0  0  0  0  0  0  0  0  0
    0.0926    0.5775    0.0653 C   0  0  1  0  0  0  0  0  0  0  0  0
    1.6032    0.5861    0.8414 C   0  0  2  0  0  0  0  0  0  0  0  0
    2.0703    1.9454    0.1104 C   0  0  0  0  0  0  0  0  0  0  0  0
    3.6169    1.5931   -0.2878 C   0  0  1  0  0  0  0  0  0  0  0  0
    4.1846    2.3293    0.9245 O   0  0  0  0  0  0  0  0  0  0  0  0
    3.6278    0.0542    0.5252 C   0  0  2  0  0  0  0  0  0  0  0  0
    4.5810   -0.5469   -0.5288 O   0  0  0  0  0  0  0  0  0  0  0  0
  2  1  1  6
  2  3  1  0
  3  4  1  0
  5  4  1  6
  5  6  1  0
  6  7  2  0
  7  8  1  0
  8  9  2  0
  9 10  1  0
  9 11  1  0
 11 12  2  0
 12 13  1  0
 13 14  1  0
 15 14  1  1
 15 16  1  0
 16 17  1  6
 17 18  1  0
 18 19  1  1
 18 20  1  0
 20 21  1  6
 16  2  1  0
 20  2  1  0
 15  5  1  0
 12  6  1  0
M  END
>  <zinc_id>  (1) 
ZINC000003815418

>  <smiles>  (1) 
C[C@]12CC[C@@H]3c4ccc(O)cc4CC[C@H]3[C@@H]1C[C@@H](O)[C@@H]2O

$$$$
