
     RDKit          3D

 27 30  0  0  0  0  0  0  0  0999 V2000
   -1.3171    2.8610   -1.4675 C   0  0  0  0  0  0  0  0  0  0  0  0
   -0.8116    2.4214   -0.1064 C   0  0  0  0  0  0  0  0  0  0  0  0
   -0.6346    0.9427   -0.0634 C   0  0  0  0  0  0  0  0  0  0  0  0
   -1.6191   -0.0285    0.0467 C   0  0  0  0  0  0  0  0  0  0  0  0
   -3.0362    0.2384    0.1436 C   0  0  0  0  0  0  0  0  0  0  0  0
   -3.6627    1.1481   -0.6720 C   0  0  0  0  0  0  0  0  0  0  0  0
   -5.0119    1.3695   -0.5399 C   0  0  0  0  0  0  0  0  0  0  0  0
   -5.7407    0.6776    0.4133 C   0  0  0  0  0  0  0  0  0  0  0  0
   -7.1092    0.9108    0.5384 O   0  0  0  0  0  0  0  0  0  0  0  0
   -5.1405   -0.2297    1.2333 C   0  0  0  0  0  0  0  0  0  0  0  0
   -3.7747   -0.4401    1.0849 C   0  0  0  0  0  0  0  0  0  0  0  0
   -1.0031   -1.2202    0.0460 N   0  0  0  0  0  0  0  0  0  0  0  0
    0.3091   -1.0960   -0.0566 N   0  0  0  0  0  0  0  0  0  0  0  0
    1.2778   -2.1504   -0.0895 C   0  0  0  0  0  0  0  0  0  0  0  0
    1.9453   -2.4185   -1.2645 C   0  0  0  0  0  0  0  0  0  0  0  0
    2.8888   -3.4199   -1.3597 C   0  0  0  0  0  0  0  0  0  0  0  0
    3.1868   -4.1953   -0.2362 C   0  0  0  0  0  0  0  0  0  0  0  0
    2.5353   -3.9444    0.9375 C   0  0  0  0  0  0  0  0  0  0  0  0
    1.5846   -2.9254    1.0088 C   0  0  0  0  0  0  0  0  0  0  0  0
    0.5510    0.2251   -0.1246 C   0  0  0  0  0  0  0  0  0  0  0  0
    1.8815    0.8396   -0.2464 C   0  0  0  0  0  0  0  0  0  0  0  0
    2.0243    2.2093   -0.3101 C   0  0  0  0  0  0  0  0  0  0  0  0
    3.2738    2.8090   -0.4245 C   0  0  0  0  0  0  0  0  0  0  0  0
    4.4206    2.0453   -0.4785 C   0  0  0  0  0  0  0  0  0  0  0  0
    5.6847    2.6205   -0.5930 O   0  0  0  0  0  0  0  0  0  0  0  0
    4.2759    0.6750   -0.4147 C   0  0  0  0  0  0  0  0  0  0  0  0
    3.0220    0.0749   -0.2999 C   0  0  0  0  0  0  0  0  0  0  0  0
  1  2  1  0
  2  3  1  0
  3  4  1  0
  4  5  1  0
  5  6  2  0
  6  7  1  0
  7  8  2  0
  8  9  1  0
  8 10  1  0
 10 11  2  0
  4 12  2  0
 12 13  1  0
 13 14  1  0
 14 15  2  0
 15 16  1  0
 16 17  2  0
 17 18  1  0
 18 19  2  0
 13 20  1  0
 20 21  1  0
 21 22  2  0
 22 23  1  0
 23 24  2  0
 24 25  1  0
 24 26  1  0
 26 27  2  0
 20  3  2  0
 27 21  1  0
 11  5  1  0
 19 14  1  0
M  END
>  <zinc_id>  (1) 
ZINC000003815443

>  <smiles>  (1) 
CCc1c(-c2ccc(O)cc2)nn(-c2ccccc2)c1-c1ccc(O)cc1

$$$$
