
     RDKit          3D

 20 22  0  0  0  0  0  0  0  0999 V2000
   -0.4623   -2.4044    1.8148 C   0  0  0  0  0  0  0  0  0  0  0  0
   -0.4485   -0.8978    1.9513 C   0  0  0  0  0  0  0  0  0  0  0  0
   -0.6597   -0.2460    0.6798 N   0  0  0  0  0  0  0  0  0  0  0  0
    0.2987    0.1155   -0.1891 C   0  0  0  0  0  0  0  0  0  0  0  0
    1.7397   -0.0593   -0.0586 C   0  0  0  0  0  0  0  0  0  0  0  0
    2.5902    0.3737   -1.0539 C   0  0  0  0  0  0  0  0  0  0  0  0
    3.9647    0.2131   -0.9416 C   0  0  0  0  0  0  0  0  0  0  0  0
    4.5320   -0.3837    0.1658 C   0  0  0  0  0  0  0  0  0  0  0  0
    5.9074   -0.5547    0.2986 O   0  0  0  0  0  0  0  0  0  0  0  0
    3.6810   -0.8168    1.1614 C   0  0  0  0  0  0  0  0  0  0  0  0
    2.3151   -0.6544    1.0442 C   0  0  0  0  0  0  0  0  0  0  0  0
   -0.3422    0.7001   -1.2608 C   0  0  0  0  0  0  0  0  0  0  0  0
    0.2940    1.2657   -2.4888 C   0  0  0  0  0  0  0  0  0  0  0  0
   -1.6987    0.6887   -1.0318 C   0  0  0  0  0  0  0  0  0  0  0  0
   -2.8073    1.1233   -1.7326 C   0  0  0  0  0  0  0  0  0  0  0  0
   -4.0795    0.9567   -1.2059 C   0  0  0  0  0  0  0  0  0  0  0  0
   -4.2478    0.3502    0.0327 C   0  0  0  0  0  0  0  0  0  0  0  0
   -5.5561    0.2203    0.4914 O   0  0  0  0  0  0  0  0  0  0  0  0
   -3.1486   -0.0768    0.7196 C   0  0  0  0  0  0  0  0  0  0  0  0
   -1.8720    0.0865    0.1990 C   0  0  0  0  0  0  0  0  0  0  0  0
  1  2  1  0
  2  3  1  0
  3  4  1  0
  4  5  1  0
  5  6  2  0
  6  7  1  0
  7  8  2  0
  8  9  1  0
  8 10  1  0
 10 11  2  0
  4 12  2  0
 12 13  1  0
 12 14  1  0
 14 15  2  0
 15 16  1  0
 16 17  2  0
 17 18  1  0
 17 19  1  0
 19 20  2  0
 20  3  1  0
 11  5  1  0
 20 14  1  0
M  END
>  <zinc_id>  (1) 
ZINC000003815444

>  <smiles>  (1) 
CCn1c(-c2ccc(O)cc2)c(C)c2ccc(O)cc21

$$$$
