
     RDKit          3D

 28 30  0  0  0  0  0  0  0  0999 V2000
   -1.5691   -3.6104   -0.3925 C   0  0  0  0  0  0  0  0  0  0  0  0
   -0.8954   -2.7048    0.6217 C   0  0  0  0  0  0  0  0  0  0  0  0
   -1.6281   -1.3755    0.5059 C   0  0  0  0  0  0  0  0  0  0  0  0
   -0.9420   -0.3168    0.1780 C   0  0  0  0  0  0  0  0  0  0  0  0
   -1.5616    1.0043    0.0510 C   0  0  0  0  0  0  0  0  0  0  0  0
   -1.1666    1.8161   -1.0173 C   0  0  0  0  0  0  0  0  0  0  0  0
   -1.6746    3.0774   -1.2047 C   0  0  0  0  0  0  0  0  0  0  0  0
   -2.6042    3.6129   -0.3470 C   0  0  0  0  0  0  0  0  0  0  0  0
   -2.9979    2.7983    0.7214 C   0  0  0  0  0  0  0  0  0  0  0  0
   -2.4761    1.5290    0.8962 C   0  0  0  0  0  0  0  0  0  0  0  0
    0.4852   -0.4803   -0.0846 C   0  0  0  0  0  0  0  0  0  0  0  0
    1.2420   -1.4209    0.5497 C   0  0  0  0  0  0  0  0  0  0  0  0
    2.5919   -1.5817    0.3146 C   0  0  0  0  0  0  0  0  0  0  0  0
    3.2384   -0.7841   -0.5853 C   0  0  0  0  0  0  0  0  0  0  0  0
    4.6066   -0.9240   -0.8460 O   0  0  0  0  0  0  0  0  0  0  0  0
    5.1911   -0.0532   -1.7853 C   0  0  0  0  0  0  0  0  0  0  0  0
    4.9995    1.3705   -1.2438 C   0  0  0  0  0  0  0  0  0  0  0  0
    5.6930    1.3957    0.0567 N   0  0  0  0  0  0  0  0  0  0  0  0
    5.5883    2.6915    0.6919 C   0  0  0  0  0  0  0  0  0  0  0  0
    7.0995    1.0547   -0.2135 C   0  0  0  0  0  0  0  0  0  0  0  0
    2.4892    0.1920   -1.2538 C   0  0  0  0  0  0  0  0  0  0  0  0
    1.1209    0.3301   -0.9932 C   0  0  0  0  0  0  0  0  0  0  0  0
   -3.0616   -1.3162    0.7191 C   0  0  0  0  0  0  0  0  0  0  0  0
   -3.7037   -1.9362    1.7836 C   0  0  0  0  0  0  0  0  0  0  0  0
   -5.0500   -1.9066    1.9674 C   0  0  0  0  0  0  0  0  0  0  0  0
   -5.8740   -1.2316    1.0682 C   0  0  0  0  0  0  0  0  0  0  0  0
   -5.2584   -0.6125    0.0098 C   0  0  0  0  0  0  0  0  0  0  0  0
   -3.8823   -0.6491   -0.1681 C   0  0  0  0  0  0  0  0  0  0  0  0
  1  2  1  0
  2  3  1  0
  3  4  2  0
  4  5  1  0
  5  6  2  0
  6  7  1  0
  7  8  2  0
  8  9  1  0
  9 10  2  0
  4 11  1  0
 11 12  2  0
 12 13  1  0
 13 14  2  0
 14 15  1  0
 15 16  1  0
 16 17  1  0
 17 18  1  0
 18 19  1  0
 18 20  1  0
 14 21  1  0
 21 22  2  0
  3 23  1  0
 23 24  2  0
 24 25  1  0
 25 26  2  0
 26 27  1  0
 27 28  2  0
 10  5  1  0
 22 11  1  0
 28 23  1  0
M  END
>  <zinc_id>  (1) 
ZINC000001530690

>  <smiles>  (1) 
CC/C(=C(/c1ccccc1)c1ccc(OCCN(C)C)cc1)c1ccccc1

$$$$
