
     RDKit          3D

 33 37  0  0  0  0  0  0  0  0999 V2000
    1.2025    2.7369   -1.5999 C   0  0  0  0  0  0  0  0  0  0  0  0
    2.6212    2.7002   -1.2097 C   0  0  0  0  0  0  0  0  0  0  0  0
    3.4866    3.7457   -1.4333 C   0  0  0  0  0  0  0  0  0  0  0  0
    4.8144    3.7080   -1.0669 C   0  0  0  0  0  0  0  0  0  0  0  0
    5.6507    4.8066   -1.3212 O   0  0  0  0  0  0  0  0  0  0  0  0
    5.2905    2.5761   -0.4521 C   0  0  0  0  0  0  0  0  0  0  0  0
    4.4252    1.5352   -0.2305 C   0  0  0  0  0  0  0  0  0  0  0  0
    3.0991    1.5654   -0.5933 C   0  0  0  0  0  0  0  0  0  0  0  0
    2.2634    0.4153   -0.3150 C   0  0  0  0  0  0  0  0  0  0  0  0
    2.7848   -0.6919    0.3104 C   0  0  0  0  0  0  0  0  0  0  0  0
    1.9805   -1.7821    0.5730 C   0  0  0  0  0  0  0  0  0  0  0  0
    2.4972   -2.9771    1.2301 C   0  0  0  0  0  0  0  0  0  0  0  0
    1.9887   -4.2291    0.9657 C   0  0  0  0  0  0  0  0  0  0  0  0
    2.4996   -5.3615    1.6007 C   0  0  0  0  0  0  0  0  0  0  0  0
    3.5245   -5.2380    2.5047 C   0  0  0  0  0  0  0  0  0  0  0  0
    4.0461   -4.0011    2.7834 C   0  0  0  0  0  0  0  0  0  0  0  0
    3.5261   -2.8846    2.1423 C   0  0  0  0  0  0  0  0  0  0  0  0
    0.6540   -1.6868    0.1760 C   0  0  0  0  0  0  0  0  0  0  0  0
    0.1225   -0.5806   -0.4519 C   0  0  0  0  0  0  0  0  0  0  0  0
   -1.2373   -0.5072   -0.8475 N   0  0  0  0  0  0  0  0  0  0  0  0
   -1.5835   -1.0317   -2.1459 C   0  0  0  0  0  0  0  0  0  0  0  0
   -2.1892    0.0740    0.0285 C   0  0  0  0  0  0  0  0  0  0  0  0
   -3.5726    0.0912   -0.5280 C   0  0  0  0  0  0  0  0  0  0  0  0
   -3.8981   -0.4134   -1.7693 C   0  0  0  0  0  0  0  0  0  0  0  0
   -5.2174   -0.3658   -2.2316 C   0  0  0  0  0  0  0  0  0  0  0  0
   -6.2273    0.1815   -1.4701 C   0  0  0  0  0  0  0  0  0  0  0  0
   -5.9001    0.6853   -0.2299 C   0  0  0  0  0  0  0  0  0  0  0  0
   -6.9183    1.2419    0.5446 C   0  0  0  0  0  0  0  0  0  0  0  0
   -6.5563    1.7366    1.7762 C   0  0  0  0  0  0  0  0  0  0  0  0
   -5.2730    1.7010    2.2494 C   0  0  0  0  0  0  0  0  0  0  0  0
   -4.2770    1.1493    1.4761 C   0  0  0  0  0  0  0  0  0  0  0  0
   -4.5992    0.6348    0.2182 C   0  0  0  0  0  0  0  0  0  0  0  0
    0.9716    0.4657   -0.6834 N   0  0  0  0  0  0  0  0  0  0  0  0
  1  2  1  0
  2  3  2  0
  3  4  1  0
  4  5  1  0
  4  6  2  0
  6  7  1  0
  7  8  2  0
  8  9  1  0
  9 10  2  0
 10 11  1  0
 11 12  1  0
 12 13  2  0
 13 14  1  0
 14 15  2  0
 15 16  1  0
 16 17  2  0
 11 18  2  0
 18 19  1  0
 19 20  1  0
 20 21  1  0
 20 22  1  0
 22 23  1  0
 23 24  2  0
 24 25  1  0
 25 26  2  0
 26 27  1  0
 27 28  2  0
 28 29  1  0
 29 30  2  0
 30 31  1  0
 31 32  2  0
 19 33  2  0
  8  2  1  0
 33  9  1  0
 17 12  1  0
 32 23  1  0
 32 27  1  0
M  END
>  <zinc_id>  (1) 
ZINC000003815469

>  <smiles>  (1) 
Cc1cc(O)ccc1-c1cc(-c2ccccc2)cc(N(C)Cc2cccc3ccccc23)n1

$$$$
