
     RDKit          3D

 18 19  0  0  0  0  0  0  0  0999 V2000
    4.9040   -1.3650   -0.5011 O   0  0  0  0  0  0  0  0  0  0  0  0
    3.6648   -0.7928   -0.3222 C   0  0  0  0  0  0  0  0  0  0  0  0
    3.5409    0.5723   -0.4834 C   0  0  0  0  0  0  0  0  0  0  0  0
    2.3209    1.1953   -0.3210 C   0  0  0  0  0  0  0  0  0  0  0  0
    1.2191    0.4479    0.0024 C   0  0  0  0  0  0  0  0  0  0  0  0
   -0.1150    1.0365    0.1463 C   0  0  0  0  0  0  0  0  0  0  0  0
   -0.3434    2.3102    0.3120 C   0  0  0  0  0  0  0  0  0  0  0  0
   -1.9674    2.8981    0.4669 Cl  0  0  0  0  0  0  0  0  0  0  0  0
    0.9866    3.4210    0.3817 Cl  0  0  0  0  0  0  0  0  0  0  0  0
   -1.2527    0.1237    0.0810 C   0  0  0  0  0  0  0  0  0  0  0  0
   -1.2274   -1.0250    0.8387 C   0  0  0  0  0  0  0  0  0  0  0  0
   -2.2506   -1.9408    0.8183 C   0  0  0  0  0  0  0  0  0  0  0  0
   -3.3472   -1.6872   -0.0084 C   0  0  0  0  0  0  0  0  0  0  0  0
   -4.3930   -2.5581   -0.0701 O   0  0  0  0  0  0  0  0  0  0  0  0
   -3.3630   -0.5385   -0.7620 C   0  0  0  0  0  0  0  0  0  0  0  0
   -2.3252    0.3948   -0.7431 C   0  0  0  0  0  0  0  0  0  0  0  0
    1.3733   -0.9204    0.1588 C   0  0  0  0  0  0  0  0  0  0  0  0
    2.5752   -1.5719    0.0051 C   0  0  0  0  0  0  0  0  0  0  0  0
  1  2  1  0
  2  3  2  0
  3  4  1  0
  4  5  2  0
  5  6  1  0
  6  7  2  3
  7  8  1  0
  7  9  1  0
  6 10  1  0
 10 11  2  0
 11 12  1  0
 12 13  2  0
 13 14  1  0
 13 15  1  0
 15 16  2  0
  5 17  1  0
 17 18  2  0
 18  2  1  0
 16 10  1  0
M  END
>  <zinc_id>  (1) 
ZINC000000508310

>  <smiles>  (1) 
Oc1ccc(C(=C(Cl)Cl)c2ccc(O)cc2)cc1

$$$$
