
     RDKit          3D

 22 25  0  0  0  0  0  0  0  0999 V2000
   -5.3524   -0.2670    0.9554 C   0  0  0  0  0  0  0  0  0  0  0  0
   -4.4231   -0.1446    0.2263 C   0  0  0  0  0  0  0  0  0  0  0  0
   -3.2851    0.0322   -0.6501 C   0  0  2  0  0  0  0  0  0  0  0  0
   -3.7354    0.6425   -1.8180 O   0  0  0  0  0  0  0  0  0  0  0  0
   -2.7851   -1.4022   -0.9049 C   0  0  0  0  0  0  0  0  0  0  0  0
   -2.2426   -1.7155    0.4416 C   0  0  0  0  0  0  0  0  0  0  0  0
   -1.5398   -0.3505    0.9250 C   0  0  1  0  0  0  0  0  0  0  0  0
   -0.0632   -0.6635    0.2261 C   0  0  2  0  0  0  0  0  0  0  0  0
    0.4371   -1.6323    1.4281 C   0  0  0  0  0  0  0  0  0  0  0  0
    1.8632   -1.6847    1.0459 C   0  0  0  0  0  0  0  0  0  0  0  0
    2.5331   -0.8054    0.3949 C   0  0  0  0  0  0  0  0  0  0  0  0
    3.9510   -1.0556    0.1173 C   0  0  0  0  0  0  0  0  0  0  0  0
    4.5379    0.1649   -0.4897 C   0  0  0  0  0  0  0  0  0  0  0  0
    5.1480    0.1657   -1.5403 O   0  0  0  0  0  0  0  0  0  0  0  0
    4.3088    1.3976    0.3129 C   0  0  0  0  0  0  0  0  0  0  0  0
    2.9083    1.5056    0.8156 C   0  0  0  0  0  0  0  0  0  0  0  0
    2.0030    0.5391   -0.1610 C   0  0  2  0  0  0  0  0  0  0  0  0
    0.6620    0.6991    0.8590 C   0  0  1  0  0  0  0  0  0  0  0  0
   -0.0076    1.8302   -0.0549 C   0  0  0  0  0  0  0  0  0  0  0  0
   -1.5173    1.8311    0.1010 C   0  0  0  0  0  0  0  0  0  0  0  0
   -2.0813    0.5736   -0.2640 C   0  0  2  0  0  0  0  0  0  0  0  0
   -1.3193    0.3401   -1.5627 C   0  0  0  0  0  0  0  0  0  0  0  0
  1  2  3  0
  2  3  1  0
  3  4  1  6
  3  5  1  0
  5  6  1  0
  7  6  1  6
  7  8  1  0
  8  9  1  1
  9 10  1  0
 10 11  2  0
 11 12  1  0
 12 13  1  0
 13 14  2  0
 13 15  1  0
 15 16  1  0
 17 16  1  1
 17 18  1  0
 18 19  1  6
 19 20  1  0
 20 21  1  0
 21 22  1  6
 21  3  1  0
 21  7  1  0
 18  8  1  0
 17 11  1  0
M  END
>  <zinc_id>  (1) 
ZINC000003814419

>  <smiles>  (1) 
C#C[C@]1(O)CC[C@H]2[C@@H]3CC=C4CC(=O)CC[C@@H]4[C@H]3CC[C@@]21C

$$$$
