
     RDKit          3D

 30 33  0  0  0  0  0  0  0  0999 V2000
    2.7949   -2.5445    1.8989 C   0  0  0  0  0  0  0  0  0  0  0  0
    2.2010   -2.2403    0.5198 C   0  0  0  0  0  0  0  0  0  0  0  0
    2.0212   -0.8020    0.4622 N   0  0  0  0  0  0  0  0  0  0  0  0
    3.2083    0.0269    0.4323 C   0  0  0  0  0  0  0  0  0  0  0  0
    4.0519   -0.2478   -0.7487 C   0  0  0  0  0  0  0  0  0  0  0  0
    5.0297   -1.2162   -0.7425 C   0  0  0  0  0  0  0  0  0  0  0  0
    5.8274   -1.4874   -1.8316 C   0  0  0  0  0  0  0  0  0  0  0  0
    5.6327   -0.7526   -2.9752 C   0  0  0  0  0  0  0  0  0  0  0  0
    4.6603    0.2179   -2.9984 C   0  0  0  0  0  0  0  0  0  0  0  0
    3.9092    0.4418   -1.9068 N   0  0  0  0  0  0  0  0  0  0  0  0
    0.7249   -0.2286    0.4353 C   0  0  0  0  0  0  0  0  0  0  0  0
    0.6117    1.1557    0.3717 C   0  0  0  0  0  0  0  0  0  0  0  0
   -0.6554    1.7289    0.3441 C   0  0  0  0  0  0  0  0  0  0  0  0
   -0.8335    3.1762    0.2759 C   0  0  0  0  0  0  0  0  0  0  0  0
    0.0628    4.0507    0.8529 C   0  0  0  0  0  0  0  0  0  0  0  0
   -0.1516    5.4270    0.7590 C   0  0  0  0  0  0  0  0  0  0  0  0
   -1.2475    5.9525    0.0978 C   0  0  0  0  0  0  0  0  0  0  0  0
   -2.1455    5.0660   -0.4803 C   0  0  0  0  0  0  0  0  0  0  0  0
   -1.9119    3.7023   -0.3745 C   0  0  0  0  0  0  0  0  0  0  0  0
   -1.7159    0.8469    0.3837 C   0  0  0  0  0  0  0  0  0  0  0  0
   -1.5757   -0.5050    0.4460 C   0  0  0  0  0  0  0  0  0  0  0  0
   -2.6971   -1.4353    0.4869 C   0  0  0  0  0  0  0  0  0  0  0  0
   -3.9771   -0.9043    0.4636 C   0  0  0  0  0  0  0  0  0  0  0  0
   -5.0965   -1.7007    0.4991 C   0  0  0  0  0  0  0  0  0  0  0  0
   -4.9504   -3.0591    0.5595 C   0  0  0  0  0  0  0  0  0  0  0  0
   -6.0446   -3.9306    0.5988 O   0  0  0  0  0  0  0  0  0  0  0  0
   -3.6729   -3.5828    0.5824 C   0  0  0  0  0  0  0  0  0  0  0  0
   -2.5496   -2.7882    0.5468 C   0  0  0  0  0  0  0  0  0  0  0  0
   -1.1622   -3.3312    0.5696 C   0  0  0  0  0  0  0  0  0  0  0  0
   -0.3487   -1.0364    0.4716 N   0  0  0  0  0  0  0  0  0  0  0  0
  1  2  1  0
  2  3  1  0
  3  4  1  0
  4  5  1  0
  5  6  2  0
  6  7  1  0
  7  8  2  0
  8  9  1  0
  9 10  2  0
  3 11  1  0
 11 12  2  0
 12 13  1  0
 13 14  1  0
 14 15  2  0
 15 16  1  0
 16 17  2  0
 17 18  1  0
 18 19  2  0
 13 20  2  0
 20 21  1  0
 21 22  1  0
 22 23  2  0
 23 24  1  0
 24 25  2  0
 25 26  1  0
 25 27  1  0
 27 28  2  0
 28 29  1  0
 21 30  2  0
 10  5  1  0
 30 11  1  0
 19 14  1  0
 28 22  1  0
M  END
>  <zinc_id>  (1) 
ZINC000003815474

>  <smiles>  (1) 
CCN(Cc1ccccn1)c1cc(-c2ccccc2)cc(-c2ccc(O)cc2C)n1

$$$$
