
     RDKit          3D

 29 31  0  0  0  0  0  0  0  0999 V2000
   -0.9256   -3.0953    2.3825 C   0  0  0  0  0  0  0  0  0  0  0  0
   -0.4837   -2.7008    0.9922 C   0  0  0  0  0  0  0  0  0  0  0  0
   -1.4278   -1.5802    0.5539 C   0  0  0  0  0  0  0  0  0  0  0  0
   -0.8553   -0.4400    0.2675 C   0  0  0  0  0  0  0  0  0  0  0  0
   -1.6084    0.7169   -0.1549 C   0  0  0  0  0  0  0  0  0  0  0  0
   -2.6802    0.8160   -0.9663 C   0  0  0  0  0  0  0  0  0  0  0  0
   -3.3072    1.9922   -1.2945 C   0  0  0  0  0  0  0  0  0  0  0  0
   -2.8336    3.1699   -0.7765 C   0  0  0  0  0  0  0  0  0  0  0  0
   -3.4665    4.3631   -1.1074 O   0  0  0  0  0  0  0  0  0  0  0  0
   -1.7432    3.1289    0.0566 C   0  0  0  0  0  0  0  0  0  0  0  0
   -1.1286    1.9378    0.3741 C   0  0  0  0  0  0  0  0  0  0  0  0
    0.6322   -0.3369    0.3622 C   0  0  0  0  0  0  0  0  0  0  0  0
    1.4114   -1.3867   -0.0681 C   0  0  0  0  0  0  0  0  0  0  0  0
    2.7833   -1.3762   -0.0289 C   0  0  0  0  0  0  0  0  0  0  0  0
    3.4198   -0.2323    0.4772 C   0  0  0  0  0  0  0  0  0  0  0  0
    4.7972   -0.2513    0.5030 O   0  0  0  0  0  0  0  0  0  0  0  0
    5.6215    0.7795    0.9638 C   0  0  0  0  0  0  0  0  0  0  0  0
    5.3939    2.0340    0.1684 C   0  0  0  0  0  0  0  0  0  0  0  0
    5.6829    1.7897   -1.2098 N   0  0  0  0  0  0  0  0  0  0  0  0
    7.0660    1.5397   -1.4333 C   0  0  0  0  0  0  0  0  0  0  0  0
    4.8359    0.8733   -1.8878 C   0  0  0  0  0  0  0  0  0  0  0  0
    2.6436    0.8188    0.9091 C   0  0  0  0  0  0  0  0  0  0  0  0
    1.2590    0.7788    0.8572 C   0  0  0  0  0  0  0  0  0  0  0  0
   -2.8462   -1.8785    0.4397 C   0  0  0  0  0  0  0  0  0  0  0  0
   -3.5492   -2.3762    1.5351 C   0  0  0  0  0  0  0  0  0  0  0  0
   -4.8724   -2.7078    1.3736 C   0  0  0  0  0  0  0  0  0  0  0  0
   -5.5222   -2.5667    0.1765 C   0  0  0  0  0  0  0  0  0  0  0  0
   -4.8042   -2.0694   -0.8997 C   0  0  0  0  0  0  0  0  0  0  0  0
   -3.4927   -1.7404   -0.7417 C   0  0  0  0  0  0  0  0  0  0  0  0
  1  2  1  0
  2  3  1  0
  3  4  2  0
  4  5  1  0
  5  6  2  0
  6  7  1  0
  7  8  2  0
  8  9  1  0
  8 10  1  0
 10 11  2  0
  4 12  1  0
 12 13  2  0
 13 14  1  0
 14 15  2  0
 15 16  1  0
 16 17  1  0
 17 18  1  0
 18 19  1  0
 19 20  1  0
 19 21  1  0
 15 22  1  0
 22 23  2  0
  3 24  1  0
 24 25  2  0
 25 26  1  0
 26 27  2  0
 27 28  1  0
 28 29  2  0
 11  5  1  0
 23 12  1  0
 29 24  1  0
M  END
>  <zinc_id>  (1) 
ZINC000001530090

>  <smiles>  (1) 
CC/C(=C(/c1ccc(O)cc1)c1ccc(OCCN(C)C)cc1)c1ccccc1

$$$$
