
     RDKit          3D

 30 33  0  0  0  0  0  0  0  0999 V2000
    0.0282    3.3164    1.6304 C   0  0  0  0  0  0  0  0  0  0  0  0
   -1.2095    3.7564    0.9171 C   0  0  0  0  0  0  0  0  0  0  0  0
   -1.7244    5.0264    1.1055 C   0  0  0  0  0  0  0  0  0  0  0  0
   -2.8771    5.4473    0.4503 C   0  0  0  0  0  0  0  0  0  0  0  0
   -3.4905    4.5696   -0.3884 C   0  0  0  0  0  0  0  0  0  0  0  0
   -2.9990    3.3178   -0.5854 C   0  0  0  0  0  0  0  0  0  0  0  0
   -1.8567    2.8804    0.0547 C   0  0  0  0  0  0  0  0  0  0  0  0
   -1.3486    1.5348   -0.1765 C   0  0  0  0  0  0  0  0  0  0  0  0
   -2.1796    0.4232   -0.1592 C   0  0  0  0  0  0  0  0  0  0  0  0
   -1.6764   -0.8328   -0.3819 C   0  0  0  0  0  0  0  0  0  0  0  0
   -2.5141   -2.0311   -0.3697 C   0  0  0  0  0  0  0  0  0  0  0  0
   -3.8668   -1.9834   -0.1432 C   0  0  0  0  0  0  0  0  0  0  0  0
   -4.6173   -3.1392   -0.1360 C   0  0  0  0  0  0  0  0  0  0  0  0
   -4.0516   -4.3911   -0.3543 C   0  0  0  0  0  0  0  0  0  0  0  0
   -4.8395   -5.5489   -0.3409 O   0  0  0  0  0  0  0  0  0  0  0  0
   -2.6892   -4.4339   -0.5821 C   0  0  0  0  0  0  0  0  0  0  0  0
   -1.9519   -3.2717   -0.5864 C   0  0  0  0  0  0  0  0  0  0  0  0
   -0.3596   -0.9473   -0.6160 N   0  0  0  0  0  0  0  0  0  0  0  0
    0.5038    0.0797   -0.6483 C   0  0  0  0  0  0  0  0  0  0  0  0
    1.9142   -0.1034   -0.9051 N   0  0  0  0  0  0  0  0  0  0  0  0
    2.7768    1.0639   -0.9249 C   0  0  0  0  0  0  0  0  0  0  0  0
    2.3623   -1.4544   -1.1214 C   0  0  0  0  0  0  0  0  0  0  0  0
    3.2185   -2.0248   -0.0466 C   0  0  0  0  0  0  0  0  0  0  0  0
    4.4456   -1.2182    0.1293 C   0  0  0  0  0  0  0  0  0  0  0  0
    4.4162   -0.1891    1.0473 C   0  0  0  0  0  0  0  0  0  0  0  0
    5.5342    0.5787    1.2391 C   0  0  0  0  0  0  0  0  0  0  0  0
    6.6931    0.3321    0.5208 C   0  0  0  0  0  0  0  0  0  0  0  0
    6.7522   -0.6739   -0.3900 C   0  0  0  0  0  0  0  0  0  0  0  0
    5.6060   -1.4408   -0.5684 C   0  0  0  0  0  0  0  0  0  0  0  0
    0.0006    1.3569   -0.4230 C   0  0  0  0  0  0  0  0  0  0  0  0
  1  2  1  0
  2  3  2  0
  3  4  1  0
  4  5  2  0
  5  6  1  0
  6  7  2  0
  7  8  1  0
  8  9  2  0
  9 10  1  0
 10 11  1  0
 11 12  2  0
 12 13  1  0
 13 14  2  0
 14 15  1  0
 14 16  1  0
 16 17  2  0
 10 18  2  0
 18 19  1  0
 19 20  1  0
 20 21  1  0
 20 22  1  0
 22 23  1  0
 23 24  1  0
 24 25  2  0
 25 26  1  0
 26 27  2  0
 27 28  1  0
 28 29  2  0
 19 30  2  0
  7  2  1  0
 30  8  1  0
 17 11  1  0
 29 24  1  0
M  END
>  <zinc_id>  (1) 
ZINC000003815472

>  <smiles>  (1) 
Cc1ccccc1-c1cc(-c2ccc(O)cc2)nc(N(C)CCc2ccccc2)c1

$$$$
