
     RDKit          3D

 31 34  0  0  0  0  0  0  0  0999 V2000
    0.4941    0.7764   -2.7717 C   0  0  0  0  0  0  0  0  0  0  0  0
    1.6056   -0.1979   -2.9524 C   0  0  0  0  0  0  0  0  0  0  0  0
    2.6779   -0.1546   -1.9208 C   0  0  0  0  0  0  0  0  0  0  0  0
    2.2419   -0.4123   -0.5881 N   0  0  0  0  0  0  0  0  0  0  0  0
    3.1480   -0.4116    0.5368 C   0  0  0  0  0  0  0  0  0  0  0  0
    3.8143    0.9082    0.6943 C   0  0  0  0  0  0  0  0  0  0  0  0
    5.0005    1.1053    0.0290 C   0  0  0  0  0  0  0  0  0  0  0  0
    5.6359    2.3020    0.1519 C   0  0  0  0  0  0  0  0  0  0  0  0
    5.1015    3.3102    0.9335 C   0  0  0  0  0  0  0  0  0  0  0  0
    3.9216    3.0742    1.5775 C   0  0  0  0  0  0  0  0  0  0  0  0
    3.2946    1.8887    1.4543 N   0  0  0  0  0  0  0  0  0  0  0  0
    0.8728   -0.6804   -0.3391 C   0  0  0  0  0  0  0  0  0  0  0  0
    0.3353   -1.9471   -0.3802 C   0  0  0  0  0  0  0  0  0  0  0  0
   -1.0038   -2.1871   -0.1319 C   0  0  0  0  0  0  0  0  0  0  0  0
   -1.5133   -3.5236   -0.1865 C   0  0  0  0  0  0  0  0  0  0  0  0
   -0.7064   -4.5778    0.1674 C   0  0  0  0  0  0  0  0  0  0  0  0
   -1.1534   -5.8927    0.1312 C   0  0  0  0  0  0  0  0  0  0  0  0
   -2.4465   -6.1101   -0.2755 C   0  0  0  0  0  0  0  0  0  0  0  0
   -3.2954   -5.0860   -0.6407 C   0  0  0  0  0  0  0  0  0  0  0  0
   -2.8026   -3.7840   -0.5883 C   0  0  0  0  0  0  0  0  0  0  0  0
   -1.7754   -1.0788    0.1610 C   0  0  0  0  0  0  0  0  0  0  0  0
   -1.2671    0.2008    0.2097 C   0  0  0  0  0  0  0  0  0  0  0  0
   -2.1007    1.3606    0.5218 C   0  0  0  0  0  0  0  0  0  0  0  0
   -3.4403    1.1790    0.7765 C   0  0  0  0  0  0  0  0  0  0  0  0
   -4.2661    2.2571    1.0773 C   0  0  0  0  0  0  0  0  0  0  0  0
   -3.7132    3.5187    1.1155 C   0  0  0  0  0  0  0  0  0  0  0  0
   -4.5729    4.5869    1.4221 O   0  0  0  0  0  0  0  0  0  0  0  0
   -2.3795    3.7392    0.8668 C   0  0  0  0  0  0  0  0  0  0  0  0
   -1.5989    2.6397    0.5728 C   0  0  0  0  0  0  0  0  0  0  0  0
   -0.1511    2.8464    0.2988 C   0  0  0  0  0  0  0  0  0  0  0  0
    0.0426    0.3508   -0.0433 N   0  0  0  0  0  0  0  0  0  0  0  0
  1  2  1  0
  2  3  1  0
  3  4  1  0
  4  5  1  0
  5  6  1  0
  6  7  2  0
  7  8  1  0
  8  9  2  0
  9 10  1  0
 10 11  2  0
  4 12  1  0
 12 13  2  0
 13 14  1  0
 14 15  1  0
 15 16  2  0
 16 17  1  0
 17 18  2  0
 18 19  1  0
 19 20  2  0
 14 21  2  0
 21 22  1  0
 22 23  1  0
 23 24  2  0
 24 25  1  0
 25 26  2  0
 26 27  1  0
 26 28  1  0
 28 29  2  0
 29 30  1  0
 22 31  2  0
 11  6  1  0
 31 12  1  0
 20 15  1  0
 29 23  1  0
M  END
>  <zinc_id>  (1) 
ZINC000003815464

>  <smiles>  (1) 
CCCN(Cc1ccccn1)c1cc(-c2ccccc2)cc(-c2ccc(O)cc2C)n1

$$$$
