
     RDKit          3D

 27 29  0  0  0  0  0  0  0  0999 V2000
   -3.6026   -0.5933    0.1124 C   0  0  0  0  0  0  0  0  0  0  0  0
   -3.0281   -1.9634    0.1613 C   0  0  0  0  0  0  0  0  0  0  0  0
   -3.8373   -3.0747    0.3079 C   0  0  0  0  0  0  0  0  0  0  0  0
   -3.3170   -4.3526    0.3568 C   0  0  0  0  0  0  0  0  0  0  0  0
   -4.1360   -5.4759    0.5045 O   0  0  0  0  0  0  0  0  0  0  0  0
   -1.9478   -4.4709    0.2527 C   0  0  0  0  0  0  0  0  0  0  0  0
   -1.1460   -3.3572    0.1064 C   0  0  0  0  0  0  0  0  0  0  0  0
   -1.6582   -2.0789    0.0569 C   0  0  0  0  0  0  0  0  0  0  0  0
   -0.8035   -0.9042   -0.0951 C   0  0  0  0  0  0  0  0  0  0  0  0
   -1.3122    0.3725   -0.1745 C   0  0  0  0  0  0  0  0  0  0  0  0
   -0.5005    1.4800   -0.3227 C   0  0  0  0  0  0  0  0  0  0  0  0
   -0.9925    2.8322   -0.4107 C   0  0  0  0  0  0  0  0  0  0  0  0
   -2.2096    3.1343   -0.9752 C   0  0  0  0  0  0  0  0  0  0  0  0
   -2.6315    4.4455   -1.0369 C   0  0  0  0  0  0  0  0  0  0  0  0
   -1.8853    5.5006   -0.5533 C   0  0  0  0  0  0  0  0  0  0  0  0
   -0.6617    5.1657    0.0110 C   0  0  0  0  0  0  0  0  0  0  0  0
   -0.2376    3.8632    0.0748 C   0  0  0  0  0  0  0  0  0  0  0  0
    0.8554    1.2407   -0.3877 C   0  0  0  0  0  0  0  0  0  0  0  0
    1.3856   -0.0307   -0.3099 C   0  0  0  0  0  0  0  0  0  0  0  0
    2.7969   -0.2005   -0.3782 N   0  0  0  0  0  0  0  0  0  0  0  0
    3.3379   -1.5406   -0.2987 C   0  0  0  0  0  0  0  0  0  0  0  0
    3.7085    0.8976   -0.5187 C   0  0  0  0  0  0  0  0  0  0  0  0
    4.5626    1.2240    0.6365 C   0  0  0  0  0  0  0  0  0  0  0  0
    5.4422    0.1374    1.0613 C   0  0  0  0  0  0  0  0  0  0  0  0
    6.3753   -0.3280    0.0311 C   0  0  0  0  0  0  0  0  0  0  0  0
    4.9120   -0.8900    1.9563 C   0  0  0  0  0  0  0  0  0  0  0  0
    0.5308   -1.0329   -0.1684 N   0  0  0  0  0  0  0  0  0  0  0  0
  1  2  1  0
  2  3  2  0
  3  4  1  0
  4  5  1  0
  4  6  2  0
  6  7  1  0
  7  8  2  0
  8  9  1  0
  9 10  2  0
 10 11  1  0
 11 12  1  0
 12 13  2  0
 13 14  1  0
 14 15  2  0
 15 16  1  0
 16 17  2  0
 11 18  2  0
 18 19  1  0
 19 20  1  0
 20 21  1  0
 20 22  1  0
 22 23  1  0
 23 24  1  0
 24 25  1  0
 24 26  1  0
 19 27  2  0
  8  2  1  0
 27  9  1  0
 17 12  1  0
M  END
>  <zinc_id>  (1) 
ZINC000003815468

>  <smiles>  (1) 
Cc1cc(O)ccc1-c1cc(-c2ccccc2)cc(N(C)CCC(C)C)n1

$$$$
