
     RDKit          3D

 20 21  0  0  0  0  0  0  0  0999 V2000
   -1.0533    2.4999    0.3117 C   0  0  0  0  0  0  0  0  0  0  0  0
    0.0620    1.4840    0.1496 C   0  0  0  0  0  0  0  0  0  0  0  0
   -0.3436    0.4293    1.2992 C   0  0  1  0  0  0  0  0  0  0  0  0
   -1.7623    0.0589    0.7305 C   0  0  0  0  0  0  0  0  0  0  0  0
   -2.7208   -0.2965    1.6703 C   0  0  0  0  0  0  0  0  0  0  0  0
   -3.9840   -0.6320    1.2348 C   0  0  0  0  0  0  0  0  0  0  0  0
   -4.2777   -0.6116   -0.1073 C   0  0  0  0  0  0  0  0  0  0  0  0
   -5.5441   -0.9436   -0.5999 O   0  0  0  0  0  0  0  0  0  0  0  0
   -3.3243   -0.2593   -1.0282 C   0  0  0  0  0  0  0  0  0  0  0  0
   -2.0785    0.0682   -0.5559 C   0  0  0  0  0  0  0  0  0  0  0  0
    0.5610   -0.9190    0.8187 C   0  0  1  0  0  0  0  0  0  0  0  0
   -0.0568   -1.1605   -0.6516 C   0  0  0  0  0  0  0  0  0  0  0  0
    0.6899   -2.3481   -1.1637 C   0  0  0  0  0  0  0  0  0  0  0  0
    1.8723   -0.2624    0.3289 C   0  0  0  0  0  0  0  0  0  0  0  0
    2.3017    0.9573    0.6956 C   0  0  0  0  0  0  0  0  0  0  0  0
    3.4793    1.4676    0.2217 C   0  0  0  0  0  0  0  0  0  0  0  0
    4.2504    0.7417   -0.6418 C   0  0  0  0  0  0  0  0  0  0  0  0
    5.4755    1.2570   -1.1429 O   0  0  0  0  0  0  0  0  0  0  0  0
    3.8366   -0.5121   -1.0361 C   0  0  0  0  0  0  0  0  0  0  0  0
    2.6168   -1.0187   -0.5339 C   0  0  0  0  0  0  0  0  0  0  0  0
  1  2  1  0
  3  2  1  6
  3  4  1  0
  4  5  2  0
  5  6  1  0
  6  7  2  0
  7  8  1  0
  7  9  1  0
  9 10  2  0
  3 11  1  0
 11 12  1  6
 12 13  1  0
 11 14  1  0
 14 15  2  0
 15 16  1  0
 16 17  2  0
 17 18  1  0
 17 19  1  0
 19 20  2  0
 10  4  1  0
 20 14  1  0
M  END
>  <zinc_id>  (1) 
ZINC000000056546

>  <smiles>  (1) 
CC[C@@H](c1ccc(O)cc1)[C@@H](CC)c1ccc(O)cc1

$$$$
