
     RDKit          3D

 21 22  0  0  0  0  0  0  0  0999 V2000
    0.9521    0.9973    2.5126 C   0  0  0  0  0  0  0  0  0  0  0  0
    0.4252    1.3667    1.1267 C   0  0  0  0  0  0  0  0  0  0  0  0
    0.8063    0.2784    0.1695 C   0  0  0  0  0  0  0  0  0  0  0  0
   -0.1672   -0.3487   -0.4482 C   0  0  0  0  0  0  0  0  0  0  0  0
    0.1411   -1.4208   -1.3948 C   0  0  0  0  0  0  0  0  0  0  0  0
   -0.4598   -2.7581   -1.0123 C   0  0  0  0  0  0  0  0  0  0  0  0
   -1.5698    0.0037   -0.2098 C   0  0  0  0  0  0  0  0  0  0  0  0
   -2.4811   -0.0278   -1.2373 C   0  0  0  0  0  0  0  0  0  0  0  0
   -3.7991    0.2965   -1.0403 C   0  0  0  0  0  0  0  0  0  0  0  0
   -4.2306    0.6626    0.2066 C   0  0  0  0  0  0  0  0  0  0  0  0
   -5.5642    0.9873    0.3899 O   0  0  0  0  0  0  0  0  0  0  0  0
   -6.4882    0.9540   -0.6569 C   0  0  0  0  0  0  0  0  0  0  0  0
   -3.3428    0.7033    1.2531 C   0  0  0  0  0  0  0  0  0  0  0  0
   -2.0059    0.3751    1.0569 C   0  0  0  0  0  0  0  0  0  0  0  0
    2.2164   -0.0187   -0.0200 C   0  0  0  0  0  0  0  0  0  0  0  0
    3.1086    1.0265   -0.0030 C   0  0  0  0  0  0  0  0  0  0  0  0
    4.4726    0.8204   -0.1783 C   0  0  0  0  0  0  0  0  0  0  0  0
    4.9439   -0.4451   -0.3721 C   0  0  0  0  0  0  0  0  0  0  0  0
    6.3151   -0.6857   -0.5521 O   0  0  0  0  0  0  0  0  0  0  0  0
    4.0506   -1.4889   -0.3890 C   0  0  0  0  0  0  0  0  0  0  0  0
    2.6768   -1.2782   -0.2121 C   0  0  0  0  0  0  0  0  0  0  0  0
  1  2  1  0
  2  3  1  0
  3  4  2  0
  4  5  1  0
  5  6  1  0
  4  7  1  0
  7  8  2  0
  8  9  1  0
  9 10  2  0
 10 11  1  0
 11 12  1  0
 10 13  1  0
 13 14  2  0
  3 15  1  0
 15 16  2  0
 16 17  1  0
 17 18  2  0
 18 19  1  0
 18 20  1  0
 20 21  2  0
 14  7  1  0
 21 15  1  0
M  END
>  <zinc_id>  (1) 
ZINC000001747889

>  <smiles>  (1) 
CC/C(=C(/CC)c1ccc(OC)cc1)c1ccc(O)cc1

$$$$
