
     RDKit          3D

 26 28  0  0  0  0  0  0  0  0999 V2000
    6.4343   -1.6880    1.2325 C   0  0  0  0  0  0  0  0  0  0  0  0
    5.1263   -2.4227    1.3724 C   0  0  0  0  0  0  0  0  0  0  0  0
    4.1487   -2.0706    0.2917 C   0  0  0  0  0  0  0  0  0  0  0  0
    3.8094   -0.5965    0.2824 C   0  0  0  0  0  0  0  0  0  0  0  0
    2.8664   -0.3100   -0.7774 N   0  0  0  0  0  0  0  0  0  0  0  0
    3.3384   -0.4373   -2.1488 C   0  0  0  0  0  0  0  0  0  0  0  0
    1.5247    0.0811   -0.4973 C   0  0  0  0  0  0  0  0  0  0  0  0
    1.2597    1.4267   -0.2768 C   0  0  0  0  0  0  0  0  0  0  0  0
   -0.0473    1.7812   -0.0143 C   0  0  0  0  0  0  0  0  0  0  0  0
   -0.4391    3.1788    0.2337 C   0  0  0  0  0  0  0  0  0  0  0  0
    0.2265    4.2220   -0.3860 C   0  0  0  0  0  0  0  0  0  0  0  0
   -0.1131    5.5536   -0.1764 C   0  0  0  0  0  0  0  0  0  0  0  0
   -1.1552    5.8232    0.6857 C   0  0  0  0  0  0  0  0  0  0  0  0
   -1.8507    4.8096    1.3298 C   0  0  0  0  0  0  0  0  0  0  0  0
   -1.4773    3.4890    1.0901 C   0  0  0  0  0  0  0  0  0  0  0  0
   -1.0334    0.7921    0.0174 C   0  0  0  0  0  0  0  0  0  0  0  0
   -0.7413   -0.5347   -0.2058 C   0  0  0  0  0  0  0  0  0  0  0  0
   -1.8274   -1.5236   -0.1657 C   0  0  0  0  0  0  0  0  0  0  0  0
   -3.1164   -1.1203    0.1234 C   0  0  0  0  0  0  0  0  0  0  0  0
   -4.1137   -2.0406    0.1470 C   0  0  0  0  0  0  0  0  0  0  0  0
   -3.9202   -3.3738   -0.1016 C   0  0  0  0  0  0  0  0  0  0  0  0
   -4.9981   -4.2563   -0.0607 O   0  0  0  0  0  0  0  0  0  0  0  0
   -2.6323   -3.7812   -0.3896 C   0  0  0  0  0  0  0  0  0  0  0  0
   -1.5996   -2.8653   -0.4215 C   0  0  0  0  0  0  0  0  0  0  0  0
   -0.2091   -3.2825   -0.7255 C   0  0  0  0  0  0  0  0  0  0  0  0
    0.5401   -0.8537   -0.4588 N   0  0  0  0  0  0  0  0  0  0  0  0
  1  2  1  0
  2  3  1  0
  3  4  1  0
  4  5  1  0
  5  6  1  0
  5  7  1  0
  7  8  2  0
  8  9  1  0
  9 10  1  0
 10 11  2  0
 11 12  1  0
 12 13  2  0
 13 14  1  0
 14 15  2  0
  9 16  2  0
 16 17  1  0
 17 18  1  0
 18 19  2  0
 19 20  1  0
 20 21  2  0
 21 22  1  0
 21 23  1  0
 23 24  2  0
 24 25  1  0
 17 26  2  0
 26  7  1  0
 15 10  1  0
 24 18  1  0
M  END
>  <zinc_id>  (1) 
ZINC000003815473

>  <smiles>  (1) 
CCCCN(C)c1cc(-c2ccccc2)cc(-c2ccc(O)cc2C)n1

$$$$
