
     RDKit          3D

 19 20  0  0  0  0  0  0  0  0999 V2000
   -4.2432   -3.9771   -1.4591 C   0  0  0  0  0  0  0  0  0  0  0  0
   -3.5980   -2.8292   -1.9738 O   0  0  0  0  0  0  0  0  0  0  0  0
   -2.6906   -2.1072   -1.2206 C   0  0  0  0  0  0  0  0  0  0  0  0
   -2.3708   -2.4689    0.0642 C   0  0  0  0  0  0  0  0  0  0  0  0
   -1.4621   -1.7331    0.7972 C   0  0  0  0  0  0  0  0  0  0  0  0
   -0.8411   -0.6058    0.2641 C   0  0  0  0  0  0  0  0  0  0  0  0
    0.1153    0.1765    1.0247 C   0  0  0  0  0  0  0  0  0  0  0  0
   -0.0208    0.3858    2.3208 C   0  0  0  0  0  0  0  0  0  0  0  0
    1.1300    1.3285    3.2432 Cl  0  0  0  0  0  0  0  0  0  0  0  0
   -1.4006   -0.3067    3.1358 Cl  0  0  0  0  0  0  0  0  0  0  0  0
    1.2535    0.7432    0.3358 C   0  0  0  0  0  0  0  0  0  0  0  0
    1.9021    0.0651   -0.7019 C   0  0  0  0  0  0  0  0  0  0  0  0
    2.9806    0.6753   -1.3084 C   0  0  0  0  0  0  0  0  0  0  0  0
    3.4604    1.9186   -0.9525 C   0  0  0  0  0  0  0  0  0  0  0  0
    4.5463    2.5248   -1.5685 O   0  0  0  0  0  0  0  0  0  0  0  0
    2.7907    2.5612    0.0821 C   0  0  0  0  0  0  0  0  0  0  0  0
    1.7095    1.9770    0.7078 C   0  0  0  0  0  0  0  0  0  0  0  0
   -1.1761   -0.2620   -1.0240 C   0  0  0  0  0  0  0  0  0  0  0  0
   -2.0849   -0.9916   -1.7670 C   0  0  0  0  0  0  0  0  0  0  0  0
  1  2  1  0
  2  3  1  0
  3  4  2  0
  4  5  1  0
  5  6  2  0
  6  7  1  0
  7  8  2  3
  8  9  1  0
  8 10  1  0
  7 11  1  0
 11 12  2  0
 12 13  1  0
 13 14  2  0
 14 15  1  0
 14 16  1  0
 16 17  2  0
  6 18  1  0
 18 19  2  0
 19  3  1  0
 17 11  1  0
M  END
>  <zinc_id>  (1) 
ZINC000003815429

>  <smiles>  (1) 
COc1ccc(C(=C(Cl)Cl)c2ccc(O)cc2)cc1

$$$$
