MODEL 1
REMARK VINA RESULT:      -8.9      0.000      0.000
REMARK  Name = 
REMARK  6 active torsions:
REMARK  status: ('A' for Active; 'I' for Inactive)
REMARK    1  A    between atoms: C_2  and  N_3
REMARK    2  A    between atoms: C_2  and  C_25
REMARK    3  A    between atoms: C_4  and  C_6
REMARK    4  A    between atoms: C_11  and  N_12
REMARK    5  A    between atoms: C_13  and  C_15
REMARK    6  A    between atoms: C_18  and  C_19
REMARK                            x       y       z     vdW  Elec       q    Type
REMARK                         _______ _______ _______ _____ _____    ______ ____
ROOT
ATOM      1  C   UNL     1      37.343   0.986  14.203  0.00  0.00    +0.000 A 
ATOM      2  C   UNL     1      36.860   0.233  13.127  0.00  0.00    +0.000 A 
ATOM      3  C   UNL     1      37.473   0.323  11.888  0.00  0.00    +0.000 A 
ATOM      4  C   UNL     1      38.537   1.130  11.702  0.00  0.00    +0.000 A 
ATOM      5  C   UNL     1      38.990   1.856  12.777  0.00  0.00    +0.000 A 
ATOM      6  C   UNL     1      38.421   1.808  14.023  0.00  0.00    +0.000 A 
ENDROOT
BRANCH   1   8
ATOM      7  N   UNL     1      37.013  -0.163  16.359  0.00  0.00    +0.000 NA
ATOM      8  C   UNL     1      36.689   0.885  15.504  0.00  0.00    +0.000 C 
ATOM      9  O   UNL     1      35.852   1.737  15.838  0.00  0.00    +0.000 OA
BRANCH   7  11
ATOM     10  C   UNL     1      35.036  -1.154  17.161  0.00  0.00    +0.000 C 
ATOM     11  C   UNL     1      36.257  -0.191  17.756  0.00  0.00    +0.000 C 
BRANCH  11  12
ATOM     12  C   UNL     1      37.170  -1.415  18.303  0.00  0.00    +0.000 A 
ATOM     13  C   UNL     1      37.972  -2.060  17.481  0.00  0.00    +0.000 A 
ATOM     14  C   UNL     1      38.760  -3.094  18.023  0.00  0.00    +0.000 A 
ATOM     15  C   UNL     1      38.673  -3.397  19.355  0.00  0.00    +0.000 A 
ATOM     16  C   UNL     1      37.815  -2.696  20.208  0.00  0.00    +0.000 A 
ATOM     17  C   UNL     1      37.081  -1.713  19.638  0.00  0.00    +0.000 A 
ENDBRANCH  11  12
ENDBRANCH   7  11
ENDBRANCH   1   8
BRANCH   6  18
ATOM     18  N   UNL     1      38.995   2.615  15.046  0.00  0.00    +0.000 NA
ATOM     19  C   UNL     1      38.573   3.951  15.297  0.00  0.00    +0.000 C 
ATOM     20  O   UNL     1      37.641   4.327  14.521  0.00  0.00    +0.000 OA
BRANCH  19  21
ATOM     21  C   UNL     1      39.156   4.803  16.338  0.00  0.00    +0.000 A 
ATOM     22  C   UNL     1      40.187   5.705  16.184  0.00  0.00    +0.000 A 
ATOM     23  C   UNL     1      40.653   6.469  17.263  0.00  0.00    +0.000 A 
ATOM     24  C   UNL     1      40.111   6.364  18.516  0.00  0.00    +0.000 A 
ATOM     25  C   UNL     1      39.065   5.455  18.685  0.00  0.00    +0.000 A 
ATOM     26  C   UNL     1      38.641   4.721  17.611  0.00  0.00    +0.000 A 
BRANCH  24  27
ATOM     27  C   UNL     1      40.575   7.161  19.687  0.00  0.00    +0.000 C 
ATOM     28  C   UNL     1      39.395   7.568  20.500  0.00  0.00    +0.000 C 
ATOM     29  C   UNL     1      41.494   6.289  20.486  0.00  0.00    +0.000 C 
ATOM     30  C   UNL     1      41.323   8.409  19.225  0.00  0.00    +0.000 C 
ENDBRANCH  24  27
ENDBRANCH  19  21
ENDBRANCH   6  18
TORSDOF 6
ENDMDL
MODEL 2
REMARK VINA RESULT:      -8.2      4.073      6.222
REMARK  Name = 
REMARK  6 active torsions:
REMARK  status: ('A' for Active; 'I' for Inactive)
REMARK    1  A    between atoms: C_2  and  N_3
REMARK    2  A    between atoms: C_2  and  C_25
REMARK    3  A    between atoms: C_4  and  C_6
REMARK    4  A    between atoms: C_11  and  N_12
REMARK    5  A    between atoms: C_13  and  C_15
REMARK    6  A    between atoms: C_18  and  C_19
REMARK                            x       y       z     vdW  Elec       q    Type
REMARK                         _______ _______ _______ _____ _____    ______ ____
ROOT
ATOM      1  C   UNL     1      35.876   2.374  15.667  0.00  0.00    +0.000 A 
ATOM      2  C   UNL     1      34.692   3.112  15.776  0.00  0.00    +0.000 A 
ATOM      3  C   UNL     1      34.460   4.177  14.921  0.00  0.00    +0.000 A 
ATOM      4  C   UNL     1      35.362   4.514  13.977  0.00  0.00    +0.000 A 
ATOM      5  C   UNL     1      36.514   3.769  13.893  0.00  0.00    +0.000 A 
ATOM      6  C   UNL     1      36.796   2.709  14.714  0.00  0.00    +0.000 A 
ENDROOT
BRANCH   1   8
ATOM      7  N   UNL     1      35.738  -0.030  16.196  0.00  0.00    +0.000 NA
ATOM      8  C   UNL     1      36.112   1.255  16.575  0.00  0.00    +0.000 C 
ATOM      9  O   UNL     1      36.647   1.459  17.674  0.00  0.00    +0.000 OA
BRANCH   7  11
ATOM     10  C   UNL     1      34.744  -2.097  16.722  0.00  0.00    +0.000 C 
ATOM     11  C   UNL     1      36.037  -1.187  17.243  0.00  0.00    +0.000 C 
BRANCH  11  12
ATOM     12  C   UNL     1      37.125  -1.885  16.263  0.00  0.00    +0.000 A 
ATOM     13  C   UNL     1      38.351  -2.110  16.689  0.00  0.00    +0.000 A 
ATOM     14  C   UNL     1      39.239  -2.745  15.800  0.00  0.00    +0.000 A 
ATOM     15  C   UNL     1      38.820  -3.102  14.548  0.00  0.00    +0.000 A 
ATOM     16  C   UNL     1      37.512  -2.855  14.119  0.00  0.00    +0.000 A 
ATOM     17  C   UNL     1      36.699  -2.243  15.010  0.00  0.00    +0.000 A 
ENDBRANCH  11  12
ENDBRANCH   7  11
ENDBRANCH   1   8
BRANCH   6  18
ATOM     18  N   UNL     1      38.030   2.026  14.514  0.00  0.00    +0.000 NA
ATOM     19  C   UNL     1      38.178   0.968  13.574  0.00  0.00    +0.000 C 
ATOM     20  O   UNL     1      37.104   0.714  12.946  0.00  0.00    +0.000 OA
BRANCH  19  21
ATOM     21  C   UNL     1      39.435   0.245  13.359  0.00  0.00    +0.000 A 
ATOM     22  C   UNL     1      39.774  -0.513  12.259  0.00  0.00    +0.000 A 
ATOM     23  C   UNL     1      41.017  -1.154  12.171  0.00  0.00    +0.000 A 
ATOM     24  C   UNL     1      41.957  -1.059  13.162  0.00  0.00    +0.000 A 
ATOM     25  C   UNL     1      41.627  -0.292  14.281  0.00  0.00    +0.000 A 
ATOM     26  C   UNL     1      40.400   0.313  14.337  0.00  0.00    +0.000 A 
BRANCH  24  27
ATOM     27  C   UNL     1      43.291  -1.721  13.104  0.00  0.00    +0.000 C 
ATOM     28  C   UNL     1      44.175  -0.957  12.180  0.00  0.00    +0.000 C 
ATOM     29  C   UNL     1      43.850  -1.722  14.493  0.00  0.00    +0.000 C 
ATOM     30  C   UNL     1      43.156  -3.156  12.603  0.00  0.00    +0.000 C 
ENDBRANCH  24  27
ENDBRANCH  19  21
ENDBRANCH   6  18
TORSDOF 6
ENDMDL
MODEL 3
REMARK VINA RESULT:      -8.2      3.344      8.390
REMARK  Name = 
REMARK  6 active torsions:
REMARK  status: ('A' for Active; 'I' for Inactive)
REMARK    1  A    between atoms: C_2  and  N_3
REMARK    2  A    between atoms: C_2  and  C_25
REMARK    3  A    between atoms: C_4  and  C_6
REMARK    4  A    between atoms: C_11  and  N_12
REMARK    5  A    between atoms: C_13  and  C_15
REMARK    6  A    between atoms: C_18  and  C_19
REMARK                            x       y       z     vdW  Elec       q    Type
REMARK                         _______ _______ _______ _____ _____    ______ ____
ROOT
ATOM      1  C   UNL     1      36.876  -0.680  17.519  0.00  0.00    +0.000 A 
ATOM      2  C   UNL     1      36.059  -0.663  18.655  0.00  0.00    +0.000 A 
ATOM      3  C   UNL     1      36.376  -1.454  19.747  0.00  0.00    +0.000 A 
ATOM      4  C   UNL     1      37.469  -2.244  19.733  0.00  0.00    +0.000 A 
ATOM      5  C   UNL     1      38.253  -2.238  18.605  0.00  0.00    +0.000 A 
ATOM      6  C   UNL     1      37.986  -1.478  17.496  0.00  0.00    +0.000 A 
ENDROOT
BRANCH   1   8
ATOM      7  N   UNL     1      37.344   1.236  16.040  0.00  0.00    +0.000 NA
ATOM      8  C   UNL     1      36.533   0.156  16.373  0.00  0.00    +0.000 C 
ATOM      9  O   UNL     1      35.522  -0.106  15.704  0.00  0.00    +0.000 OA
BRANCH   7  11
ATOM     10  C   UNL     1      37.647   3.462  15.341  0.00  0.00    +0.000 C 
ATOM     11  C   UNL     1      36.897   2.088  14.775  0.00  0.00    +0.000 C 
BRANCH  11  12
ATOM     12  C   UNL     1      38.158   1.571  13.896  0.00  0.00    +0.000 A 
ATOM     13  C   UNL     1      37.998   1.270  12.624  0.00  0.00    +0.000 A 
ATOM     14  C   UNL     1      39.139   0.855  11.909  0.00  0.00    +0.000 A 
ATOM     15  C   UNL     1      40.352   0.774  12.537  0.00  0.00    +0.000 A 
ATOM     16  C   UNL     1      40.496   1.101  13.888  0.00  0.00    +0.000 A 
ATOM     17  C   UNL     1      39.371   1.494  14.530  0.00  0.00    +0.000 A 
ENDBRANCH  11  12
ENDBRANCH   7  11
ENDBRANCH   1   8
BRANCH   6  18
ATOM     18  N   UNL     1      38.886  -1.571  16.397  0.00  0.00    +0.000 NA
ATOM     19  C   UNL     1      38.674  -2.457  15.303  0.00  0.00    +0.000 C 
ATOM     20  O   UNL     1      37.607  -3.137  15.421  0.00  0.00    +0.000 OA
BRANCH  19  21
ATOM     21  C   UNL     1      39.591  -2.576  14.166  0.00  0.00    +0.000 A 
ATOM     22  C   UNL     1      40.967  -2.619  14.217  0.00  0.00    +0.000 A 
ATOM     23  C   UNL     1      41.737  -2.740  13.052  0.00  0.00    +0.000 A 
ATOM     24  C   UNL     1      41.166  -2.828  11.810  0.00  0.00    +0.000 A 
ATOM     25  C   UNL     1      39.772  -2.788  11.745  0.00  0.00    +0.000 A 
ATOM     26  C   UNL     1      39.054  -2.661  12.903  0.00  0.00    +0.000 A 
BRANCH  24  27
ATOM     27  C   UNL     1      41.948  -2.963  10.548  0.00  0.00    +0.000 C 
ATOM     28  C   UNL     1      41.065  -3.513   9.483  0.00  0.00    +0.000 C 
ATOM     29  C   UNL     1      42.439  -1.597  10.178  0.00  0.00    +0.000 C 
ATOM     30  C   UNL     1      43.137  -3.898  10.751  0.00  0.00    +0.000 C 
ENDBRANCH  24  27
ENDBRANCH  19  21
ENDBRANCH   6  18
TORSDOF 6
ENDMDL
MODEL 4
REMARK VINA RESULT:      -8.0      3.620      7.847
REMARK  Name = 
REMARK  6 active torsions:
REMARK  status: ('A' for Active; 'I' for Inactive)
REMARK    1  A    between atoms: C_2  and  N_3
REMARK    2  A    between atoms: C_2  and  C_25
REMARK    3  A    between atoms: C_4  and  C_6
REMARK    4  A    between atoms: C_11  and  N_12
REMARK    5  A    between atoms: C_13  and  C_15
REMARK    6  A    between atoms: C_18  and  C_19
REMARK                            x       y       z     vdW  Elec       q    Type
REMARK                         _______ _______ _______ _____ _____    ______ ____
ROOT
ATOM      1  C   UNL     1      36.548   0.752  16.029  0.00  0.00    +0.000 A 
ATOM      2  C   UNL     1      35.237   0.945  16.480  0.00  0.00    +0.000 A 
ATOM      3  C   UNL     1      34.594  -0.059  17.185  0.00  0.00    +0.000 A 
ATOM      4  C   UNL     1      35.216  -1.225  17.448  0.00  0.00    +0.000 A 
ATOM      5  C   UNL     1      36.503  -1.385  16.995  0.00  0.00    +0.000 A 
ATOM      6  C   UNL     1      37.187  -0.428  16.291  0.00  0.00    +0.000 A 
ENDROOT
BRANCH   1   8
ATOM      7  N   UNL     1      37.733   2.913  15.966  0.00  0.00    +0.000 NA
ATOM      8  C   UNL     1      37.217   1.816  15.285  0.00  0.00    +0.000 C 
ATOM      9  O   UNL     1      37.323   1.729  14.053  0.00  0.00    +0.000 OA
BRANCH   7  11
ATOM     10  C   UNL     1      37.065   4.937  14.969  0.00  0.00    +0.000 C 
ATOM     11  C   UNL     1      38.449   4.019  15.077  0.00  0.00    +0.000 C 
BRANCH  11  12
ATOM     12  C   UNL     1      39.041   4.781  16.381  0.00  0.00    +0.000 A 
ATOM     13  C   UNL     1      38.506   4.575  17.567  0.00  0.00    +0.000 A 
ATOM     14  C   UNL     1      39.085   5.244  18.663  0.00  0.00    +0.000 A 
ATOM     15  C   UNL     1      40.158   6.072  18.474  0.00  0.00    +0.000 A 
ATOM     16  C   UNL     1      40.709   6.273  17.205  0.00  0.00    +0.000 A 
ATOM     17  C   UNL     1      40.118   5.607  16.187  0.00  0.00    +0.000 A 
ENDBRANCH  11  12
ENDBRANCH   7  11
ENDBRANCH   1   8
BRANCH   6  18
ATOM     18  N   UNL     1      38.517  -0.729  15.883  0.00  0.00    +0.000 NA
ATOM     19  C   UNL     1      38.814  -1.381  14.654  0.00  0.00    +0.000 C 
ATOM     20  O   UNL     1      37.775  -1.653  13.977  0.00  0.00    +0.000 OA
BRANCH  19  21
ATOM     21  C   UNL     1      40.176  -1.710  14.219  0.00  0.00    +0.000 A 
ATOM     22  C   UNL     1      40.566  -2.814  13.494  0.00  0.00    +0.000 A 
ATOM     23  C   UNL     1      41.906  -3.012  13.133  0.00  0.00    +0.000 A 
ATOM     24  C   UNL     1      42.890  -2.124  13.475  0.00  0.00    +0.000 A 
ATOM     25  C   UNL     1      42.507  -0.999  14.208  0.00  0.00    +0.000 A 
ATOM     26  C   UNL     1      41.191  -0.842  14.549  0.00  0.00    +0.000 A 
BRANCH  24  27
ATOM     27  C   UNL     1      44.324  -2.295  13.107  0.00  0.00    +0.000 C 
ATOM     28  C   UNL     1      45.168  -2.084  14.316  0.00  0.00    +0.000 C 
ATOM     29  C   UNL     1      44.488  -3.689  12.583  0.00  0.00    +0.000 C 
ATOM     30  C   UNL     1      44.726  -1.292  12.030  0.00  0.00    +0.000 C 
ENDBRANCH  24  27
ENDBRANCH  19  21
ENDBRANCH   6  18
TORSDOF 6
ENDMDL
MODEL 5
REMARK VINA RESULT:      -8.0      3.426      6.599
REMARK  Name = 
REMARK  6 active torsions:
REMARK  status: ('A' for Active; 'I' for Inactive)
REMARK    1  A    between atoms: C_2  and  N_3
REMARK    2  A    between atoms: C_2  and  C_25
REMARK    3  A    between atoms: C_4  and  C_6
REMARK    4  A    between atoms: C_11  and  N_12
REMARK    5  A    between atoms: C_13  and  C_15
REMARK    6  A    between atoms: C_18  and  C_19
REMARK                            x       y       z     vdW  Elec       q    Type
REMARK                         _______ _______ _______ _____ _____    ______ ____
ROOT
ATOM      1  C   UNL     1      39.208  -2.335  15.866  0.00  0.00    +0.000 A 
ATOM      2  C   UNL     1      39.394  -3.656  16.290  0.00  0.00    +0.000 A 
ATOM      3  C   UNL     1      38.639  -4.159  17.337  0.00  0.00    +0.000 A 
ATOM      4  C   UNL     1      37.719  -3.391  17.956  0.00  0.00    +0.000 A 
ATOM      5  C   UNL     1      37.558  -2.099  17.516  0.00  0.00    +0.000 A 
ATOM      6  C   UNL     1      38.278  -1.550  16.488  0.00  0.00    +0.000 A 
ENDROOT
BRANCH   1   8
ATOM      7  N   UNL     1      39.401  -1.513  13.550  0.00  0.00    +0.000 NA
ATOM      8  C   UNL     1      40.010  -1.814  14.763  0.00  0.00    +0.000 C 
ATOM      9  O   UNL     1      41.228  -1.640  14.919  0.00  0.00    +0.000 OA
BRANCH   7  11
ATOM     10  C   UNL     1      39.833  -2.086  11.309  0.00  0.00    +0.000 C 
ATOM     11  C   UNL     1      40.349  -0.947  12.408  0.00  0.00    +0.000 C 
BRANCH  11  12
ATOM     12  C   UNL     1      39.270   0.185  11.979  0.00  0.00    +0.000 A 
ATOM     13  C   UNL     1      39.673   1.402  11.673  0.00  0.00    +0.000 A 
ATOM     14  C   UNL     1      38.689   2.330  11.281  0.00  0.00    +0.000 A 
ATOM     15  C   UNL     1      37.374   1.958  11.231  0.00  0.00    +0.000 A 
ATOM     16  C   UNL     1      36.971   0.660  11.558  0.00  0.00    +0.000 A 
ATOM     17  C   UNL     1      37.953  -0.194  11.928  0.00  0.00    +0.000 A 
ENDBRANCH  11  12
ENDBRANCH   7  11
ENDBRANCH   1   8
BRANCH   6  18
ATOM     18  N   UNL     1      38.006  -0.197  16.137  0.00  0.00    +0.000 NA
ATOM     19  C   UNL     1      36.872   0.183  15.365  0.00  0.00    +0.000 C 
ATOM     20  O   UNL     1      36.146  -0.807  15.038  0.00  0.00    +0.000 OA
BRANCH  19  21
ATOM     21  C   UNL     1      36.578   1.567  14.983  0.00  0.00    +0.000 A 
ATOM     22  C   UNL     1      35.336   2.107  14.728  0.00  0.00    +0.000 A 
ATOM     23  C   UNL     1      35.185   3.455  14.376  0.00  0.00    +0.000 A 
ATOM     24  C   UNL     1      36.255   4.303  14.271  0.00  0.00    +0.000 A 
ATOM     25  C   UNL     1      37.519   3.769  14.528  0.00  0.00    +0.000 A 
ATOM     26  C   UNL     1      37.629   2.446  14.862  0.00  0.00    +0.000 A 
BRANCH  24  27
ATOM     27  C   UNL     1      36.137   5.742  13.903  0.00  0.00    +0.000 C 
ATOM     28  C   UNL     1      36.627   5.933  12.510  0.00  0.00    +0.000 C 
ATOM     29  C   UNL     1      34.690   6.114  14.012  0.00  0.00    +0.000 C 
ATOM     30  C   UNL     1      36.962   6.608  14.851  0.00  0.00    +0.000 C 
ENDBRANCH  24  27
ENDBRANCH  19  21
ENDBRANCH   6  18
TORSDOF 6
ENDMDL
MODEL 6
REMARK VINA RESULT:      -7.8      3.573      8.599
REMARK  Name = 
REMARK  6 active torsions:
REMARK  status: ('A' for Active; 'I' for Inactive)
REMARK    1  A    between atoms: C_2  and  N_3
REMARK    2  A    between atoms: C_2  and  C_25
REMARK    3  A    between atoms: C_4  and  C_6
REMARK    4  A    between atoms: C_11  and  N_12
REMARK    5  A    between atoms: C_13  and  C_15
REMARK    6  A    between atoms: C_18  and  C_19
REMARK                            x       y       z     vdW  Elec       q    Type
REMARK                         _______ _______ _______ _____ _____    ______ ____
ROOT
ATOM      1  C   UNL     1      35.950  -0.150  15.507  0.00  0.00    +0.000 A 
ATOM      2  C   UNL     1      35.041   0.126  16.535  0.00  0.00    +0.000 A 
ATOM      3  C   UNL     1      34.556  -0.904  17.325  0.00  0.00    +0.000 A 
ATOM      4  C   UNL     1      34.952  -2.176  17.119  0.00  0.00    +0.000 A 
ATOM      5  C   UNL     1      35.846  -2.416  16.104  0.00  0.00    +0.000 A 
ATOM      6  C   UNL     1      36.356  -1.437  15.291  0.00  0.00    +0.000 A 
ENDROOT
BRANCH   1   8
ATOM      7  N   UNL     1      37.787   1.323  14.777  0.00  0.00    +0.000 NA
ATOM      8  C   UNL     1      36.453   0.942  14.679  0.00  0.00    +0.000 C 
ATOM      9  O   UNL     1      35.687   1.517  13.892  0.00  0.00    +0.000 OA
BRANCH   7  11
ATOM     10  C   UNL     1      38.946   3.345  15.099  0.00  0.00    +0.000 C 
ATOM     11  C   UNL     1      38.249   2.516  13.835  0.00  0.00    +0.000 C 
BRANCH  11  12
ATOM     12  C   UNL     1      39.601   1.736  13.395  0.00  0.00    +0.000 A 
ATOM     13  C   UNL     1      40.383   1.200  14.310  0.00  0.00    +0.000 A 
ATOM     14  C   UNL     1      41.526   0.511  13.861  0.00  0.00    +0.000 A 
ATOM     15  C   UNL     1      41.792   0.419  12.522  0.00  0.00    +0.000 A 
ATOM     16  C   UNL     1      40.945   0.994  11.570  0.00  0.00    +0.000 A 
ATOM     17  C   UNL     1      39.861   1.644  12.052  0.00  0.00    +0.000 A 
ENDBRANCH  11  12
ENDBRANCH   7  11
ENDBRANCH   1   8
BRANCH   6  18
ATOM     18  N   UNL     1      37.276  -1.830  14.278  0.00  0.00    +0.000 NA
ATOM     19  C   UNL     1      38.655  -2.066  14.543  0.00  0.00    +0.000 C 
ATOM     20  O   UNL     1      38.958  -1.893  15.764  0.00  0.00    +0.000 OA
BRANCH  19  21
ATOM     21  C   UNL     1      39.622  -2.461  13.514  0.00  0.00    +0.000 A 
ATOM     22  C   UNL     1      40.873  -2.999  13.721  0.00  0.00    +0.000 A 
ATOM     23  C   UNL     1      41.705  -3.341  12.647  0.00  0.00    +0.000 A 
ATOM     24  C   UNL     1      41.321  -3.166  11.344  0.00  0.00    +0.000 A 
ATOM     25  C   UNL     1      40.055  -2.623  11.121  0.00  0.00    +0.000 A 
ATOM     26  C   UNL     1      39.272  -2.293  12.194  0.00  0.00    +0.000 A 
BRANCH  24  27
ATOM     27  C   UNL     1      42.174  -3.522  10.175  0.00  0.00    +0.000 C 
ATOM     28  C   UNL     1      41.955  -4.953   9.827  0.00  0.00    +0.000 C 
ATOM     29  C   UNL     1      41.770  -2.632   9.039  0.00  0.00    +0.000 C 
ATOM     30  C   UNL     1      43.649  -3.302  10.500  0.00  0.00    +0.000 C 
ENDBRANCH  24  27
ENDBRANCH  19  21
ENDBRANCH   6  18
TORSDOF 6
ENDMDL
MODEL 7
REMARK VINA RESULT:      -7.8      3.757      9.097
REMARK  Name = 
REMARK  6 active torsions:
REMARK  status: ('A' for Active; 'I' for Inactive)
REMARK    1  A    between atoms: C_2  and  N_3
REMARK    2  A    between atoms: C_2  and  C_25
REMARK    3  A    between atoms: C_4  and  C_6
REMARK    4  A    between atoms: C_11  and  N_12
REMARK    5  A    between atoms: C_13  and  C_15
REMARK    6  A    between atoms: C_18  and  C_19
REMARK                            x       y       z     vdW  Elec       q    Type
REMARK                         _______ _______ _______ _____ _____    ______ ____
ROOT
ATOM      1  C   UNL     1      37.842  -1.561  16.655  0.00  0.00    +0.000 A 
ATOM      2  C   UNL     1      37.485  -1.405  17.999  0.00  0.00    +0.000 A 
ATOM      3  C   UNL     1      37.826  -2.379  18.923  0.00  0.00    +0.000 A 
ATOM      4  C   UNL     1      38.504  -3.482  18.545  0.00  0.00    +0.000 A 
ATOM      5  C   UNL     1      38.841  -3.607  17.219  0.00  0.00    +0.000 A 
ATOM      6  C   UNL     1      38.528  -2.676  16.262  0.00  0.00    +0.000 A 
ENDROOT
BRANCH   1   8
ATOM      7  N   UNL     1      38.359   0.513  15.427  0.00  0.00    +0.000 NA
ATOM      8  C   UNL     1      37.476  -0.529  15.689  0.00  0.00    +0.000 C 
ATOM      9  O   UNL     1      36.383  -0.594  15.108  0.00  0.00    +0.000 OA
BRANCH   7  11
ATOM     10  C   UNL     1      38.588   2.843  15.191  0.00  0.00    +0.000 C 
ATOM     11  C   UNL     1      37.880   1.587  14.358  0.00  0.00    +0.000 C 
BRANCH  11  12
ATOM     12  C   UNL     1      39.155   1.299  13.397  0.00  0.00    +0.000 A 
ATOM     13  C   UNL     1      40.357   1.160  13.917  0.00  0.00    +0.000 A 
ATOM     14  C   UNL     1      41.417   0.882  13.032  0.00  0.00    +0.000 A 
ATOM     15  C   UNL     1      41.179   0.769  11.690  0.00  0.00    +0.000 A 
ATOM     16  C   UNL     1      39.893   0.919  11.162  0.00  0.00    +0.000 A 
ATOM     17  C   UNL     1      38.911   1.184  12.053  0.00  0.00    +0.000 A 
ENDBRANCH  11  12
ENDBRANCH   7  11
ENDBRANCH   1   8
BRANCH   6  18
ATOM     18  N   UNL     1      38.941  -2.935  14.925  0.00  0.00    +0.000 NA
ATOM     19  C   UNL     1      40.212  -2.535  14.423  0.00  0.00    +0.000 C 
ATOM     20  O   UNL     1      40.919  -1.938  15.293  0.00  0.00    +0.000 OA
BRANCH  19  21
ATOM     21  C   UNL     1      40.655  -2.782  13.047  0.00  0.00    +0.000 A 
ATOM     22  C   UNL     1      41.903  -3.205  12.646  0.00  0.00    +0.000 A 
ATOM     23  C   UNL     1      42.202  -3.410  11.292  0.00  0.00    +0.000 A 
ATOM     24  C   UNL     1      41.275  -3.210  10.304  0.00  0.00    +0.000 A 
ATOM     25  C   UNL     1      40.005  -2.784  10.698  0.00  0.00    +0.000 A 
ATOM     26  C   UNL     1      39.752  -2.586  12.028  0.00  0.00    +0.000 A 
BRANCH  24  27
ATOM     27  C   UNL     1      41.552  -3.422   8.855  0.00  0.00    +0.000 C 
ATOM     28  C   UNL     1      40.851  -2.372   8.065  0.00  0.00    +0.000 C 
ATOM     29  C   UNL     1      43.034  -3.329   8.664  0.00  0.00    +0.000 C 
ATOM     30  C   UNL     1      41.062  -4.798   8.411  0.00  0.00    +0.000 C 
ENDBRANCH  24  27
ENDBRANCH  19  21
ENDBRANCH   6  18
TORSDOF 6
ENDMDL
MODEL 8
REMARK VINA RESULT:      -7.7      1.615      2.055
REMARK  Name = 
REMARK  6 active torsions:
REMARK  status: ('A' for Active; 'I' for Inactive)
REMARK    1  A    between atoms: C_2  and  N_3
REMARK    2  A    between atoms: C_2  and  C_25
REMARK    3  A    between atoms: C_4  and  C_6
REMARK    4  A    between atoms: C_11  and  N_12
REMARK    5  A    between atoms: C_13  and  C_15
REMARK    6  A    between atoms: C_18  and  C_19
REMARK                            x       y       z     vdW  Elec       q    Type
REMARK                         _______ _______ _______ _____ _____    ______ ____
ROOT
ATOM      1  C   UNL     1      37.404   1.139  13.560  0.00  0.00    +0.000 A 
ATOM      2  C   UNL     1      37.130   0.348  12.438  0.00  0.00    +0.000 A 
ATOM      3  C   UNL     1      37.058   0.930  11.183  0.00  0.00    +0.000 A 
ATOM      4  C   UNL     1      37.251   2.255  11.024  0.00  0.00    +0.000 A 
ATOM      5  C   UNL     1      37.521   3.005  12.143  0.00  0.00    +0.000 A 
ATOM      6  C   UNL     1      37.601   2.483  13.408  0.00  0.00    +0.000 A 
ENDROOT
BRANCH   1   8
ATOM      7  N   UNL     1      36.313   0.062  15.491  0.00  0.00    +0.000 NA
ATOM      8  C   UNL     1      37.476   0.516  14.878  0.00  0.00    +0.000 C 
ATOM      9  O   UNL     1      38.576   0.394  15.439  0.00  0.00    +0.000 OA
BRANCH   7  11
ATOM     10  C   UNL     1      34.867  -0.455  17.273  0.00  0.00    +0.000 C 
ATOM     11  C   UNL     1      36.487  -0.606  16.922  0.00  0.00    +0.000 C 
BRANCH  11  12
ATOM     12  C   UNL     1      36.376  -2.104  16.311  0.00  0.00    +0.000 A 
ATOM     13  C   UNL     1      35.382  -2.417  15.504  0.00  0.00    +0.000 A 
ATOM     14  C   UNL     1      35.359  -3.726  14.984  0.00  0.00    +0.000 A 
ATOM     15  C   UNL     1      36.339  -4.618  15.323  0.00  0.00    +0.000 A 
ATOM     16  C   UNL     1      37.384  -4.262  16.181  0.00  0.00    +0.000 A 
ATOM     17  C   UNL     1      37.362  -2.994  16.652  0.00  0.00    +0.000 A 
ENDBRANCH  11  12
ENDBRANCH   7  11
ENDBRANCH   1   8
BRANCH   6  18
ATOM     18  N   UNL     1      37.888   3.378  14.477  0.00  0.00    +0.000 NA
ATOM     19  C   UNL     1      39.208   3.820  14.776  0.00  0.00    +0.000 C 
ATOM     20  O   UNL     1      40.079   3.336  13.989  0.00  0.00    +0.000 OA
BRANCH  19  21
ATOM     21  C   UNL     1      39.527   4.733  15.877  0.00  0.00    +0.000 A 
ATOM     22  C   UNL     1      40.453   5.753  15.862  0.00  0.00    +0.000 A 
ATOM     23  C   UNL     1      40.663   6.564  16.985  0.00  0.00    +0.000 A 
ATOM     24  C   UNL     1      39.962   6.392  18.148  0.00  0.00    +0.000 A 
ATOM     25  C   UNL     1      39.019   5.362  18.177  0.00  0.00    +0.000 A 
ATOM     26  C   UNL     1      38.846   4.585  17.063  0.00  0.00    +0.000 A 
BRANCH  24  27
ATOM     27  C   UNL     1      40.152   7.235  19.362  0.00  0.00    +0.000 C 
ATOM     28  C   UNL     1      38.822   7.534  19.962  0.00  0.00    +0.000 C 
ATOM     29  C   UNL     1      41.002   6.457  20.319  0.00  0.00    +0.000 C 
ATOM     30  C   UNL     1      40.849   8.544  19.003  0.00  0.00    +0.000 C 
ENDBRANCH  24  27
ENDBRANCH  19  21
ENDBRANCH   6  18
TORSDOF 6
ENDMDL
MODEL 9
REMARK VINA RESULT:      -7.7      2.636      7.884
REMARK  Name = 
REMARK  6 active torsions:
REMARK  status: ('A' for Active; 'I' for Inactive)
REMARK    1  A    between atoms: C_2  and  N_3
REMARK    2  A    between atoms: C_2  and  C_25
REMARK    3  A    between atoms: C_4  and  C_6
REMARK    4  A    between atoms: C_11  and  N_12
REMARK    5  A    between atoms: C_13  and  C_15
REMARK    6  A    between atoms: C_18  and  C_19
REMARK                            x       y       z     vdW  Elec       q    Type
REMARK                         _______ _______ _______ _____ _____    ______ ____
ROOT
ATOM      1  C   UNL     1      36.383  -0.169  17.139  0.00  0.00    +0.000 A 
ATOM      2  C   UNL     1      36.394  -0.664  18.447  0.00  0.00    +0.000 A 
ATOM      3  C   UNL     1      36.666  -2.002  18.678  0.00  0.00    +0.000 A 
ATOM      4  C   UNL     1      36.925  -2.841  17.654  0.00  0.00    +0.000 A 
ATOM      5  C   UNL     1      36.908  -2.325  16.381  0.00  0.00    +0.000 A 
ATOM      6  C   UNL     1      36.643  -1.011  16.094  0.00  0.00    +0.000 A 
ENDROOT
BRANCH   1   8
ATOM      7  N   UNL     1      37.139   2.132  16.677  0.00  0.00    +0.000 NA
ATOM      8  C   UNL     1      36.094   1.243  16.906  0.00  0.00    +0.000 C 
ATOM      9  O   UNL     1      34.918   1.637  16.911  0.00  0.00    +0.000 OA
BRANCH   7  11
ATOM     10  C   UNL     1      38.012   4.219  17.326  0.00  0.00    +0.000 C 
ATOM     11  C   UNL     1      36.731   3.648  16.428  0.00  0.00    +0.000 C 
BRANCH  11  12
ATOM     12  C   UNL     1      37.505   3.693  15.004  0.00  0.00    +0.000 A 
ATOM     13  C   UNL     1      36.867   4.076  13.917  0.00  0.00    +0.000 A 
ATOM     14  C   UNL     1      37.603   4.122  12.717  0.00  0.00    +0.000 A 
ATOM     15  C   UNL     1      38.926   3.774  12.709  0.00  0.00    +0.000 A 
ATOM     16  C   UNL     1      39.582   3.372  13.876  0.00  0.00    +0.000 A 
ATOM     17  C   UNL     1      38.831   3.346  15.001  0.00  0.00    +0.000 A 
ENDBRANCH  11  12
ENDBRANCH   7  11
ENDBRANCH   1   8
BRANCH   6  18
ATOM     18  N   UNL     1      36.660  -0.614  14.727  0.00  0.00    +0.000 NA
ATOM     19  C   UNL     1      37.848  -0.199  14.063  0.00  0.00    +0.000 C 
ATOM     20  O   UNL     1      38.870  -0.229  14.817  0.00  0.00    +0.000 OA
BRANCH  19  21
ATOM     21  C   UNL     1      37.888   0.223  12.659  0.00  0.00    +0.000 A 
ATOM     22  C   UNL     1      36.834   0.701  11.912  0.00  0.00    +0.000 A 
ATOM     23  C   UNL     1      37.002   1.079  10.573  0.00  0.00    +0.000 A 
ATOM     24  C   UNL     1      38.215   0.998   9.942  0.00  0.00    +0.000 A 
ATOM     25  C   UNL     1      39.291   0.517  10.688  0.00  0.00    +0.000 A 
ATOM     26  C   UNL     1      39.088   0.150  11.991  0.00  0.00    +0.000 A 
BRANCH  24  27
ATOM     27  C   UNL     1      38.436   1.394   8.522  0.00  0.00    +0.000 C 
ATOM     28  C   UNL     1      37.138   1.346   7.793  0.00  0.00    +0.000 C 
ATOM     29  C   UNL     1      38.991   2.785   8.527  0.00  0.00    +0.000 C 
ATOM     30  C   UNL     1      39.428   0.448   7.849  0.00  0.00    +0.000 C 
ENDBRANCH  24  27
ENDBRANCH  19  21
ENDBRANCH   6  18
TORSDOF 6
ENDMDL
MODEL 10
REMARK VINA RESULT:      -7.7      3.243      6.147
REMARK  Name = 
REMARK  6 active torsions:
REMARK  status: ('A' for Active; 'I' for Inactive)
REMARK    1  A    between atoms: C_2  and  N_3
REMARK    2  A    between atoms: C_2  and  C_25
REMARK    3  A    between atoms: C_4  and  C_6
REMARK    4  A    between atoms: C_11  and  N_12
REMARK    5  A    between atoms: C_13  and  C_15
REMARK    6  A    between atoms: C_18  and  C_19
REMARK                            x       y       z     vdW  Elec       q    Type
REMARK                         _______ _______ _______ _____ _____    ______ ____
ROOT
ATOM      1  C   UNL     1      36.451   2.222  14.231  0.00  0.00    +0.000 A 
ATOM      2  C   UNL     1      36.054   1.267  13.289  0.00  0.00    +0.000 A 
ATOM      3  C   UNL     1      36.831   0.140  13.076  0.00  0.00    +0.000 A 
ATOM      4  C   UNL     1      37.971  -0.053  13.769  0.00  0.00    +0.000 A 
ATOM      5  C   UNL     1      38.335   0.901  14.688  0.00  0.00    +0.000 A 
ATOM      6  C   UNL     1      37.607   2.035  14.937  0.00  0.00    +0.000 A 
ENDROOT
BRANCH   1   8
ATOM      7  N   UNL     1      35.846   4.548  13.683  0.00  0.00    +0.000 NA
ATOM      8  C   UNL     1      35.626   3.407  14.447  0.00  0.00    +0.000 C 
ATOM      9  O   UNL     1      34.733   3.384  15.306  0.00  0.00    +0.000 OA
BRANCH   7  11
ATOM     10  C   UNL     1      36.176   6.751  14.443  0.00  0.00    +0.000 C 
ATOM     11  C   UNL     1      34.898   5.788  13.982  0.00  0.00    +0.000 C 
BRANCH  11  12
ATOM     12  C   UNL     1      34.903   6.254  12.429  0.00  0.00    +0.000 A 
ATOM     13  C   UNL     1      35.868   5.858  11.623  0.00  0.00    +0.000 A 
ATOM     14  C   UNL     1      35.799   6.273  10.279  0.00  0.00    +0.000 A 
ATOM     15  C   UNL     1      34.762   7.059   9.854  0.00  0.00    +0.000 A 
ATOM     16  C   UNL     1      33.750   7.464  10.729  0.00  0.00    +0.000 A 
ATOM     17  C   UNL     1      33.861   7.039  12.008  0.00  0.00    +0.000 A 
ENDBRANCH  11  12
ENDBRANCH   7  11
ENDBRANCH   1   8
BRANCH   6  18
ATOM     18  N   UNL     1      38.103   2.939  15.919  0.00  0.00    +0.000 NA
ATOM     19  C   UNL     1      38.918   4.059  15.589  0.00  0.00    +0.000 C 
ATOM     20  O   UNL     1      39.141   4.155  14.343  0.00  0.00    +0.000 OA
BRANCH  19  21
ATOM     21  C   UNL     1      39.448   4.997  16.584  0.00  0.00    +0.000 A 
ATOM     22  C   UNL     1      40.435   5.938  16.387  0.00  0.00    +0.000 A 
ATOM     23  C   UNL     1      40.852   6.784  17.423  0.00  0.00    +0.000 A 
ATOM     24  C   UNL     1      40.303   6.725  18.676  0.00  0.00    +0.000 A 
ATOM     25  C   UNL     1      39.301   5.776  18.888  0.00  0.00    +0.000 A 
ATOM     26  C   UNL     1      38.924   4.961  17.855  0.00  0.00    +0.000 A 
BRANCH  24  27
ATOM     27  C   UNL     1      40.715   7.609  19.803  0.00  0.00    +0.000 C 
ATOM     28  C   UNL     1      41.180   8.913  19.255  0.00  0.00    +0.000 C 
ATOM     29  C   UNL     1      39.518   7.799  20.683  0.00  0.00    +0.000 C 
ATOM     30  C   UNL     1      41.844   6.966  20.604  0.00  0.00    +0.000 C 
ENDBRANCH  24  27
ENDBRANCH  19  21
ENDBRANCH   6  18
TORSDOF 6
ENDMDL
