MODEL 1
REMARK VINA RESULT:      -7.1      0.000      0.000
REMARK  Name = 
REMARK  2 active torsions:
REMARK  status: ('A' for Active; 'I' for Inactive)
REMARK    1  A    between atoms: C_5  and  O_6
REMARK    2  A    between atoms: O_6  and  C_7
REMARK                            x       y       z     vdW  Elec       q    Type
REMARK                         _______ _______ _______ _____ _____    ______ ____
ROOT
ATOM      1  C   UNL     1      28.185  23.348  23.422  0.00  0.00    +0.000 A 
ATOM      2  N   UNL     1      26.904  23.419  23.014  0.00  0.00    +0.000 NA
ATOM      3  C   UNL     1      25.861  23.157  23.783  0.00  0.00    +0.000 A 
ATOM      4  N   UNL     1      26.083  22.795  25.061  0.00  0.00    +0.000 NA
ATOM      5  C   UNL     1      27.362  22.714  25.500  0.00  0.00    +0.000 A 
ATOM      6  S   UNL     1      28.045  22.295  27.030  0.00  0.00    +0.000 S 
ATOM      7  C   UNL     1      29.696  22.466  26.648  0.00  0.00    +0.000 A 
ATOM      8  C   UNL     1      29.675  22.847  25.335  0.00  0.00    +0.000 A 
ATOM      9  C   UNL     1      28.464  22.973  24.746  0.00  0.00    +0.000 A 
ATOM     10  C   UNL     1      31.085  23.054  24.801  0.00  0.00    +0.000 C 
ATOM     11  C   UNL     1      31.702  24.094  25.719  0.00  0.00    +0.000 C 
ATOM     12  C   UNL     1      31.867  23.570  27.131  0.00  0.00    +0.000 C 
ATOM     13  C   UNL     1      31.022  22.321  27.318  0.00  0.00    +0.000 C 
ENDROOT
BRANCH   1  14
ATOM     14  O   UNL     1      29.186  23.647  22.519  0.00  0.00    +0.000 OA
BRANCH  14  19
ATOM     15  N   UNL     1      29.470  29.033  20.918  0.00  0.00    +0.000 NA
ATOM     16  C   UNL     1      29.400  27.670  21.279  0.00  0.00    +0.000 A 
ATOM     17  C   UNL     1      29.416  26.657  20.355  0.00  0.00    +0.000 A 
ATOM     18  C   UNL     1      29.345  25.345  20.772  0.00  0.00    +0.000 A 
ATOM     19  C   UNL     1      29.258  24.983  22.090  0.00  0.00    +0.000 A 
ATOM     20  C   UNL     1      29.243  26.015  23.032  0.00  0.00    +0.000 A 
ATOM     21  C   UNL     1      29.313  27.328  22.621  0.00  0.00    +0.000 A 
ENDBRANCH  14  19
ENDBRANCH   1  14
TORSDOF 2
ENDMDL
MODEL 2
REMARK VINA RESULT:      -6.7     20.233     21.903
REMARK  Name = 
REMARK  2 active torsions:
REMARK  status: ('A' for Active; 'I' for Inactive)
REMARK    1  A    between atoms: C_5  and  O_6
REMARK    2  A    between atoms: O_6  and  C_7
REMARK                            x       y       z     vdW  Elec       q    Type
REMARK                         _______ _______ _______ _____ _____    ______ ____
ROOT
ATOM      1  C   UNL     1      16.093  10.777  36.454  0.00  0.00    +0.000 A 
ATOM      2  N   UNL     1      15.543  10.847  37.680  0.00  0.00    +0.000 NA
ATOM      3  C   UNL     1      14.499  11.598  37.988  0.00  0.00    +0.000 A 
ATOM      4  N   UNL     1      13.941  12.346  37.018  0.00  0.00    +0.000 NA
ATOM      5  C   UNL     1      14.473  12.297  35.773  0.00  0.00    +0.000 A 
ATOM      6  S   UNL     1      14.056  13.086  34.295  0.00  0.00    +0.000 S 
ATOM      7  C   UNL     1      15.256  12.424  33.283  0.00  0.00    +0.000 A 
ATOM      8  C   UNL     1      15.954  11.602  34.123  0.00  0.00    +0.000 A 
ATOM      9  C   UNL     1      15.544  11.541  35.411  0.00  0.00    +0.000 A 
ATOM     10  C   UNL     1      17.091  10.906  33.390  0.00  0.00    +0.000 C 
ATOM     11  C   UNL     1      16.423  10.167  32.244  0.00  0.00    +0.000 C 
ATOM     12  C   UNL     1      15.809  11.124  31.242  0.00  0.00    +0.000 C 
ATOM     13  C   UNL     1      15.691  12.508  31.857  0.00  0.00    +0.000 C 
ENDROOT
BRANCH   1  14
ATOM     14  O   UNL     1      17.184   9.952  36.261  0.00  0.00    +0.000 OA
BRANCH  14  19
ATOM     15  N   UNL     1      21.974  11.758  38.594  0.00  0.00    +0.000 NA
ATOM     16  C   UNL     1      20.793  11.272  37.993  0.00  0.00    +0.000 A 
ATOM     17  C   UNL     1      20.759  10.116  37.254  0.00  0.00    +0.000 A 
ATOM     18  C   UNL     1      19.573   9.694  36.693  0.00  0.00    +0.000 A 
ATOM     19  C   UNL     1      18.395  10.378  36.832  0.00  0.00    +0.000 A 
ATOM     20  C   UNL     1      18.429  11.555  37.585  0.00  0.00    +0.000 A 
ATOM     21  C   UNL     1      19.612  11.983  38.148  0.00  0.00    +0.000 A 
ENDBRANCH  14  19
ENDBRANCH   1  14
TORSDOF 2
ENDMDL
MODEL 3
REMARK VINA RESULT:      -6.6      2.733      3.710
REMARK  Name = 
REMARK  2 active torsions:
REMARK  status: ('A' for Active; 'I' for Inactive)
REMARK    1  A    between atoms: C_5  and  O_6
REMARK    2  A    between atoms: O_6  and  C_7
REMARK                            x       y       z     vdW  Elec       q    Type
REMARK                         _______ _______ _______ _____ _____    ______ ____
ROOT
ATOM      1  C   UNL     1      25.918  23.854  26.133  0.00  0.00    +0.000 A 
ATOM      2  N   UNL     1      24.966  24.698  25.694  0.00  0.00    +0.000 NA
ATOM      3  C   UNL     1      24.465  25.693  26.407  0.00  0.00    +0.000 A 
ATOM      4  N   UNL     1      24.930  25.882  27.657  0.00  0.00    +0.000 NA
ATOM      5  C   UNL     1      25.888  25.048  28.127  0.00  0.00    +0.000 A 
ATOM      6  S   UNL     1      26.722  24.963  29.636  0.00  0.00    +0.000 S 
ATOM      7  C   UNL     1      27.723  23.621  29.320  0.00  0.00    +0.000 A 
ATOM      8  C   UNL     1      27.383  23.272  28.043  0.00  0.00    +0.000 A 
ATOM      9  C   UNL     1      26.432  24.014  27.430  0.00  0.00    +0.000 A 
ATOM     10  C   UNL     1      28.186  22.069  27.571  0.00  0.00    +0.000 C 
ATOM     11  C   UNL     1      29.638  22.488  27.713  0.00  0.00    +0.000 C 
ATOM     12  C   UNL     1      30.023  22.699  29.164  0.00  0.00    +0.000 C 
ATOM     13  C   UNL     1      28.770  22.816  30.016  0.00  0.00    +0.000 C 
ENDROOT
BRANCH   1  14
ATOM     14  O   UNL     1      26.359  22.854  25.289  0.00  0.00    +0.000 OA
BRANCH  14  19
ATOM     15  N   UNL     1      29.552  24.483  20.952  0.00  0.00    +0.000 NA
ATOM     16  C   UNL     1      28.716  24.079  22.016  0.00  0.00    +0.000 A 
ATOM     17  C   UNL     1      27.354  23.980  21.892  0.00  0.00    +0.000 A 
ATOM     18  C   UNL     1      26.593  23.579  22.969  0.00  0.00    +0.000 A 
ATOM     19  C   UNL     1      27.131  23.264  24.188  0.00  0.00    +0.000 A 
ATOM     20  C   UNL     1      28.519  23.363  24.314  0.00  0.00    +0.000 A 
ATOM     21  C   UNL     1      29.285  23.764  23.242  0.00  0.00    +0.000 A 
ENDBRANCH  14  19
ENDBRANCH   1  14
TORSDOF 2
ENDMDL
MODEL 4
REMARK VINA RESULT:      -6.6     20.287     22.232
REMARK  Name = 
REMARK  2 active torsions:
REMARK  status: ('A' for Active; 'I' for Inactive)
REMARK    1  A    between atoms: C_5  and  O_6
REMARK    2  A    between atoms: O_6  and  C_7
REMARK                            x       y       z     vdW  Elec       q    Type
REMARK                         _______ _______ _______ _____ _____    ______ ____
ROOT
ATOM      1  C   UNL     1      18.180   9.717  37.711  0.00  0.00    +0.000 A 
ATOM      2  N   UNL     1      18.336   9.214  38.949  0.00  0.00    +0.000 NA
ATOM      3  C   UNL     1      17.439   9.317  39.915  0.00  0.00    +0.000 A 
ATOM      4  N   UNL     1      16.288   9.966  39.652  0.00  0.00    +0.000 NA
ATOM      5  C   UNL     1      16.103  10.484  38.414  0.00  0.00    +0.000 A 
ATOM      6  S   UNL     1      14.799  11.362  37.701  0.00  0.00    +0.000 S 
ATOM      7  C   UNL     1      15.442  11.588  36.140  0.00  0.00    +0.000 A 
ATOM      8  C   UNL     1      16.660  10.972  36.212  0.00  0.00    +0.000 A 
ATOM      9  C   UNL     1      16.997  10.402  37.392  0.00  0.00    +0.000 A 
ATOM     10  C   UNL     1      17.403  11.068  34.888  0.00  0.00    +0.000 C 
ATOM     11  C   UNL     1      16.470  10.438  33.869  0.00  0.00    +0.000 C 
ATOM     12  C   UNL     1      15.202  11.248  33.692  0.00  0.00    +0.000 C 
ATOM     13  C   UNL     1      15.050  12.224  34.847  0.00  0.00    +0.000 C 
ENDROOT
BRANCH   1  14
ATOM     14  O   UNL     1      19.195   9.541  36.790  0.00  0.00    +0.000 OA
BRANCH  14  19
ATOM     15  N   UNL     1      24.156  11.949  37.906  0.00  0.00    +0.000 NA
ATOM     16  C   UNL     1      22.892  11.374  37.651  0.00  0.00    +0.000 A 
ATOM     17  C   UNL     1      21.732  11.863  38.195  0.00  0.00    +0.000 A 
ATOM     18  C   UNL     1      20.529  11.255  37.906  0.00  0.00    +0.000 A 
ATOM     19  C   UNL     1      20.420  10.163  37.087  0.00  0.00    +0.000 A 
ATOM     20  C   UNL     1      21.602   9.665  36.533  0.00  0.00    +0.000 A 
ATOM     21  C   UNL     1      22.808  10.267  36.817  0.00  0.00    +0.000 A 
ENDBRANCH  14  19
ENDBRANCH   1  14
TORSDOF 2
ENDMDL
MODEL 5
REMARK VINA RESULT:      -6.6     20.915     22.347
REMARK  Name = 
REMARK  2 active torsions:
REMARK  status: ('A' for Active; 'I' for Inactive)
REMARK    1  A    between atoms: C_5  and  O_6
REMARK    2  A    between atoms: O_6  and  C_7
REMARK                            x       y       z     vdW  Elec       q    Type
REMARK                         _______ _______ _______ _____ _____    ______ ____
ROOT
ATOM      1  C   UNL     1      15.303  11.763  36.684  0.00  0.00    +0.000 A 
ATOM      2  N   UNL     1      13.984  12.019  36.607  0.00  0.00    +0.000 NA
ATOM      3  C   UNL     1      13.094  11.626  37.502  0.00  0.00    +0.000 A 
ATOM      4  N   UNL     1      13.525  10.921  38.566  0.00  0.00    +0.000 NA
ATOM      5  C   UNL     1      14.848  10.647  38.671  0.00  0.00    +0.000 A 
ATOM      6  S   UNL     1      15.772   9.794  39.853  0.00  0.00    +0.000 S 
ATOM      7  C   UNL     1      17.320   9.959  39.163  0.00  0.00    +0.000 A 
ATOM      8  C   UNL     1      17.079  10.678  38.025  0.00  0.00    +0.000 A 
ATOM      9  C   UNL     1      15.798  11.031  37.775  0.00  0.00    +0.000 A 
ATOM     10  C   UNL     1      18.366  10.934  37.254  0.00  0.00    +0.000 C 
ATOM     11  C   UNL     1      19.274  11.650  38.237  0.00  0.00    +0.000 C 
ATOM     12  C   UNL     1      19.659  10.758  39.400  0.00  0.00    +0.000 C 
ATOM     13  C   UNL     1      18.728   9.559  39.458  0.00  0.00    +0.000 C 
ENDROOT
BRANCH   1  14
ATOM     14  O   UNL     1      16.129  12.231  35.681  0.00  0.00    +0.000 OA
BRANCH  14  19
ATOM     15  N   UNL     1      14.412  11.316  30.402  0.00  0.00    +0.000 NA
ATOM     16  C   UNL     1      14.864  11.508  31.726  0.00  0.00    +0.000 A 
ATOM     17  C   UNL     1      15.656  10.598  32.379  0.00  0.00    +0.000 A 
ATOM     18  C   UNL     1      16.063  10.845  33.672  0.00  0.00    +0.000 A 
ATOM     19  C   UNL     1      15.716  11.975  34.363  0.00  0.00    +0.000 A 
ATOM     20  C   UNL     1      14.910  12.903  33.697  0.00  0.00    +0.000 A 
ATOM     21  C   UNL     1      14.498  12.662  32.405  0.00  0.00    +0.000 A 
ENDBRANCH  14  19
ENDBRANCH   1  14
TORSDOF 2
ENDMDL
MODEL 6
REMARK VINA RESULT:      -6.4      2.404      3.699
REMARK  Name = 
REMARK  2 active torsions:
REMARK  status: ('A' for Active; 'I' for Inactive)
REMARK    1  A    between atoms: C_5  and  O_6
REMARK    2  A    between atoms: O_6  and  C_7
REMARK                            x       y       z     vdW  Elec       q    Type
REMARK                         _______ _______ _______ _____ _____    ______ ____
ROOT
ATOM      1  C   UNL     1      29.967  23.349  23.802  0.00  0.00    +0.000 A 
ATOM      2  N   UNL     1      29.708  23.822  22.569  0.00  0.00    +0.000 NA
ATOM      3  C   UNL     1      28.497  24.101  22.116  0.00  0.00    +0.000 A 
ATOM      4  N   UNL     1      27.446  23.903  22.935  0.00  0.00    +0.000 NA
ATOM      5  C   UNL     1      27.675  23.427  24.182  0.00  0.00    +0.000 A 
ATOM      6  S   UNL     1      26.623  23.049  25.498  0.00  0.00    +0.000 S 
ATOM      7  C   UNL     1      27.780  22.527  26.633  0.00  0.00    +0.000 A 
ATOM      8  C   UNL     1      28.962  22.661  25.958  0.00  0.00    +0.000 A 
ATOM      9  C   UNL     1      28.901  23.127  24.690  0.00  0.00    +0.000 A 
ATOM     10  C   UNL     1      30.139  22.235  26.823  0.00  0.00    +0.000 C 
ATOM     11  C   UNL     1      30.051  23.109  28.061  0.00  0.00    +0.000 C 
ATOM     12  C   UNL     1      28.809  22.808  28.875  0.00  0.00    +0.000 C 
ATOM     13  C   UNL     1      27.824  22.014  28.034  0.00  0.00    +0.000 C 
ENDROOT
BRANCH   1  14
ATOM     14  O   UNL     1      31.278  23.098  24.155  0.00  0.00    +0.000 OA
BRANCH  14  19
ATOM     15  N   UNL     1      34.234  27.620  25.726  0.00  0.00    +0.000 NA
ATOM     16  C   UNL     1      33.529  26.464  25.326  0.00  0.00    +0.000 A 
ATOM     17  C   UNL     1      34.157  25.295  24.980  0.00  0.00    +0.000 A 
ATOM     18  C   UNL     1      33.411  24.201  24.598  0.00  0.00    +0.000 A 
ATOM     19  C   UNL     1      32.043  24.211  24.543  0.00  0.00    +0.000 A 
ATOM     20  C   UNL     1      31.402  25.402  24.897  0.00  0.00    +0.000 A 
ATOM     21  C   UNL     1      32.142  26.499  25.279  0.00  0.00    +0.000 A 
ENDBRANCH  14  19
ENDBRANCH   1  14
TORSDOF 2
ENDMDL
MODEL 7
REMARK VINA RESULT:      -6.2      3.695      5.286
REMARK  Name = 
REMARK  2 active torsions:
REMARK  status: ('A' for Active; 'I' for Inactive)
REMARK    1  A    between atoms: C_5  and  O_6
REMARK    2  A    between atoms: O_6  and  C_7
REMARK                            x       y       z     vdW  Elec       q    Type
REMARK                         _______ _______ _______ _____ _____    ______ ____
ROOT
ATOM      1  C   UNL     1      26.445  23.752  26.324  0.00  0.00    +0.000 A 
ATOM      2  N   UNL     1      27.307  22.720  26.283  0.00  0.00    +0.000 NA
ATOM      3  C   UNL     1      27.830  22.141  27.351  0.00  0.00    +0.000 A 
ATOM      4  N   UNL     1      27.484  22.609  28.566  0.00  0.00    +0.000 NA
ATOM      5  C   UNL     1      26.619  23.649  28.639  0.00  0.00    +0.000 A 
ATOM      6  S   UNL     1      25.945  24.514  29.973  0.00  0.00    +0.000 S 
ATOM      7  C   UNL     1      24.982  25.629  29.119  0.00  0.00    +0.000 A 
ATOM      8  C   UNL     1      25.208  25.299  27.811  0.00  0.00    +0.000 A 
ATOM      9  C   UNL     1      26.056  24.273  27.569  0.00  0.00    +0.000 A 
ATOM     10  C   UNL     1      24.419  26.201  26.873  0.00  0.00    +0.000 C 
ATOM     11  C   UNL     1      22.971  26.031  27.294  0.00  0.00    +0.000 C 
ATOM     12  C   UNL     1      22.724  26.568  28.690  0.00  0.00    +0.000 C 
ATOM     13  C   UNL     1      24.049  26.757  29.409  0.00  0.00    +0.000 C 
ENDROOT
BRANCH   1  14
ATOM     14  O   UNL     1      25.969  24.268  25.135  0.00  0.00    +0.000 OA
BRANCH  14  19
ATOM     15  N   UNL     1      29.632  24.670  20.883  0.00  0.00    +0.000 NA
ATOM     16  C   UNL     1      28.738  24.595  21.973  0.00  0.00    +0.000 A 
ATOM     17  C   UNL     1      28.953  25.257  23.155  0.00  0.00    +0.000 A 
ATOM     18  C   UNL     1      28.040  25.142  24.182  0.00  0.00    +0.000 A 
ATOM     19  C   UNL     1      26.902  24.387  24.090  0.00  0.00    +0.000 A 
ATOM     20  C   UNL     1      26.683  23.713  22.886  0.00  0.00    +0.000 A 
ATOM     21  C   UNL     1      27.591  23.823  21.856  0.00  0.00    +0.000 A 
ENDBRANCH  14  19
ENDBRANCH   1  14
TORSDOF 2
ENDMDL
MODEL 8
REMARK VINA RESULT:      -6.1     21.498     24.691
REMARK  Name = 
REMARK  2 active torsions:
REMARK  status: ('A' for Active; 'I' for Inactive)
REMARK    1  A    between atoms: C_5  and  O_6
REMARK    2  A    between atoms: O_6  and  C_7
REMARK                            x       y       z     vdW  Elec       q    Type
REMARK                         _______ _______ _______ _____ _____    ______ ____
ROOT
ATOM      1  C   UNL     1      19.372   9.620  39.353  0.00  0.00    +0.000 A 
ATOM      2  N   UNL     1      20.441   9.514  40.164  0.00  0.00    +0.000 NA
ATOM      3  C   UNL     1      21.307  10.488  40.389  0.00  0.00    +0.000 A 
ATOM      4  N   UNL     1      21.115  11.669  39.770  0.00  0.00    +0.000 NA
ATOM      5  C   UNL     1      20.048  11.806  38.947  0.00  0.00    +0.000 A 
ATOM      6  S   UNL     1      19.472  13.125  37.995  0.00  0.00    +0.000 S 
ATOM      7  C   UNL     1      18.098  12.388  37.309  0.00  0.00    +0.000 A 
ATOM      8  C   UNL     1      18.122  11.129  37.840  0.00  0.00    +0.000 A 
ATOM      9  C   UNL     1      19.134  10.833  38.687  0.00  0.00    +0.000 A 
ATOM     10  C   UNL     1      16.950  10.299  37.336  0.00  0.00    +0.000 C 
ATOM     11  C   UNL     1      15.715  11.091  37.723  0.00  0.00    +0.000 C 
ATOM     12  C   UNL     1      15.637  12.410  36.981  0.00  0.00    +0.000 C 
ATOM     13  C   UNL     1      16.990  12.737  36.371  0.00  0.00    +0.000 C 
ENDROOT
BRANCH   1  14
ATOM     14  O   UNL     1      18.542   8.527  39.203  0.00  0.00    +0.000 OA
BRANCH  14  19
ATOM     15  N   UNL     1      15.348   7.124  43.618  0.00  0.00    +0.000 NA
ATOM     16  C   UNL     1      16.131   7.515  42.510  0.00  0.00    +0.000 A 
ATOM     17  C   UNL     1      16.036   8.757  41.935  0.00  0.00    +0.000 A 
ATOM     18  C   UNL     1      16.829   9.077  40.854  0.00  0.00    +0.000 A 
ATOM     19  C   UNL     1      17.731   8.205  40.305  0.00  0.00    +0.000 A 
ATOM     20  C   UNL     1      17.828   6.939  40.890  0.00  0.00    +0.000 A 
ATOM     21  C   UNL     1      17.038   6.613  41.970  0.00  0.00    +0.000 A 
ENDBRANCH  14  19
ENDBRANCH   1  14
TORSDOF 2
ENDMDL
MODEL 9
REMARK VINA RESULT:      -6.0     20.824     23.130
REMARK  Name = 
REMARK  2 active torsions:
REMARK  status: ('A' for Active; 'I' for Inactive)
REMARK    1  A    between atoms: C_5  and  O_6
REMARK    2  A    between atoms: O_6  and  C_7
REMARK                            x       y       z     vdW  Elec       q    Type
REMARK                         _______ _______ _______ _____ _____    ______ ____
ROOT
ATOM      1  C   UNL     1      18.921   9.683  37.894  0.00  0.00    +0.000 A 
ATOM      2  N   UNL     1      19.943   9.905  37.048  0.00  0.00    +0.000 NA
ATOM      3  C   UNL     1      21.170  10.222  37.427  0.00  0.00    +0.000 A 
ATOM      4  N   UNL     1      21.423  10.334  38.745  0.00  0.00    +0.000 NA
ATOM      5  C   UNL     1      20.413  10.118  39.621  0.00  0.00    +0.000 A 
ATOM      6  S   UNL     1      20.336  10.163  41.346  0.00  0.00    +0.000 S 
ATOM      7  C   UNL     1      18.693   9.764  41.557  0.00  0.00    +0.000 A 
ATOM      8  C   UNL     1      18.244   9.605  40.275  0.00  0.00    +0.000 A 
ATOM      9  C   UNL     1      19.139   9.789  39.278  0.00  0.00    +0.000 A 
ATOM     10  C   UNL     1      16.767   9.239  40.253  0.00  0.00    +0.000 C 
ATOM     11  C   UNL     1      16.665   7.975  41.088  0.00  0.00    +0.000 C 
ATOM     12  C   UNL     1      17.007   8.232  42.541  0.00  0.00    +0.000 C 
ATOM     13  C   UNL     1      17.723   9.566  42.673  0.00  0.00    +0.000 C 
ENDROOT
BRANCH   1  14
ATOM     14  O   UNL     1      17.685   9.357  37.371  0.00  0.00    +0.000 OA
BRANCH  14  19
ATOM     15  N   UNL     1      16.286  11.861  32.531  0.00  0.00    +0.000 NA
ATOM     16  C   UNL     1      16.619  11.265  33.767  0.00  0.00    +0.000 A 
ATOM     17  C   UNL     1      16.315  11.841  34.973  0.00  0.00    +0.000 A 
ATOM     18  C   UNL     1      16.668  11.208  36.146  0.00  0.00    +0.000 A 
ATOM     19  C   UNL     1      17.323  10.006  36.179  0.00  0.00    +0.000 A 
ATOM     20  C   UNL     1      17.632   9.418  34.949  0.00  0.00    +0.000 A 
ATOM     21  C   UNL     1      17.282  10.046  33.773  0.00  0.00    +0.000 A 
ENDBRANCH  14  19
ENDBRANCH   1  14
TORSDOF 2
ENDMDL
MODEL 10
REMARK VINA RESULT:      -6.0     28.141     30.768
REMARK  Name = 
REMARK  2 active torsions:
REMARK  status: ('A' for Active; 'I' for Inactive)
REMARK    1  A    between atoms: C_5  and  O_6
REMARK    2  A    between atoms: O_6  and  C_7
REMARK                            x       y       z     vdW  Elec       q    Type
REMARK                         _______ _______ _______ _____ _____    ______ ____
ROOT
ATOM      1  C   UNL     1      32.758  -5.394  34.002  0.00  0.00    +0.000 A 
ATOM      2  N   UNL     1      31.990  -5.603  35.086  0.00  0.00    +0.000 NA
ATOM      3  C   UNL     1      30.808  -6.196  35.061  0.00  0.00    +0.000 A 
ATOM      4  N   UNL     1      30.332  -6.622  33.875  0.00  0.00    +0.000 NA
ATOM      5  C   UNL     1      31.083  -6.425  32.765  0.00  0.00    +0.000 A 
ATOM      6  S   UNL     1      30.832  -6.817  31.103  0.00  0.00    +0.000 S 
ATOM      7  C   UNL     1      32.280  -6.200  30.453  0.00  0.00    +0.000 A 
ATOM      8  C   UNL     1      32.927  -5.703  31.551  0.00  0.00    +0.000 A 
ATOM      9  C   UNL     1      32.302  -5.822  32.744  0.00  0.00    +0.000 A 
ATOM     10  C   UNL     1      34.269  -5.095  31.169  0.00  0.00    +0.000 C 
ATOM     11  C   UNL     1      35.025  -6.219  30.483  0.00  0.00    +0.000 C 
ATOM     12  C   UNL     1      34.368  -6.625  29.179  0.00  0.00    +0.000 C 
ATOM     13  C   UNL     1      32.952  -6.078  29.125  0.00  0.00    +0.000 C 
ENDROOT
BRANCH   1  14
ATOM     14  O   UNL     1      33.976  -4.763  34.163  0.00  0.00    +0.000 OA
BRANCH  14  19
ATOM     15  N   UNL     1      33.757   0.721  35.403  0.00  0.00    +0.000 NA
ATOM     16  C   UNL     1      33.825  -0.663  35.132  0.00  0.00    +0.000 A 
ATOM     17  C   UNL     1      34.192  -1.587  36.077  0.00  0.00    +0.000 A 
ATOM     18  C   UNL     1      34.238  -2.925  35.749  0.00  0.00    +0.000 A 
ATOM     19  C   UNL     1      33.931  -3.400  34.502  0.00  0.00    +0.000 A 
ATOM     20  C   UNL     1      33.556  -2.459  33.539  0.00  0.00    +0.000 A 
ATOM     21  C   UNL     1      33.508  -1.120  33.860  0.00  0.00    +0.000 A 
ENDBRANCH  14  19
ENDBRANCH   1  14
TORSDOF 2
ENDMDL
