MODEL 1
REMARK VINA RESULT:      -8.7      0.000      0.000
REMARK  Name = 
REMARK  6 active torsions:
REMARK  status: ('A' for Active; 'I' for Inactive)
REMARK    1  A    between atoms: O_2  and  C_3
REMARK    2  A    between atoms: C_6  and  C_7
REMARK    3  A    between atoms: C_9  and  C_10
REMARK    4  A    between atoms: N_12  and  C_13
REMARK    5  A    between atoms: C_13  and  C_15
REMARK    6  A    between atoms: C_23  and  C_24
REMARK                            x       y       z     vdW  Elec       q    Type
REMARK                         _______ _______ _______ _____ _____    ______ ____
ROOT
ATOM      1  C   UNL     1      38.447   4.844  16.929  0.00  0.00    +0.000 A 
ATOM      2  C   UNL     1      37.376   3.969  17.139  0.00  0.00    +0.000 A 
ATOM      3  C   UNL     1      37.116   2.929  16.297  0.00  0.00    +0.000 A 
ATOM      4  C   UNL     1      37.936   2.736  15.200  0.00  0.00    +0.000 A 
ATOM      5  C   UNL     1      37.689   1.696  14.322  0.00  0.00    +0.000 A 
ATOM      6  C   UNL     1      38.537   1.555  13.227  0.00  0.00    +0.000 A 
ATOM      7  C   UNL     1      39.598   2.424  13.010  0.00  0.00    +0.000 A 
ATOM      8  C   UNL     1      39.810   3.441  13.906  0.00  0.00    +0.000 A 
ATOM      9  C   UNL     1      38.990   3.619  15.007  0.00  0.00    +0.000 A 
ATOM     10  N   UNL     1      39.198   4.621  15.873  0.00  0.00    +0.000 NA
ENDROOT
BRANCH   1  14
ATOM     11  C   UNL     1      39.209   7.793  19.773  0.00  0.00    +0.000 A 
ATOM     12  C   UNL     1      39.862   6.588  19.823  0.00  0.00    +0.000 A 
ATOM     13  C   UNL     1      39.661   5.593  18.910  0.00  0.00    +0.000 A 
ATOM     14  C   UNL     1      38.706   5.891  17.881  0.00  0.00    +0.000 A 
ATOM     15  C   UNL     1      38.059   7.064  17.816  0.00  0.00    +0.000 A 
ATOM     16  C   UNL     1      38.286   8.069  18.766  0.00  0.00    +0.000 A 
BRANCH  11  18
ATOM     17  C   UNL     1      38.648   9.797  21.002  0.00  0.00    +0.000 C 
ATOM     18  O   UNL     1      39.504   8.712  20.757  0.00  0.00    +0.000 OA
ENDBRANCH  11  18
ENDBRANCH   1  14
BRANCH   3  19
ATOM     19  C   UNL     1      36.083   1.898  16.636  0.00  0.00    +0.000 C 
ATOM     20  O   UNL     1      34.860   2.211  16.491  0.00  0.00    +0.000 OA
ATOM     21  N   UNL     1      36.457   0.671  17.098  0.00  0.00    +0.000 NA
BRANCH  21  22
ATOM     22  C   UNL     1      35.798  -0.556  17.528  0.00  0.00    +0.000 C 
ATOM     23  C   UNL     1      35.548  -1.219  16.054  0.00  0.00    +0.000 C 
BRANCH  22  24
ATOM     24  C   UNL     1      36.853  -1.472  18.090  0.00  0.00    +0.000 A 
ATOM     25  C   UNL     1      36.964  -1.714  19.450  0.00  0.00    +0.000 A 
ATOM     26  C   UNL     1      37.886  -2.568  19.980  0.00  0.00    +0.000 A 
ATOM     27  C   UNL     1      38.788  -3.251  19.133  0.00  0.00    +0.000 A 
ATOM     28  C   UNL     1      38.665  -2.992  17.759  0.00  0.00    +0.000 A 
ATOM     29  C   UNL     1      37.728  -2.132  17.268  0.00  0.00    +0.000 A 
ENDBRANCH  22  24
ENDBRANCH  21  22
ENDBRANCH   3  19
BRANCH   6  30
ATOM     30  C   UNL     1      38.245   0.441  12.296  0.00  0.00    +0.000 C 
ATOM     31  C   UNL     1      37.988  -0.849  13.057  0.00  0.00    +0.000 C 
ATOM     32  C   UNL     1      37.120   0.785  11.358  0.00  0.00    +0.000 C 
ENDBRANCH   6  30
TORSDOF 6
ENDMDL
MODEL 2
REMARK VINA RESULT:      -8.5      4.043      8.510
REMARK  Name = 
REMARK  6 active torsions:
REMARK  status: ('A' for Active; 'I' for Inactive)
REMARK    1  A    between atoms: O_2  and  C_3
REMARK    2  A    between atoms: C_6  and  C_7
REMARK    3  A    between atoms: C_9  and  C_10
REMARK    4  A    between atoms: N_12  and  C_13
REMARK    5  A    between atoms: C_13  and  C_15
REMARK    6  A    between atoms: C_23  and  C_24
REMARK                            x       y       z     vdW  Elec       q    Type
REMARK                         _______ _______ _______ _____ _____    ______ ____
ROOT
ATOM      1  C   UNL     1      40.708  -1.565  14.662  0.00  0.00    +0.000 A 
ATOM      2  C   UNL     1      40.050  -0.437  14.162  0.00  0.00    +0.000 A 
ATOM      3  C   UNL     1      38.845  -0.028  14.648  0.00  0.00    +0.000 A 
ATOM      4  C   UNL     1      38.253  -0.754  15.666  0.00  0.00    +0.000 A 
ATOM      5  C   UNL     1      37.025  -0.369  16.171  0.00  0.00    +0.000 A 
ATOM      6  C   UNL     1      36.468  -1.143  17.186  0.00  0.00    +0.000 A 
ATOM      7  C   UNL     1      37.113  -2.268  17.682  0.00  0.00    +0.000 A 
ATOM      8  C   UNL     1      38.331  -2.614  17.156  0.00  0.00    +0.000 A 
ATOM      9  C   UNL     1      38.920  -1.874  16.144  0.00  0.00    +0.000 A 
ATOM     10  N   UNL     1      40.107  -2.224  15.628  0.00  0.00    +0.000 NA
ENDROOT
BRANCH   1  14
ATOM     11  C   UNL     1      44.424  -2.698  13.154  0.00  0.00    +0.000 A 
ATOM     12  C   UNL     1      43.267  -3.214  12.625  0.00  0.00    +0.000 A 
ATOM     13  C   UNL     1      42.025  -2.867  13.072  0.00  0.00    +0.000 A 
ATOM     14  C   UNL     1      42.005  -1.918  14.148  0.00  0.00    +0.000 A 
ATOM     15  C   UNL     1      43.125  -1.403  14.675  0.00  0.00    +0.000 A 
ATOM     16  C   UNL     1      44.388  -1.775  14.196  0.00  0.00    +0.000 A 
BRANCH  11  18
ATOM     17  C   UNL     1      45.700  -4.388  11.989  0.00  0.00    +0.000 C 
ATOM     18  O   UNL     1      45.615  -3.133  12.610  0.00  0.00    +0.000 OA
ENDBRANCH  11  18
ENDBRANCH   1  14
BRANCH   3  19
ATOM     19  C   UNL     1      38.246   1.281  14.231  0.00  0.00    +0.000 C 
ATOM     20  O   UNL     1      37.595   1.316  13.140  0.00  0.00    +0.000 OA
ATOM     21  N   UNL     1      38.412   2.394  15.001  0.00  0.00    +0.000 NA
BRANCH  21  22
ATOM     22  C   UNL     1      38.016   3.796  14.954  0.00  0.00    +0.000 C 
ATOM     23  C   UNL     1      36.496   3.632  15.532  0.00  0.00    +0.000 C 
BRANCH  22  24
ATOM     24  C   UNL     1      38.694   4.505  16.096  0.00  0.00    +0.000 A 
ATOM     25  C   UNL     1      39.758   5.370  15.894  0.00  0.00    +0.000 A 
ATOM     26  C   UNL     1      40.363   6.051  16.908  0.00  0.00    +0.000 A 
ATOM     27  C   UNL     1      39.915   5.889  18.238  0.00  0.00    +0.000 A 
ATOM     28  C   UNL     1      38.839   5.007  18.426  0.00  0.00    +0.000 A 
ATOM     29  C   UNL     1      38.259   4.344  17.386  0.00  0.00    +0.000 A 
ENDBRANCH  22  24
ENDBRANCH  21  22
ENDBRANCH   3  19
BRANCH   6  30
ATOM     30  C   UNL     1      35.146  -0.717  17.701  0.00  0.00    +0.000 C 
ATOM     31  C   UNL     1      34.836   0.712  17.285  0.00  0.00    +0.000 C 
ATOM     32  C   UNL     1      34.060  -1.678  17.301  0.00  0.00    +0.000 C 
ENDBRANCH   6  30
TORSDOF 6
ENDMDL
MODEL 3
REMARK VINA RESULT:      -8.1      3.759      4.257
REMARK  Name = 
REMARK  6 active torsions:
REMARK  status: ('A' for Active; 'I' for Inactive)
REMARK    1  A    between atoms: O_2  and  C_3
REMARK    2  A    between atoms: C_6  and  C_7
REMARK    3  A    between atoms: C_9  and  C_10
REMARK    4  A    between atoms: N_12  and  C_13
REMARK    5  A    between atoms: C_13  and  C_15
REMARK    6  A    between atoms: C_23  and  C_24
REMARK                            x       y       z     vdW  Elec       q    Type
REMARK                         _______ _______ _______ _____ _____    ______ ____
ROOT
ATOM      1  C   UNL     1      36.021   3.853  13.826  0.00  0.00    +0.000 A 
ATOM      2  C   UNL     1      35.811   3.199  15.044  0.00  0.00    +0.000 A 
ATOM      3  C   UNL     1      36.297   1.949  15.287  0.00  0.00    +0.000 A 
ATOM      4  C   UNL     1      37.016   1.307  14.295  0.00  0.00    +0.000 A 
ATOM      5  C   UNL     1      37.510   0.033  14.509  0.00  0.00    +0.000 A 
ATOM      6  C   UNL     1      38.215  -0.573  13.472  0.00  0.00    +0.000 A 
ATOM      7  C   UNL     1      38.421   0.069  12.259  0.00  0.00    +0.000 A 
ATOM      8  C   UNL     1      37.916   1.333  12.087  0.00  0.00    +0.000 A 
ATOM      9  C   UNL     1      37.207   1.971  13.090  0.00  0.00    +0.000 A 
ATOM     10  N   UNL     1      36.708   3.203  12.913  0.00  0.00    +0.000 NA
ENDROOT
BRANCH   1  14
ATOM     11  C   UNL     1      34.717   7.777  13.307  0.00  0.00    +0.000 A 
ATOM     12  C   UNL     1      35.871   7.338  12.708  0.00  0.00    +0.000 A 
ATOM     13  C   UNL     1      36.336   6.060  12.833  0.00  0.00    +0.000 A 
ATOM     14  C   UNL     1      35.531   5.194  13.646  0.00  0.00    +0.000 A 
ATOM     15  C   UNL     1      34.400   5.606  14.237  0.00  0.00    +0.000 A 
ATOM     16  C   UNL     1      33.944   6.923  14.091  0.00  0.00    +0.000 A 
BRANCH  11  18
ATOM     17  C   UNL     1      34.143   9.953  14.185  0.00  0.00    +0.000 C 
ATOM     18  O   UNL     1      34.359   9.093  13.099  0.00  0.00    +0.000 OA
ENDBRANCH  11  18
ENDBRANCH   1  14
BRANCH   3  19
ATOM     19  C   UNL     1      36.222   1.342  16.655  0.00  0.00    +0.000 C 
ATOM     20  O   UNL     1      36.813   1.943  17.606  0.00  0.00    +0.000 OA
ATOM     21  N   UNL     1      35.549   0.173  16.857  0.00  0.00    +0.000 NA
BRANCH  21  22
ATOM     22  C   UNL     1      35.256  -0.713  17.976  0.00  0.00    +0.000 C 
ATOM     23  C   UNL     1      34.040  -1.564  17.292  0.00  0.00    +0.000 C 
BRANCH  22  24
ATOM     24  C   UNL     1      36.346  -1.750  18.041  0.00  0.00    +0.000 A 
ATOM     25  C   UNL     1      36.343  -2.868  17.222  0.00  0.00    +0.000 A 
ATOM     26  C   UNL     1      37.337  -3.801  17.236  0.00  0.00    +0.000 A 
ATOM     27  C   UNL     1      38.433  -3.656  18.115  0.00  0.00    +0.000 A 
ATOM     28  C   UNL     1      38.419  -2.520  18.941  0.00  0.00    +0.000 A 
ATOM     29  C   UNL     1      37.407  -1.609  18.896  0.00  0.00    +0.000 A 
ENDBRANCH  22  24
ENDBRANCH  21  22
ENDBRANCH   3  19
BRANCH   6  30
ATOM     30  C   UNL     1      38.725  -1.941  13.722  0.00  0.00    +0.000 C 
ATOM     31  C   UNL     1      39.531  -1.993  15.009  0.00  0.00    +0.000 C 
ATOM     32  C   UNL     1      37.615  -2.956  13.701  0.00  0.00    +0.000 C 
ENDBRANCH   6  30
TORSDOF 6
ENDMDL
MODEL 4
REMARK VINA RESULT:      -8.1     24.356     27.653
REMARK  Name = 
REMARK  6 active torsions:
REMARK  status: ('A' for Active; 'I' for Inactive)
REMARK    1  A    between atoms: O_2  and  C_3
REMARK    2  A    between atoms: C_6  and  C_7
REMARK    3  A    between atoms: C_9  and  C_10
REMARK    4  A    between atoms: N_12  and  C_13
REMARK    5  A    between atoms: C_13  and  C_15
REMARK    6  A    between atoms: C_23  and  C_24
REMARK                            x       y       z     vdW  Elec       q    Type
REMARK                         _______ _______ _______ _____ _____    ______ ____
ROOT
ATOM      1  C   UNL     1      12.106  -2.694  26.366  0.00  0.00    +0.000 A 
ATOM      2  C   UNL     1      13.253  -2.002  26.770  0.00  0.00    +0.000 A 
ATOM      3  C   UNL     1      13.274  -0.645  26.891  0.00  0.00    +0.000 A 
ATOM      4  C   UNL     1      12.126   0.070  26.602  0.00  0.00    +0.000 A 
ATOM      5  C   UNL     1      12.122   1.449  26.705  0.00  0.00    +0.000 A 
ATOM      6  C   UNL     1      10.943   2.121  26.389  0.00  0.00    +0.000 A 
ATOM      7  C   UNL     1       9.804   1.441  25.981  0.00  0.00    +0.000 A 
ATOM      8  C   UNL     1       9.849   0.073  25.894  0.00  0.00    +0.000 A 
ATOM      9  C   UNL     1      11.000  -0.635  26.196  0.00  0.00    +0.000 A 
ATOM     10  N   UNL     1      11.040  -1.972  26.100  0.00  0.00    +0.000 NA
ENDROOT
BRANCH   1  14
ATOM     11  C   UNL     1      12.057  -6.855  26.149  0.00  0.00    +0.000 A 
ATOM     12  C   UNL     1      11.502  -6.095  25.150  0.00  0.00    +0.000 A 
ATOM     13  C   UNL     1      11.503  -4.730  25.164  0.00  0.00    +0.000 A 
ATOM     14  C   UNL     1      12.126  -4.131  26.309  0.00  0.00    +0.000 A 
ATOM     15  C   UNL     1      12.675  -4.858  27.293  0.00  0.00    +0.000 A 
ATOM     16  C   UNL     1      12.662  -6.258  27.253  0.00  0.00    +0.000 A 
BRANCH  11  18
ATOM     17  C   UNL     1      12.873  -9.058  26.713  0.00  0.00    +0.000 C 
ATOM     18  O   UNL     1      11.989  -8.225  26.012  0.00  0.00    +0.000 OA
ENDBRANCH  11  18
ENDBRANCH   1  14
BRANCH   3  19
ATOM     19  C   UNL     1      14.448   0.059  27.500  0.00  0.00    +0.000 C 
ATOM     20  O   UNL     1      14.364   0.412  28.718  0.00  0.00    +0.000 OA
ATOM     21  N   UNL     1      15.561   0.319  26.755  0.00  0.00    +0.000 NA
BRANCH  21  22
ATOM     22  C   UNL     1      16.856   0.956  26.954  0.00  0.00    +0.000 C 
ATOM     23  C   UNL     1      17.313   0.147  28.300  0.00  0.00    +0.000 C 
BRANCH  22  24
ATOM     24  C   UNL     1      17.808   0.395  25.932  0.00  0.00    +0.000 A 
ATOM     25  C   UNL     1      17.955  -0.970  25.739  0.00  0.00    +0.000 A 
ATOM     26  C   UNL     1      18.783  -1.501  24.795  0.00  0.00    +0.000 A 
ATOM     27  C   UNL     1      19.542  -0.652  23.959  0.00  0.00    +0.000 A 
ATOM     28  C   UNL     1      19.384   0.727  24.169  0.00  0.00    +0.000 A 
ATOM     29  C   UNL     1      18.545   1.220  25.123  0.00  0.00    +0.000 A 
ENDBRANCH  22  24
ENDBRANCH  21  22
ENDBRANCH   3  19
BRANCH   6  30
ATOM     30  C   UNL     1      10.968   3.598  26.496  0.00  0.00    +0.000 C 
ATOM     31  C   UNL     1       9.770   4.105  27.283  0.00  0.00    +0.000 C 
ATOM     32  C   UNL     1      12.273   4.089  27.061  0.00  0.00    +0.000 C 
ENDBRANCH   6  30
TORSDOF 6
ENDMDL
MODEL 5
REMARK VINA RESULT:      -8.1      3.073      4.435
REMARK  Name = 
REMARK  6 active torsions:
REMARK  status: ('A' for Active; 'I' for Inactive)
REMARK    1  A    between atoms: O_2  and  C_3
REMARK    2  A    between atoms: C_6  and  C_7
REMARK    3  A    between atoms: C_9  and  C_10
REMARK    4  A    between atoms: N_12  and  C_13
REMARK    5  A    between atoms: C_13  and  C_15
REMARK    6  A    between atoms: C_23  and  C_24
REMARK                            x       y       z     vdW  Elec       q    Type
REMARK                         _______ _______ _______ _____ _____    ______ ____
ROOT
ATOM      1  C   UNL     1      39.503   6.052  17.232  0.00  0.00    +0.000 A 
ATOM      2  C   UNL     1      38.807   4.840  17.219  0.00  0.00    +0.000 A 
ATOM      3  C   UNL     1      37.802   4.592  16.333  0.00  0.00    +0.000 A 
ATOM      4  C   UNL     1      37.459   5.574  15.420  0.00  0.00    +0.000 A 
ATOM      5  C   UNL     1      36.435   5.354  14.517  0.00  0.00    +0.000 A 
ATOM      6  C   UNL     1      36.121   6.381  13.629  0.00  0.00    +0.000 A 
ATOM      7  C   UNL     1      36.804   7.589  13.642  0.00  0.00    +0.000 A 
ATOM      8  C   UNL     1      37.815   7.765  14.552  0.00  0.00    +0.000 A 
ATOM      9  C   UNL     1      38.158   6.772  15.454  0.00  0.00    +0.000 A 
ATOM     10  N   UNL     1      39.141   6.955  16.348  0.00  0.00    +0.000 NA
ENDROOT
BRANCH   1  14
ATOM     11  C   UNL     1      42.582   6.643  19.978  0.00  0.00    +0.000 A 
ATOM     12  C   UNL     1      41.301   6.399  20.404  0.00  0.00    +0.000 A 
ATOM     13  C   UNL     1      40.258   6.184  19.549  0.00  0.00    +0.000 A 
ATOM     14  C   UNL     1      40.592   6.236  18.155  0.00  0.00    +0.000 A 
ATOM     15  C   UNL     1      41.839   6.472  17.720  0.00  0.00    +0.000 A 
ATOM     16  C   UNL     1      42.891   6.687  18.620  0.00  0.00    +0.000 A 
BRANCH  11  18
ATOM     17  C   UNL     1      44.618   5.951  21.080  0.00  0.00    +0.000 C 
ATOM     18  O   UNL     1      43.543   6.842  20.947  0.00  0.00    +0.000 OA
ENDBRANCH  11  18
ENDBRANCH   1  14
BRANCH   3  19
ATOM     19  C   UNL     1      37.195   3.228  16.212  0.00  0.00    +0.000 C 
ATOM     20  O   UNL     1      36.098   3.008  16.816  0.00  0.00    +0.000 OA
ATOM     21  N   UNL     1      37.816   2.256  15.484  0.00  0.00    +0.000 NA
BRANCH  21  22
ATOM     22  C   UNL     1      37.575   0.862  15.134  0.00  0.00    +0.000 C 
ATOM     23  C   UNL     1      36.952   1.096  13.642  0.00  0.00    +0.000 C 
BRANCH  22  24
ATOM     24  C   UNL     1      38.903   0.233  14.807  0.00  0.00    +0.000 A 
ATOM     25  C   UNL     1      39.945   0.964  14.257  0.00  0.00    +0.000 A 
ATOM     26  C   UNL     1      41.168   0.426  13.986  0.00  0.00    +0.000 A 
ATOM     27  C   UNL     1      41.420  -0.937  14.262  0.00  0.00    +0.000 A 
ATOM     28  C   UNL     1      40.353  -1.664  14.815  0.00  0.00    +0.000 A 
ATOM     29  C   UNL     1      39.145  -1.089  15.072  0.00  0.00    +0.000 A 
ENDBRANCH  22  24
ENDBRANCH  21  22
ENDBRANCH   3  19
BRANCH   6  30
ATOM     30  C   UNL     1      35.013   6.126  12.680  0.00  0.00    +0.000 C 
ATOM     31  C   UNL     1      33.759   6.879  13.094  0.00  0.00    +0.000 C 
ATOM     32  C   UNL     1      35.419   6.428  11.263  0.00  0.00    +0.000 C 
ENDBRANCH   6  30
TORSDOF 6
ENDMDL
MODEL 6
REMARK VINA RESULT:      -8.0      3.090      4.507
REMARK  Name = 
REMARK  6 active torsions:
REMARK  status: ('A' for Active; 'I' for Inactive)
REMARK    1  A    between atoms: O_2  and  C_3
REMARK    2  A    between atoms: C_6  and  C_7
REMARK    3  A    between atoms: C_9  and  C_10
REMARK    4  A    between atoms: N_12  and  C_13
REMARK    5  A    between atoms: C_13  and  C_15
REMARK    6  A    between atoms: C_23  and  C_24
REMARK                            x       y       z     vdW  Elec       q    Type
REMARK                         _______ _______ _______ _____ _____    ______ ____
ROOT
ATOM      1  C   UNL     1      39.477   6.056  16.916  0.00  0.00    +0.000 A 
ATOM      2  C   UNL     1      39.335   4.830  16.259  0.00  0.00    +0.000 A 
ATOM      3  C   UNL     1      38.391   4.629  15.297  0.00  0.00    +0.000 A 
ATOM      4  C   UNL     1      37.544   5.672  14.964  0.00  0.00    +0.000 A 
ATOM      5  C   UNL     1      36.568   5.493  14.001  0.00  0.00    +0.000 A 
ATOM      6  C   UNL     1      35.734   6.571  13.714  0.00  0.00    +0.000 A 
ATOM      7  C   UNL     1      35.866   7.788  14.367  0.00  0.00    +0.000 A 
ATOM      8  C   UNL     1      36.848   7.925  15.314  0.00  0.00    +0.000 A 
ATOM      9  C   UNL     1      37.697   6.879  15.633  0.00  0.00    +0.000 A 
ATOM     10  N   UNL     1      38.649   7.016  16.567  0.00  0.00    +0.000 NA
ENDROOT
BRANCH   1  14
ATOM     11  C   UNL     1      42.444   6.604  19.790  0.00  0.00    +0.000 A 
ATOM     12  C   UNL     1      41.149   6.344  20.161  0.00  0.00    +0.000 A 
ATOM     13  C   UNL     1      40.142   6.142  19.262  0.00  0.00    +0.000 A 
ATOM     14  C   UNL     1      40.528   6.226  17.883  0.00  0.00    +0.000 A 
ATOM     15  C   UNL     1      41.789   6.478  17.502  0.00  0.00    +0.000 A 
ATOM     16  C   UNL     1      42.805   6.679  18.446  0.00  0.00    +0.000 A 
BRANCH  11  18
ATOM     17  C   UNL     1      43.687   5.737  21.672  0.00  0.00    +0.000 C 
ATOM     18  O   UNL     1      43.366   6.788  20.799  0.00  0.00    +0.000 OA
ENDBRANCH  11  18
ENDBRANCH   1  14
BRANCH   3  19
ATOM     19  C   UNL     1      38.374   3.375  14.478  0.00  0.00    +0.000 C 
ATOM     20  O   UNL     1      39.059   3.354  13.408  0.00  0.00    +0.000 OA
ATOM     21  N   UNL     1      37.632   2.301  14.873  0.00  0.00    +0.000 NA
BRANCH  21  22
ATOM     22  C   UNL     1      37.350   0.957  14.384  0.00  0.00    +0.000 C 
ATOM     23  C   UNL     1      38.753   0.245  14.828  0.00  0.00    +0.000 C 
BRANCH  22  24
ATOM     24  C   UNL     1      36.376   0.316  15.335  0.00  0.00    +0.000 A 
ATOM     25  C   UNL     1      36.203  -1.058  15.391  0.00  0.00    +0.000 A 
ATOM     26  C   UNL     1      35.354  -1.665  16.269  0.00  0.00    +0.000 A 
ATOM     27  C   UNL     1      34.598  -0.888  17.175  0.00  0.00    +0.000 A 
ATOM     28  C   UNL     1      34.782   0.502  17.103  0.00  0.00    +0.000 A 
ATOM     29  C   UNL     1      35.641   1.070  16.212  0.00  0.00    +0.000 A 
ENDBRANCH  22  24
ENDBRANCH  21  22
ENDBRANCH   3  19
BRANCH   6  30
ATOM     30  C   UNL     1      34.690   6.351  12.687  0.00  0.00    +0.000 C 
ATOM     31  C   UNL     1      33.393   7.043  13.074  0.00  0.00    +0.000 C 
ATOM     32  C   UNL     1      35.166   6.756  11.318  0.00  0.00    +0.000 C 
ENDBRANCH   6  30
TORSDOF 6
ENDMDL
MODEL 7
REMARK VINA RESULT:      -8.0      2.967      8.058
REMARK  Name = 
REMARK  6 active torsions:
REMARK  status: ('A' for Active; 'I' for Inactive)
REMARK    1  A    between atoms: O_2  and  C_3
REMARK    2  A    between atoms: C_6  and  C_7
REMARK    3  A    between atoms: C_9  and  C_10
REMARK    4  A    between atoms: N_12  and  C_13
REMARK    5  A    between atoms: C_13  and  C_15
REMARK    6  A    between atoms: C_23  and  C_24
REMARK                            x       y       z     vdW  Elec       q    Type
REMARK                         _______ _______ _______ _____ _____    ______ ____
ROOT
ATOM      1  C   UNL     1      37.495   0.671  15.325  0.00  0.00    +0.000 A 
ATOM      2  C   UNL     1      38.539   1.540  14.989  0.00  0.00    +0.000 A 
ATOM      3  C   UNL     1      38.315   2.838  14.641  0.00  0.00    +0.000 A 
ATOM      4  C   UNL     1      37.015   3.309  14.617  0.00  0.00    +0.000 A 
ATOM      5  C   UNL     1      36.758   4.620  14.256  0.00  0.00    +0.000 A 
ATOM      6  C   UNL     1      35.429   5.039  14.236  0.00  0.00    +0.000 A 
ATOM      7  C   UNL     1      34.389   4.180  14.562  0.00  0.00    +0.000 A 
ATOM      8  C   UNL     1      34.687   2.889  14.917  0.00  0.00    +0.000 A 
ATOM      9  C   UNL     1      35.993   2.429  14.948  0.00  0.00    +0.000 A 
ATOM     10  N   UNL     1      36.277   1.163  15.287  0.00  0.00    +0.000 NA
ENDROOT
BRANCH   1  14
ATOM     11  C   UNL     1      38.445  -3.233  16.429  0.00  0.00    +0.000 A 
ATOM     12  C   UNL     1      39.413  -2.386  15.952  0.00  0.00    +0.000 A 
ATOM     13  C   UNL     1      39.160  -1.094  15.589  0.00  0.00    +0.000 A 
ATOM     14  C   UNL     1      37.796  -0.674  15.737  0.00  0.00    +0.000 A 
ATOM     15  C   UNL     1      36.838  -1.489  16.204  0.00  0.00    +0.000 A 
ATOM     16  C   UNL     1      37.126  -2.809  16.571  0.00  0.00    +0.000 A 
BRANCH  11  18
ATOM     17  C   UNL     1      37.896  -5.451  17.216  0.00  0.00    +0.000 C 
ATOM     18  O   UNL     1      38.835  -4.514  16.760  0.00  0.00    +0.000 OA
ENDBRANCH  11  18
ENDBRANCH   1  14
BRANCH   3  19
ATOM     19  C   UNL     1      39.452   3.799  14.465  0.00  0.00    +0.000 C 
ATOM     20  O   UNL     1      40.159   3.697  13.415  0.00  0.00    +0.000 OA
ATOM     21  N   UNL     1      39.715   4.740  15.416  0.00  0.00    +0.000 NA
BRANCH  21  22
ATOM     22  C   UNL     1      40.683   5.809  15.624  0.00  0.00    +0.000 C 
ATOM     23  C   UNL     1      39.751   7.067  15.152  0.00  0.00    +0.000 C 
BRANCH  22  24
ATOM     24  C   UNL     1      40.787   6.056  17.105  0.00  0.00    +0.000 A 
ATOM     25  C   UNL     1      39.716   5.849  17.960  0.00  0.00    +0.000 A 
ATOM     26  C   UNL     1      39.796   6.030  19.309  0.00  0.00    +0.000 A 
ATOM     27  C   UNL     1      41.010   6.450  19.897  0.00  0.00    +0.000 A 
ATOM     28  C   UNL     1      42.085   6.658  19.017  0.00  0.00    +0.000 A 
ATOM     29  C   UNL     1      41.965   6.466  17.673  0.00  0.00    +0.000 A 
ENDBRANCH  22  24
ENDBRANCH  21  22
ENDBRANCH   3  19
BRANCH   6  30
ATOM     30  C   UNL     1      35.179   6.442  13.835  0.00  0.00    +0.000 C 
ATOM     31  C   UNL     1      33.697   6.772  13.910  0.00  0.00    +0.000 C 
ATOM     32  C   UNL     1      36.019   7.403  14.632  0.00  0.00    +0.000 C 
ENDBRANCH   6  30
TORSDOF 6
ENDMDL
MODEL 8
REMARK VINA RESULT:      -7.9      4.330      5.909
REMARK  Name = 
REMARK  6 active torsions:
REMARK  status: ('A' for Active; 'I' for Inactive)
REMARK    1  A    between atoms: O_2  and  C_3
REMARK    2  A    between atoms: C_6  and  C_7
REMARK    3  A    between atoms: C_9  and  C_10
REMARK    4  A    between atoms: N_12  and  C_13
REMARK    5  A    between atoms: C_13  and  C_15
REMARK    6  A    between atoms: C_23  and  C_24
REMARK                            x       y       z     vdW  Elec       q    Type
REMARK                         _______ _______ _______ _____ _____    ______ ____
ROOT
ATOM      1  C   UNL     1      35.583   4.441  13.918  0.00  0.00    +0.000 A 
ATOM      2  C   UNL     1      36.502   3.658  13.212  0.00  0.00    +0.000 A 
ATOM      3  C   UNL     1      36.773   2.370  13.561  0.00  0.00    +0.000 A 
ATOM      4  C   UNL     1      36.122   1.821  14.652  0.00  0.00    +0.000 A 
ATOM      5  C   UNL     1      36.387   0.520  15.037  0.00  0.00    +0.000 A 
ATOM      6  C   UNL     1      35.714   0.022  16.150  0.00  0.00    +0.000 A 
ATOM      7  C   UNL     1      34.807   0.796  16.859  0.00  0.00    +0.000 A 
ATOM      8  C   UNL     1      34.570   2.082  16.443  0.00  0.00    +0.000 A 
ATOM      9  C   UNL     1      35.219   2.618  15.344  0.00  0.00    +0.000 A 
ATOM     10  N   UNL     1      34.991   3.878  14.948  0.00  0.00    +0.000 NA
ENDROOT
BRANCH   1  14
ATOM     11  C   UNL     1      34.634   8.288  12.627  0.00  0.00    +0.000 A 
ATOM     12  C   UNL     1      33.869   7.660  13.577  0.00  0.00    +0.000 A 
ATOM     13  C   UNL     1      34.143   6.407  14.046  0.00  0.00    +0.000 A 
ATOM     14  C   UNL     1      35.296   5.778  13.469  0.00  0.00    +0.000 A 
ATOM     15  C   UNL     1      36.056   6.377  12.541  0.00  0.00    +0.000 A 
ATOM     16  C   UNL     1      35.753   7.665  12.079  0.00  0.00    +0.000 A 
BRANCH  11  18
ATOM     17  C   UNL     1      34.309  10.626  13.144  0.00  0.00    +0.000 C 
ATOM     18  O   UNL     1      34.248   9.554  12.241  0.00  0.00    +0.000 OA
ENDBRANCH  11  18
ENDBRANCH   1  14
BRANCH   3  19
ATOM     19  C   UNL     1      37.616   1.491  12.687  0.00  0.00    +0.000 C 
ATOM     20  O   UNL     1      37.060   0.938  11.687  0.00  0.00    +0.000 OA
ATOM     21  N   UNL     1      38.934   1.290  12.975  0.00  0.00    +0.000 NA
BRANCH  21  22
ATOM     22  C   UNL     1      40.049   0.541  12.410  0.00  0.00    +0.000 C 
ATOM     23  C   UNL     1      41.264   1.521  12.899  0.00  0.00    +0.000 C 
BRANCH  22  24
ATOM     24  C   UNL     1      40.277  -0.669  13.276  0.00  0.00    +0.000 A 
ATOM     25  C   UNL     1      41.011  -1.758  12.835  0.00  0.00    +0.000 A 
ATOM     26  C   UNL     1      41.262  -2.849  13.614  0.00  0.00    +0.000 A 
ATOM     27  C   UNL     1      40.763  -2.907  14.935  0.00  0.00    +0.000 A 
ATOM     28  C   UNL     1      40.019  -1.797  15.365  0.00  0.00    +0.000 A 
ATOM     29  C   UNL     1      39.790  -0.725  14.556  0.00  0.00    +0.000 A 
ENDBRANCH  22  24
ENDBRANCH  21  22
ENDBRANCH   3  19
BRANCH   6  30
ATOM     30  C   UNL     1      36.024  -1.370  16.549  0.00  0.00    +0.000 C 
ATOM     31  C   UNL     1      36.322  -2.231  15.332  0.00  0.00    +0.000 C 
ATOM     32  C   UNL     1      37.129  -1.420  17.569  0.00  0.00    +0.000 C 
ENDBRANCH   6  30
TORSDOF 6
ENDMDL
MODEL 9
REMARK VINA RESULT:      -7.7      4.578      8.818
REMARK  Name = 
REMARK  6 active torsions:
REMARK  status: ('A' for Active; 'I' for Inactive)
REMARK    1  A    between atoms: O_2  and  C_3
REMARK    2  A    between atoms: C_6  and  C_7
REMARK    3  A    between atoms: C_9  and  C_10
REMARK    4  A    between atoms: N_12  and  C_13
REMARK    5  A    between atoms: C_13  and  C_15
REMARK    6  A    between atoms: C_23  and  C_24
REMARK                            x       y       z     vdW  Elec       q    Type
REMARK                         _______ _______ _______ _____ _____    ______ ____
ROOT
ATOM      1  C   UNL     1      41.326  -1.795  14.454  0.00  0.00    +0.000 A 
ATOM      2  C   UNL     1      40.825  -0.541  14.088  0.00  0.00    +0.000 A 
ATOM      3  C   UNL     1      39.631  -0.076  14.552  0.00  0.00    +0.000 A 
ATOM      4  C   UNL     1      38.890  -0.872  15.407  0.00  0.00    +0.000 A 
ATOM      5  C   UNL     1      37.669  -0.430  15.883  0.00  0.00    +0.000 A 
ATOM      6  C   UNL     1      36.958  -1.277  16.731  0.00  0.00    +0.000 A 
ATOM      7  C   UNL     1      37.446  -2.524  17.091  0.00  0.00    +0.000 A 
ATOM      8  C   UNL     1      38.662  -2.924  16.600  0.00  0.00    +0.000 A 
ATOM      9  C   UNL     1      39.402  -2.116  15.752  0.00  0.00    +0.000 A 
ATOM     10  N   UNL     1      40.586  -2.516  15.268  0.00  0.00    +0.000 NA
ENDROOT
BRANCH   1  14
ATOM     11  C   UNL     1      45.023  -3.106  13.049  0.00  0.00    +0.000 A 
ATOM     12  C   UNL     1      43.860  -3.523  12.453  0.00  0.00    +0.000 A 
ATOM     13  C   UNL     1      42.624  -3.114  12.863  0.00  0.00    +0.000 A 
ATOM     14  C   UNL     1      42.618  -2.210  13.977  0.00  0.00    +0.000 A 
ATOM     15  C   UNL     1      43.745  -1.791  14.571  0.00  0.00    +0.000 A 
ATOM     16  C   UNL     1      45.001  -2.225  14.129  0.00  0.00    +0.000 A 
BRANCH  11  18
ATOM     17  C   UNL     1      46.215  -4.746  11.733  0.00  0.00    +0.000 C 
ATOM     18  O   UNL     1      46.206  -3.595  12.536  0.00  0.00    +0.000 OA
ENDBRANCH  11  18
ENDBRANCH   1  14
BRANCH   3  19
ATOM     19  C   UNL     1      39.200   1.336  14.299  0.00  0.00    +0.000 C 
ATOM     20  O   UNL     1      39.466   2.207  15.185  0.00  0.00    +0.000 OA
ATOM     21  N   UNL     1      38.531   1.662  13.156  0.00  0.00    +0.000 NA
BRANCH  21  22
ATOM     22  C   UNL     1      37.958   2.859  12.556  0.00  0.00    +0.000 C 
ATOM     23  C   UNL     1      37.295   2.167  11.231  0.00  0.00    +0.000 C 
BRANCH  22  24
ATOM     24  C   UNL     1      36.730   3.227  13.345  0.00  0.00    +0.000 A 
ATOM     25  C   UNL     1      36.022   2.289  14.079  0.00  0.00    +0.000 A 
ATOM     26  C   UNL     1      34.929   2.605  14.831  0.00  0.00    +0.000 A 
ATOM     27  C   UNL     1      34.467   3.939  14.885  0.00  0.00    +0.000 A 
ATOM     28  C   UNL     1      35.194   4.877  14.133  0.00  0.00    +0.000 A 
ATOM     29  C   UNL     1      36.282   4.522  13.395  0.00  0.00    +0.000 A 
ENDBRANCH  22  24
ENDBRANCH  21  22
ENDBRANCH   3  19
BRANCH   6  30
ATOM     30  C   UNL     1      35.648  -0.786  17.218  0.00  0.00    +0.000 C 
ATOM     31  C   UNL     1      34.600  -1.886  17.160  0.00  0.00    +0.000 C 
ATOM     32  C   UNL     1      35.761  -0.176  18.588  0.00  0.00    +0.000 C 
ENDBRANCH   6  30
TORSDOF 6
ENDMDL
MODEL 10
REMARK VINA RESULT:      -7.5     27.181     30.202
REMARK  Name = 
REMARK  6 active torsions:
REMARK  status: ('A' for Active; 'I' for Inactive)
REMARK    1  A    between atoms: O_2  and  C_3
REMARK    2  A    between atoms: C_6  and  C_7
REMARK    3  A    between atoms: C_9  and  C_10
REMARK    4  A    between atoms: N_12  and  C_13
REMARK    5  A    between atoms: C_13  and  C_15
REMARK    6  A    between atoms: C_23  and  C_24
REMARK                            x       y       z     vdW  Elec       q    Type
REMARK                         _______ _______ _______ _____ _____    ______ ____
ROOT
ATOM      1  C   UNL     1      11.468   0.806   7.691  0.00  0.00    +0.000 A 
ATOM      2  C   UNL     1      11.332   2.175   7.946  0.00  0.00    +0.000 A 
ATOM      3  C   UNL     1      10.562   2.648   8.966  0.00  0.00    +0.000 A 
ATOM      4  C   UNL     1       9.892   1.745   9.772  0.00  0.00    +0.000 A 
ATOM      5  C   UNL     1       9.094   2.197  10.807  0.00  0.00    +0.000 A 
ATOM      6  C   UNL     1       8.431   1.246  11.579  0.00  0.00    +0.000 A 
ATOM      7  C   UNL     1       8.557  -0.112  11.327  0.00  0.00    +0.000 A 
ATOM      8  C   UNL     1       9.360  -0.520  10.293  0.00  0.00    +0.000 A 
ATOM      9  C   UNL     1      10.035   0.391   9.498  0.00  0.00    +0.000 A 
ATOM     10  N   UNL     1      10.811  -0.013   8.482  0.00  0.00    +0.000 NA
ENDROOT
BRANCH   1  14
ATOM     11  C   UNL     1      14.078  -0.481   4.709  0.00  0.00    +0.000 A 
ATOM     12  C   UNL     1      14.193  -0.954   5.992  0.00  0.00    +0.000 A 
ATOM     13  C   UNL     1      13.356  -0.578   7.003  0.00  0.00    +0.000 A 
ATOM     14  C   UNL     1      12.338   0.363   6.635  0.00  0.00    +0.000 A 
ATOM     15  C   UNL     1      12.210   0.835   5.385  0.00  0.00    +0.000 A 
ATOM     16  C   UNL     1      13.081   0.430   4.366  0.00  0.00    +0.000 A 
BRANCH  11  18
ATOM     17  C   UNL     1      16.366  -0.865   4.034  0.00  0.00    +0.000 C 
ATOM     18  O   UNL     1      14.988  -0.943   3.782  0.00  0.00    +0.000 OA
ENDBRANCH  11  18
ENDBRANCH   1  14
BRANCH   3  19
ATOM     19  C   UNL     1      10.576   4.099   9.337  0.00  0.00    +0.000 C 
ATOM     20  O   UNL     1      11.655   4.585   9.800  0.00  0.00    +0.000 OA
ATOM     21  N   UNL     1       9.454   4.861   9.190  0.00  0.00    +0.000 NA
BRANCH  21  22
ATOM     22  C   UNL     1       9.062   6.245   9.426  0.00  0.00    +0.000 C 
ATOM     23  C   UNL     1       8.847   6.699   7.870  0.00  0.00    +0.000 C 
BRANCH  22  24
ATOM     24  C   UNL     1       7.645   6.242   9.934  0.00  0.00    +0.000 A 
ATOM     25  C   UNL     1       7.337   5.909  11.244  0.00  0.00    +0.000 A 
ATOM     26  C   UNL     1       6.065   5.935  11.737  0.00  0.00    +0.000 A 
ATOM     27  C   UNL     1       4.989   6.310  10.902  0.00  0.00    +0.000 A 
ATOM     28  C   UNL     1       5.318   6.640   9.578  0.00  0.00    +0.000 A 
ATOM     29  C   UNL     1       6.602   6.603   9.123  0.00  0.00    +0.000 A 
ENDBRANCH  22  24
ENDBRANCH  21  22
ENDBRANCH   3  19
BRANCH   6  30
ATOM     30  C   UNL     1       7.574   1.756  12.674  0.00  0.00    +0.000 C 
ATOM     31  C   UNL     1       8.316   2.786  13.510  0.00  0.00    +0.000 C 
ATOM     32  C   UNL     1       6.264   2.281  12.152  0.00  0.00    +0.000 C 
ENDBRANCH   6  30
TORSDOF 6
ENDMDL
