MODEL 1
REMARK VINA RESULT:      -8.5      0.000      0.000
REMARK  Name = 
REMARK  7 active torsions:
REMARK  status: ('A' for Active; 'I' for Inactive)
REMARK    1  A    between atoms: C_2  and  C_3
REMARK    2  A    between atoms: C_3  and  C_4
REMARK    3  A    between atoms: C_4  and  C_5
REMARK    4  A    between atoms: C_5  and  C_6
REMARK    5  A    between atoms: C_9  and  C_10
REMARK    6  A    between atoms: C_19  and  N_20
REMARK    7  A    between atoms: N_20  and  C_21
REMARK                            x       y       z     vdW  Elec       q    Type
REMARK                         _______ _______ _______ _____ _____    ______ ____
ROOT
ATOM      1  C   UNL     1      37.010   3.681  15.326  0.00  0.00    +0.000 C 
ATOM      2  O   UNL     1      35.959   4.424  15.102  0.00  0.00    +0.000 OA
ATOM      3  N   UNL     1      36.966   2.410  14.873  0.00  0.00    +0.000 N 
ATOM      4  C   UNL     1      37.971   1.425  14.744  0.00  0.00    +0.000 A 
ATOM      5  C   UNL     1      39.251   1.903  14.606  0.00  0.00    +0.000 A 
ATOM      6  C   UNL     1      40.349   1.092  14.462  0.00  0.00    +0.000 A 
ATOM      7  C   UNL     1      40.114  -0.284  14.461  0.00  0.00    +0.000 A 
ATOM      8  C   UNL     1      38.832  -0.748  14.598  0.00  0.00    +0.000 A 
ATOM      9  C   UNL     1      37.791   0.090  14.735  0.00  0.00    +0.000 A 
ATOM     10  C   UNL     1      36.316  -0.526  14.853  0.00  0.00    +0.000 C 
ATOM     11  C   UNL     1      35.674   0.700  15.762  0.00  0.00    +0.000 C 
ATOM     12  C   UNL     1      35.609   1.740  14.424  0.00  0.00    +0.000 C 
ATOM     13  C   UNL     1      34.565   2.754  15.210  0.00  0.00    +0.000 C 
ENDROOT
BRANCH   1  17
ATOM     14  C   UNL     1      40.035   5.712  17.526  0.00  0.00    +0.000 A 
ATOM     15  C   UNL     1      40.018   5.769  16.162  0.00  0.00    +0.000 A 
ATOM     16  C   UNL     1      39.051   5.122  15.445  0.00  0.00    +0.000 A 
ATOM     17  C   UNL     1      38.053   4.386  16.045  0.00  0.00    +0.000 A 
ATOM     18  C   UNL     1      38.077   4.332  17.452  0.00  0.00    +0.000 A 
ATOM     19  C   UNL     1      39.050   4.984  18.151  0.00  0.00    +0.000 A 
BRANCH  14  20
ATOM     20  C   UNL     1      41.036   6.376  18.372  0.00  0.00    +0.000 C 
BRANCH  20  21
ATOM     21  C   UNL     1      40.614   6.479  19.818  0.00  0.00    +0.000 C 
BRANCH  21  22
ATOM     22  C   UNL     1      40.292   7.909  20.170  0.00  0.00    +0.000 C 
BRANCH  22  24
ATOM     23  C   UNL     1      37.959   8.276  19.354  0.00  0.00    +0.000 C 
ATOM     24  C   UNL     1      38.816   7.977  20.573  0.00  0.00    +0.000 C 
ENDBRANCH  22  24
ENDBRANCH  21  22
ENDBRANCH  20  21
ENDBRANCH  14  20
ENDBRANCH   1  17
BRANCH  10  25
ATOM     25  N   UNL     1      36.641  -1.438  16.095  0.00  0.00    +0.000 NA
BRANCH  25  26
ATOM     26  C   UNL     1      36.200  -2.776  15.954  0.00  0.00    +0.000 A 
ATOM     27  C   UNL     1      35.007  -3.082  15.340  0.00  0.00    +0.000 A 
ATOM     28  C   UNL     1      34.556  -4.372  15.189  0.00  0.00    +0.000 A 
ATOM     29  C   UNL     1      35.324  -5.399  15.669  0.00  0.00    +0.000 A 
ATOM     30  C   UNL     1      36.518  -5.115  16.286  0.00  0.00    +0.000 A 
ATOM     31  C   UNL     1      36.976  -3.834  16.443  0.00  0.00    +0.000 A 
ENDBRANCH  25  26
ENDBRANCH  10  25
TORSDOF 7
ENDMDL
MODEL 2
REMARK VINA RESULT:      -7.6     25.189     28.499
REMARK  Name = 
REMARK  7 active torsions:
REMARK  status: ('A' for Active; 'I' for Inactive)
REMARK    1  A    between atoms: C_2  and  C_3
REMARK    2  A    between atoms: C_3  and  C_4
REMARK    3  A    between atoms: C_4  and  C_5
REMARK    4  A    between atoms: C_5  and  C_6
REMARK    5  A    between atoms: C_9  and  C_10
REMARK    6  A    between atoms: C_19  and  N_20
REMARK    7  A    between atoms: N_20  and  C_21
REMARK                            x       y       z     vdW  Elec       q    Type
REMARK                         _______ _______ _______ _____ _____    ______ ____
ROOT
ATOM      1  C   UNL     1      25.815  14.066  40.830  0.00  0.00    +0.000 C 
ATOM      2  O   UNL     1      24.640  14.341  41.331  0.00  0.00    +0.000 OA
ATOM      3  N   UNL     1      26.287  14.909  39.887  0.00  0.00    +0.000 N 
ATOM      4  C   UNL     1      27.569  15.043  39.307  0.00  0.00    +0.000 A 
ATOM      5  C   UNL     1      28.616  14.610  40.083  0.00  0.00    +0.000 A 
ATOM      6  C   UNL     1      29.928  14.670  39.684  0.00  0.00    +0.000 A 
ATOM      7  C   UNL     1      30.173  15.206  38.417  0.00  0.00    +0.000 A 
ATOM      8  C   UNL     1      29.119  15.635  37.654  0.00  0.00    +0.000 A 
ATOM      9  C   UNL     1      27.851  15.554  38.093  0.00  0.00    +0.000 A 
ATOM     10  C   UNL     1      26.675  16.111  37.158  0.00  0.00    +0.000 C 
ATOM     11  C   UNL     1      25.496  15.090  37.713  0.00  0.00    +0.000 C 
ATOM     12  C   UNL     1      25.348  15.952  39.165  0.00  0.00    +0.000 C 
ATOM     13  C   UNL     1      23.893  15.236  39.491  0.00  0.00    +0.000 C 
ENDROOT
BRANCH   1  17
ATOM     14  C   UNL     1      27.531  10.503  42.403  0.00  0.00    +0.000 A 
ATOM     15  C   UNL     1      27.379  11.604  43.195  0.00  0.00    +0.000 A 
ATOM     16  C   UNL     1      26.829  12.753  42.702  0.00  0.00    +0.000 A 
ATOM     17  C   UNL     1      26.401  12.867  41.398  0.00  0.00    +0.000 A 
ATOM     18  C   UNL     1      26.560  11.728  40.586  0.00  0.00    +0.000 A 
ATOM     19  C   UNL     1      27.112  10.590  41.096  0.00  0.00    +0.000 A 
BRANCH  14  20
ATOM     20  C   UNL     1      28.111   9.230  42.851  0.00  0.00    +0.000 C 
BRANCH  20  21
ATOM     21  C   UNL     1      28.967   8.566  41.799  0.00  0.00    +0.000 C 
BRANCH  21  22
ATOM     22  C   UNL     1      30.388   9.058  41.893  0.00  0.00    +0.000 C 
BRANCH  22  24
ATOM     23  C   UNL     1      30.855  11.361  41.044  0.00  0.00    +0.000 C 
ATOM     24  C   UNL     1      30.680   9.903  40.650  0.00  0.00    +0.000 C 
ENDBRANCH  22  24
ENDBRANCH  21  22
ENDBRANCH  20  21
ENDBRANCH  14  20
ENDBRANCH   1  17
BRANCH  10  25
ATOM     25  N   UNL     1      27.039  15.211  35.919  0.00  0.00    +0.000 NA
BRANCH  25  26
ATOM     26  C   UNL     1      26.255  15.474  34.769  0.00  0.00    +0.000 A 
ATOM     27  C   UNL     1      25.951  14.486  33.861  0.00  0.00    +0.000 A 
ATOM     28  C   UNL     1      25.192  14.713  32.737  0.00  0.00    +0.000 A 
ATOM     29  C   UNL     1      24.715  15.976  32.510  0.00  0.00    +0.000 A 
ATOM     30  C   UNL     1      25.007  16.978  33.404  0.00  0.00    +0.000 A 
ATOM     31  C   UNL     1      25.763  16.762  34.525  0.00  0.00    +0.000 A 
ENDBRANCH  25  26
ENDBRANCH  10  25
TORSDOF 7
ENDMDL
MODEL 3
REMARK VINA RESULT:      -7.5      1.205      2.099
REMARK  Name = 
REMARK  7 active torsions:
REMARK  status: ('A' for Active; 'I' for Inactive)
REMARK    1  A    between atoms: C_2  and  C_3
REMARK    2  A    between atoms: C_3  and  C_4
REMARK    3  A    between atoms: C_4  and  C_5
REMARK    4  A    between atoms: C_5  and  C_6
REMARK    5  A    between atoms: C_9  and  C_10
REMARK    6  A    between atoms: C_19  and  N_20
REMARK    7  A    between atoms: N_20  and  C_21
REMARK                            x       y       z     vdW  Elec       q    Type
REMARK                         _______ _______ _______ _____ _____    ______ ____
ROOT
ATOM      1  C   UNL     1      37.063   3.654  15.315  0.00  0.00    +0.000 C 
ATOM      2  O   UNL     1      36.003   4.387  15.102  0.00  0.00    +0.000 OA
ATOM      3  N   UNL     1      37.033   2.387  14.849  0.00  0.00    +0.000 N 
ATOM      4  C   UNL     1      38.049   1.416  14.708  0.00  0.00    +0.000 A 
ATOM      5  C   UNL     1      39.324   1.911  14.572  0.00  0.00    +0.000 A 
ATOM      6  C   UNL     1      40.430   1.114  14.418  0.00  0.00    +0.000 A 
ATOM      7  C   UNL     1      40.212  -0.265  14.402  0.00  0.00    +0.000 A 
ATOM      8  C   UNL     1      38.936  -0.745  14.538  0.00  0.00    +0.000 A 
ATOM      9  C   UNL     1      37.885   0.080  14.686  0.00  0.00    +0.000 A 
ATOM     10  C   UNL     1      36.418  -0.555  14.801  0.00  0.00    +0.000 C 
ATOM     11  C   UNL     1      35.763   0.653  15.723  0.00  0.00    +0.000 C 
ATOM     12  C   UNL     1      35.683   1.706  14.397  0.00  0.00    +0.000 C 
ATOM     13  C   UNL     1      34.629   2.699  15.195  0.00  0.00    +0.000 C 
ENDROOT
BRANCH   1  17
ATOM     14  C   UNL     1      40.066   5.703  17.530  0.00  0.00    +0.000 A 
ATOM     15  C   UNL     1      40.085   5.717  16.165  0.00  0.00    +0.000 A 
ATOM     16  C   UNL     1      39.125   5.064  15.443  0.00  0.00    +0.000 A 
ATOM     17  C   UNL     1      38.099   4.365  16.039  0.00  0.00    +0.000 A 
ATOM     18  C   UNL     1      38.086   4.354  17.447  0.00  0.00    +0.000 A 
ATOM     19  C   UNL     1      39.052   5.012  18.151  0.00  0.00    +0.000 A 
BRANCH  14  20
ATOM     20  C   UNL     1      41.055   6.377  18.381  0.00  0.00    +0.000 C 
BRANCH  20  21
ATOM     21  C   UNL     1      41.896   7.381  17.630  0.00  0.00    +0.000 C 
BRANCH  21  22
ATOM     22  C   UNL     1      43.329   6.918  17.563  0.00  0.00    +0.000 C 
BRANCH  22  24
ATOM     23  C   UNL     1      45.229   6.834  15.944  0.00  0.00    +0.000 C 
ATOM     24  C   UNL     1      43.717   6.788  16.088  0.00  0.00    +0.000 C 
ENDBRANCH  22  24
ENDBRANCH  21  22
ENDBRANCH  20  21
ENDBRANCH  14  20
ENDBRANCH   1  17
BRANCH  10  25
ATOM     25  N   UNL     1      36.756  -1.476  16.032  0.00  0.00    +0.000 NA
BRANCH  25  26
ATOM     26  C   UNL     1      36.281  -2.804  15.903  0.00  0.00    +0.000 A 
ATOM     27  C   UNL     1      35.130  -3.094  15.207  0.00  0.00    +0.000 A 
ATOM     28  C   UNL     1      34.647  -4.373  15.065  0.00  0.00    +0.000 A 
ATOM     29  C   UNL     1      35.339  -5.406  15.639  0.00  0.00    +0.000 A 
ATOM     30  C   UNL     1      36.491  -5.138  16.338  0.00  0.00    +0.000 A 
ATOM     31  C   UNL     1      36.980  -3.867  16.487  0.00  0.00    +0.000 A 
ENDBRANCH  25  26
ENDBRANCH  10  25
TORSDOF 7
ENDMDL
MODEL 4
REMARK VINA RESULT:      -7.5     17.058     22.000
REMARK  Name = 
REMARK  7 active torsions:
REMARK  status: ('A' for Active; 'I' for Inactive)
REMARK    1  A    between atoms: C_2  and  C_3
REMARK    2  A    between atoms: C_3  and  C_4
REMARK    3  A    between atoms: C_4  and  C_5
REMARK    4  A    between atoms: C_5  and  C_6
REMARK    5  A    between atoms: C_9  and  C_10
REMARK    6  A    between atoms: C_19  and  N_20
REMARK    7  A    between atoms: N_20  and  C_21
REMARK                            x       y       z     vdW  Elec       q    Type
REMARK                         _______ _______ _______ _____ _____    ______ ____
ROOT
ATOM      1  C   UNL     1      24.319  19.457  21.288  0.00  0.00    +0.000 C 
ATOM      2  O   UNL     1      24.073  20.586  21.897  0.00  0.00    +0.000 OA
ATOM      3  N   UNL     1      25.437  18.796  21.656  0.00  0.00    +0.000 N 
ATOM      4  C   UNL     1      25.885  17.485  21.380  0.00  0.00    +0.000 A 
ATOM      5  C   UNL     1      24.899  16.570  21.100  0.00  0.00    +0.000 A 
ATOM      6  C   UNL     1      25.151  15.252  20.815  0.00  0.00    +0.000 A 
ATOM      7  C   UNL     1      26.490  14.855  20.819  0.00  0.00    +0.000 A 
ATOM      8  C   UNL     1      27.464  15.776  21.100  0.00  0.00    +0.000 A 
ATOM      9  C   UNL     1      27.163  17.058  21.374  0.00  0.00    +0.000 A 
ATOM     10  C   UNL     1      28.354  18.070  21.730  0.00  0.00    +0.000 C 
ATOM     11  C   UNL     1      27.612  19.437  21.165  0.00  0.00    +0.000 C 
ATOM     12  C   UNL     1      26.571  19.498  22.501  0.00  0.00    +0.000 C 
ATOM     13  C   UNL     1      26.178  21.071  22.177  0.00  0.00    +0.000 C 
ENDROOT
BRANCH   1  17
ATOM     14  C   UNL     1      21.434  18.504  18.306  0.00  0.00    +0.000 A 
ATOM     15  C   UNL     1      21.168  18.268  19.624  0.00  0.00    +0.000 A 
ATOM     16  C   UNL     1      22.086  18.571  20.591  0.00  0.00    +0.000 A 
ATOM     17  C   UNL     1      23.313  19.123  20.298  0.00  0.00    +0.000 A 
ATOM     18  C   UNL     1      23.582  19.363  18.937  0.00  0.00    +0.000 A 
ATOM     19  C   UNL     1      22.653  19.054  17.986  0.00  0.00    +0.000 A 
BRANCH  14  20
ATOM     20  C   UNL     1      20.507  18.209  17.206  0.00  0.00    +0.000 C 
BRANCH  20  21
ATOM     21  C   UNL     1      19.747  19.424  16.731  0.00  0.00    +0.000 C 
BRANCH  21  22
ATOM     22  C   UNL     1      18.263  19.167  16.781  0.00  0.00    +0.000 C 
BRANCH  22  24
ATOM     23  C   UNL     1      17.572  18.559  19.104  0.00  0.00    +0.000 C 
ATOM     24  C   UNL     1      18.014  18.013  17.756  0.00  0.00    +0.000 C 
ENDBRANCH  22  24
ENDBRANCH  21  22
ENDBRANCH  20  21
ENDBRANCH  14  20
ENDBRANCH   1  17
BRANCH  10  25
ATOM     25  N   UNL     1      29.161  17.814  20.403  0.00  0.00    +0.000 NA
BRANCH  25  26
ATOM     26  C   UNL     1      30.493  17.382  20.616  0.00  0.00    +0.000 A 
ATOM     27  C   UNL     1      31.252  16.857  19.596  0.00  0.00    +0.000 A 
ATOM     28  C   UNL     1      32.547  16.431  19.773  0.00  0.00    +0.000 A 
ATOM     29  C   UNL     1      33.109  16.533  21.018  0.00  0.00    +0.000 A 
ATOM     30  C   UNL     1      32.367  17.054  22.050  0.00  0.00    +0.000 A 
ATOM     31  C   UNL     1      31.077  17.481  21.884  0.00  0.00    +0.000 A 
ENDBRANCH  25  26
ENDBRANCH  10  25
TORSDOF 7
ENDMDL
MODEL 5
REMARK VINA RESULT:      -6.9      3.181      4.173
REMARK  Name = 
REMARK  7 active torsions:
REMARK  status: ('A' for Active; 'I' for Inactive)
REMARK    1  A    between atoms: C_2  and  C_3
REMARK    2  A    between atoms: C_3  and  C_4
REMARK    3  A    between atoms: C_4  and  C_5
REMARK    4  A    between atoms: C_5  and  C_6
REMARK    5  A    between atoms: C_9  and  C_10
REMARK    6  A    between atoms: C_19  and  N_20
REMARK    7  A    between atoms: N_20  and  C_21
REMARK                            x       y       z     vdW  Elec       q    Type
REMARK                         _______ _______ _______ _____ _____    ______ ____
ROOT
ATOM      1  C   UNL     1      37.389   4.184  15.190  0.00  0.00    +0.000 C 
ATOM      2  O   UNL     1      36.086   4.093  15.182  0.00  0.00    +0.000 OA
ATOM      3  N   UNL     1      38.049   3.578  14.179  0.00  0.00    +0.000 N 
ATOM      4  C   UNL     1      39.396   3.656  13.760  0.00  0.00    +0.000 A 
ATOM      5  C   UNL     1      40.050   4.820  14.084  0.00  0.00    +0.000 A 
ATOM      6  C   UNL     1      41.357   5.070  13.752  0.00  0.00    +0.000 A 
ATOM      7  C   UNL     1      42.027   4.067  13.046  0.00  0.00    +0.000 A 
ATOM      8  C   UNL     1      41.363   2.912  12.728  0.00  0.00    +0.000 A 
ATOM      9  C   UNL     1      40.080   2.717  13.078  0.00  0.00    +0.000 A 
ATOM     10  C   UNL     1      39.360   1.355  12.638  0.00  0.00    +0.000 C 
ATOM     11  C   UNL     1      38.296   1.288  13.904  0.00  0.00    +0.000 C 
ATOM     12  C   UNL     1      37.340   2.523  13.245  0.00  0.00    +0.000 C 
ATOM     13  C   UNL     1      36.075   2.131  14.237  0.00  0.00    +0.000 C 
ENDROOT
BRANCH   1  17
ATOM     14  C   UNL     1      38.893   6.309  18.558  0.00  0.00    +0.000 A 
ATOM     15  C   UNL     1      38.426   6.985  17.468  0.00  0.00    +0.000 A 
ATOM     16  C   UNL     1      37.940   6.313  16.381  0.00  0.00    +0.000 A 
ATOM     17  C   UNL     1      37.893   4.938  16.322  0.00  0.00    +0.000 A 
ATOM     18  C   UNL     1      38.376   4.247  17.449  0.00  0.00    +0.000 A 
ATOM     19  C   UNL     1      38.857   4.934  18.525  0.00  0.00    +0.000 A 
BRANCH  14  20
ATOM     20  C   UNL     1      39.431   6.949  19.765  0.00  0.00    +0.000 C 
BRANCH  20  21
ATOM     21  C   UNL     1      40.860   6.560  20.055  0.00  0.00    +0.000 C 
BRANCH  21  22
ATOM     22  C   UNL     1      41.809   7.405  19.244  0.00  0.00    +0.000 C 
BRANCH  22  24
ATOM     23  C   UNL     1      42.086   6.913  16.811  0.00  0.00    +0.000 C 
ATOM     24  C   UNL     1      42.491   6.498  18.216  0.00  0.00    +0.000 C 
ENDBRANCH  22  24
ENDBRANCH  21  22
ENDBRANCH  20  21
ENDBRANCH  14  20
ENDBRANCH   1  17
BRANCH  10  25
ATOM     25  N   UNL     1      40.416   0.407  13.319  0.00  0.00    +0.000 NA
BRANCH  25  26
ATOM     26  C   UNL     1      40.691  -0.770  12.582  0.00  0.00    +0.000 A 
ATOM     27  C   UNL     1      41.925  -1.378  12.627  0.00  0.00    +0.000 A 
ATOM     28  C   UNL     1      42.219  -2.522  11.922  0.00  0.00    +0.000 A 
ATOM     29  C   UNL     1      41.244  -3.083  11.141  0.00  0.00    +0.000 A 
ATOM     30  C   UNL     1      40.005  -2.491  11.082  0.00  0.00    +0.000 A 
ATOM     31  C   UNL     1      39.702  -1.352  11.779  0.00  0.00    +0.000 A 
ENDBRANCH  25  26
ENDBRANCH  10  25
TORSDOF 7
ENDMDL
MODEL 6
REMARK VINA RESULT:      -6.8      4.444      7.579
REMARK  Name = 
REMARK  7 active torsions:
REMARK  status: ('A' for Active; 'I' for Inactive)
REMARK    1  A    between atoms: C_2  and  C_3
REMARK    2  A    between atoms: C_3  and  C_4
REMARK    3  A    between atoms: C_4  and  C_5
REMARK    4  A    between atoms: C_5  and  C_6
REMARK    5  A    between atoms: C_9  and  C_10
REMARK    6  A    between atoms: C_19  and  N_20
REMARK    7  A    between atoms: N_20  and  C_21
REMARK                            x       y       z     vdW  Elec       q    Type
REMARK                         _______ _______ _______ _____ _____    ______ ____
ROOT
ATOM      1  C   UNL     1      42.294  -0.697  12.843  0.00  0.00    +0.000 C 
ATOM      2  O   UNL     1      42.669  -0.321  11.649  0.00  0.00    +0.000 OA
ATOM      3  N   UNL     1      40.970  -0.671  13.102  0.00  0.00    +0.000 N 
ATOM      4  C   UNL     1      40.214  -1.202  14.171  0.00  0.00    +0.000 A 
ATOM      5  C   UNL     1      40.772  -2.282  14.811  0.00  0.00    +0.000 A 
ATOM      6  C   UNL     1      40.176  -2.927  15.865  0.00  0.00    +0.000 A 
ATOM      7  C   UNL     1      38.937  -2.434  16.281  0.00  0.00    +0.000 A 
ATOM      8  C   UNL     1      38.390  -1.357  15.634  0.00  0.00    +0.000 A 
ATOM      9  C   UNL     1      39.017  -0.760  14.605  0.00  0.00    +0.000 A 
ATOM     10  C   UNL     1      38.298   0.471  13.874  0.00  0.00    +0.000 C 
ATOM     11  C   UNL     1      39.683   1.238  13.393  0.00  0.00    +0.000 C 
ATOM     12  C   UNL     1      39.960   0.100  12.167  0.00  0.00    +0.000 C 
ATOM     13  C   UNL     1      41.039   1.106  11.419  0.00  0.00    +0.000 C 
ENDROOT
BRANCH   1  17
ATOM     14  C   UNL     1      45.552  -1.728  15.382  0.00  0.00    +0.000 A 
ATOM     15  C   UNL     1      45.188  -2.553  14.357  0.00  0.00    +0.000 A 
ATOM     16  C   UNL     1      44.144  -2.232  13.534  0.00  0.00    +0.000 A 
ATOM     17  C   UNL     1      43.410  -1.076  13.688  0.00  0.00    +0.000 A 
ATOM     18  C   UNL     1      43.791  -0.230  14.747  0.00  0.00    +0.000 A 
ATOM     19  C   UNL     1      44.835  -0.567  15.557  0.00  0.00    +0.000 A 
BRANCH  14  20
ATOM     20  C   UNL     1      46.658  -1.995  16.311  0.00  0.00    +0.000 C 
BRANCH  20  21
ATOM     21  C   UNL     1      46.212  -2.093  17.749  0.00  0.00    +0.000 C 
BRANCH  21  22
ATOM     22  C   UNL     1      46.772  -0.946  18.551  0.00  0.00    +0.000 C 
BRANCH  22  24
ATOM     23  C   UNL     1      46.416  -2.718  20.276  0.00  0.00    +0.000 C 
ATOM     24  C   UNL     1      46.489  -1.219  20.031  0.00  0.00    +0.000 C 
ENDBRANCH  22  24
ENDBRANCH  21  22
ENDBRANCH  20  21
ENDBRANCH  14  20
ENDBRANCH   1  17
BRANCH  10  25
ATOM     25  N   UNL     1      38.130   1.335  15.180  0.00  0.00    +0.000 NA
BRANCH  25  26
ATOM     26  C   UNL     1      36.861   1.951  15.301  0.00  0.00    +0.000 A 
ATOM     27  C   UNL     1      36.474   2.975  14.467  0.00  0.00    +0.000 A 
ATOM     28  C   UNL     1      35.248   3.590  14.562  0.00  0.00    +0.000 A 
ATOM     29  C   UNL     1      34.372   3.168  15.525  0.00  0.00    +0.000 A 
ATOM     30  C   UNL     1      34.739   2.147  16.368  0.00  0.00    +0.000 A 
ATOM     31  C   UNL     1      35.958   1.528  16.284  0.00  0.00    +0.000 A 
ENDBRANCH  25  26
ENDBRANCH  10  25
TORSDOF 7
ENDMDL
MODEL 7
REMARK VINA RESULT:      -6.8      3.420      9.960
REMARK  Name = 
REMARK  7 active torsions:
REMARK  status: ('A' for Active; 'I' for Inactive)
REMARK    1  A    between atoms: C_2  and  C_3
REMARK    2  A    between atoms: C_3  and  C_4
REMARK    3  A    between atoms: C_4  and  C_5
REMARK    4  A    between atoms: C_5  and  C_6
REMARK    5  A    between atoms: C_9  and  C_10
REMARK    6  A    between atoms: C_19  and  N_20
REMARK    7  A    between atoms: N_20  and  C_21
REMARK                            x       y       z     vdW  Elec       q    Type
REMARK                         _______ _______ _______ _____ _____    ______ ____
ROOT
ATOM      1  C   UNL     1      36.039  -2.042  17.166  0.00  0.00    +0.000 C 
ATOM      2  O   UNL     1      36.005  -2.205  18.462  0.00  0.00    +0.000 OA
ATOM      3  N   UNL     1      36.519  -0.865  16.712  0.00  0.00    +0.000 N 
ATOM      4  C   UNL     1      36.896  -0.444  15.417  0.00  0.00    +0.000 A 
ATOM      5  C   UNL     1      37.285  -1.444  14.560  0.00  0.00    +0.000 A 
ATOM      6  C   UNL     1      37.690  -1.218  13.269  0.00  0.00    +0.000 A 
ATOM      7  C   UNL     1      37.692   0.111  12.837  0.00  0.00    +0.000 A 
ATOM      8  C   UNL     1      37.302   1.099  13.702  0.00  0.00    +0.000 A 
ATOM      9  C   UNL     1      36.915   0.823  14.959  0.00  0.00    +0.000 A 
ATOM     10  C   UNL     1      36.509   2.037  15.924  0.00  0.00    +0.000 C 
ATOM     11  C   UNL     1      35.439   1.184  16.856  0.00  0.00    +0.000 C 
ATOM     12  C   UNL     1      36.692   0.380  17.667  0.00  0.00    +0.000 C 
ATOM     13  C   UNL     1      35.666  -0.093  18.874  0.00  0.00    +0.000 C 
ENDROOT
BRANCH   1  17
ATOM     14  C   UNL     1      34.473  -5.362  15.011  0.00  0.00    +0.000 A 
ATOM     15  C   UNL     1      35.676  -5.459  15.649  0.00  0.00    +0.000 A 
ATOM     16  C   UNL     1      36.188  -4.400  16.345  0.00  0.00    +0.000 A 
ATOM     17  C   UNL     1      35.533  -3.193  16.443  0.00  0.00    +0.000 A 
ATOM     18  C   UNL     1      34.293  -3.100  15.782  0.00  0.00    +0.000 A 
ATOM     19  C   UNL     1      33.798  -4.167  15.092  0.00  0.00    +0.000 A 
BRANCH  14  20
ATOM     20  C   UNL     1      33.851  -6.448  14.242  0.00  0.00    +0.000 C 
BRANCH  20  21
ATOM     21  C   UNL     1      34.069  -7.809  14.857  0.00  0.00    +0.000 C 
BRANCH  21  22
ATOM     22  C   UNL     1      33.158  -8.825  14.218  0.00  0.00    +0.000 C 
BRANCH  22  24
ATOM     23  C   UNL     1      34.723  -9.536  12.405  0.00  0.00    +0.000 C 
ATOM     24  C   UNL     1      33.420  -8.815  12.710  0.00  0.00    +0.000 C 
ENDBRANCH  22  24
ENDBRANCH  21  22
ENDBRANCH  20  21
ENDBRANCH  14  20
ENDBRANCH   1  17
BRANCH  10  25
ATOM     25  N   UNL     1      35.399   2.614  14.968  0.00  0.00    +0.000 NA
BRANCH  25  26
ATOM     26  C   UNL     1      35.539   3.998  14.697  0.00  0.00    +0.000 A 
ATOM     27  C   UNL     1      34.461   4.776  14.344  0.00  0.00    +0.000 A 
ATOM     28  C   UNL     1      34.567   6.121  14.077  0.00  0.00    +0.000 A 
ATOM     29  C   UNL     1      35.797   6.714  14.167  0.00  0.00    +0.000 A 
ATOM     30  C   UNL     1      36.887   5.955  14.518  0.00  0.00    +0.000 A 
ATOM     31  C   UNL     1      36.793   4.615  14.785  0.00  0.00    +0.000 A 
ENDBRANCH  25  26
ENDBRANCH  10  25
TORSDOF 7
ENDMDL
MODEL 8
REMARK VINA RESULT:      -6.8      3.865      6.782
REMARK  Name = 
REMARK  7 active torsions:
REMARK  status: ('A' for Active; 'I' for Inactive)
REMARK    1  A    between atoms: C_2  and  C_3
REMARK    2  A    between atoms: C_3  and  C_4
REMARK    3  A    between atoms: C_4  and  C_5
REMARK    4  A    between atoms: C_5  and  C_6
REMARK    5  A    between atoms: C_9  and  C_10
REMARK    6  A    between atoms: C_19  and  N_20
REMARK    7  A    between atoms: N_20  and  C_21
REMARK                            x       y       z     vdW  Elec       q    Type
REMARK                         _______ _______ _______ _____ _____    ______ ____
ROOT
ATOM      1  C   UNL     1      37.727   4.489  16.311  0.00  0.00    +0.000 C 
ATOM      2  O   UNL     1      37.428   3.331  16.834  0.00  0.00    +0.000 OA
ATOM      3  N   UNL     1      36.942   4.924  15.302  0.00  0.00    +0.000 N 
ATOM      4  C   UNL     1      36.838   6.185  14.673  0.00  0.00    +0.000 A 
ATOM      5  C   UNL     1      37.217   7.261  15.438  0.00  0.00    +0.000 A 
ATOM      6  C   UNL     1      37.175   8.558  14.992  0.00  0.00    +0.000 A 
ATOM      7  C   UNL     1      36.717   8.756  13.687  0.00  0.00    +0.000 A 
ATOM      8  C   UNL     1      36.342   7.675  12.934  0.00  0.00    +0.000 A 
ATOM      9  C   UNL     1      36.402   6.423  13.420  0.00  0.00    +0.000 A 
ATOM     10  C   UNL     1      35.910   5.212  12.493  0.00  0.00    +0.000 C 
ATOM     11  C   UNL     1      36.900   4.060  13.150  0.00  0.00    +0.000 C 
ATOM     12  C   UNL     1      35.951   3.954  14.550  0.00  0.00    +0.000 C 
ATOM     13  C   UNL     1      36.653   2.516  14.969  0.00  0.00    +0.000 C 
ENDROOT
BRANCH   1  17
ATOM     14  C   UNL     1      41.086   6.272  18.225  0.00  0.00    +0.000 A 
ATOM     15  C   UNL     1      41.068   6.113  16.869  0.00  0.00    +0.000 A 
ATOM     16  C   UNL     1      39.994   5.543  16.243  0.00  0.00    +0.000 A 
ATOM     17  C   UNL     1      38.886   5.103  16.932  0.00  0.00    +0.000 A 
ATOM     18  C   UNL     1      38.911   5.269  18.329  0.00  0.00    +0.000 A 
ATOM     19  C   UNL     1      39.991   5.840  18.936  0.00  0.00    +0.000 A 
BRANCH  14  20
ATOM     20  C   UNL     1      42.196   6.873  18.976  0.00  0.00    +0.000 C 
BRANCH  20  21
ATOM     21  C   UNL     1      42.189   6.502  20.439  0.00  0.00    +0.000 C 
BRANCH  21  22
ATOM     22  C   UNL     1      43.312   7.202  21.163  0.00  0.00    +0.000 C 
BRANCH  22  24
ATOM     23  C   UNL     1      44.517   5.135  21.883  0.00  0.00    +0.000 C 
ATOM     24  C   UNL     1      43.717   6.337  22.359  0.00  0.00    +0.000 C 
ENDBRANCH  22  24
ENDBRANCH  21  22
ENDBRANCH  20  21
ENDBRANCH  14  20
ENDBRANCH   1  17
BRANCH  10  25
ATOM     25  N   UNL     1      36.883   5.540  11.300  0.00  0.00    +0.000 NA
BRANCH  25  26
ATOM     26  C   UNL     1      36.324   5.300  10.021  0.00  0.00    +0.000 A 
ATOM     27  C   UNL     1      35.593   6.261   9.361  0.00  0.00    +0.000 A 
ATOM     28  C   UNL     1      35.040   6.056   8.119  0.00  0.00    +0.000 A 
ATOM     29  C   UNL     1      35.224   4.844   7.509  0.00  0.00    +0.000 A 
ATOM     30  C   UNL     1      35.950   3.870   8.152  0.00  0.00    +0.000 A 
ATOM     31  C   UNL     1      36.504   4.064   9.389  0.00  0.00    +0.000 A 
ENDBRANCH  25  26
ENDBRANCH  10  25
TORSDOF 7
ENDMDL
MODEL 9
REMARK VINA RESULT:      -6.7      4.715      8.481
REMARK  Name = 
REMARK  7 active torsions:
REMARK  status: ('A' for Active; 'I' for Inactive)
REMARK    1  A    between atoms: C_2  and  C_3
REMARK    2  A    between atoms: C_3  and  C_4
REMARK    3  A    between atoms: C_4  and  C_5
REMARK    4  A    between atoms: C_5  and  C_6
REMARK    5  A    between atoms: C_9  and  C_10
REMARK    6  A    between atoms: C_19  and  N_20
REMARK    7  A    between atoms: N_20  and  C_21
REMARK                            x       y       z     vdW  Elec       q    Type
REMARK                         _______ _______ _______ _____ _____    ______ ____
ROOT
ATOM      1  C   UNL     1      42.652  -0.427  13.050  0.00  0.00    +0.000 C 
ATOM      2  O   UNL     1      43.115   0.087  11.942  0.00  0.00    +0.000 OA
ATOM      3  N   UNL     1      41.311  -0.423  13.211  0.00  0.00    +0.000 N 
ATOM      4  C   UNL     1      40.478  -1.073  14.148  0.00  0.00    +0.000 A 
ATOM      5  C   UNL     1      40.988  -2.226  14.694  0.00  0.00    +0.000 A 
ATOM      6  C   UNL     1      40.315  -2.989  15.614  0.00  0.00    +0.000 A 
ATOM      7  C   UNL     1      39.048  -2.540  15.992  0.00  0.00    +0.000 A 
ATOM      8  C   UNL     1      38.549  -1.390  15.441  0.00  0.00    +0.000 A 
ATOM      9  C   UNL     1      39.251  -0.678  14.541  0.00  0.00    +0.000 A 
ATOM     10  C   UNL     1      38.586   0.637  13.912  0.00  0.00    +0.000 C 
ATOM     11  C   UNL     1      40.003   1.446  13.632  0.00  0.00    +0.000 C 
ATOM     12  C   UNL     1      40.373   0.462  12.302  0.00  0.00    +0.000 C 
ATOM     13  C   UNL     1      41.504   1.542  11.763  0.00  0.00    +0.000 C 
ENDROOT
BRANCH   1  17
ATOM     14  C   UNL     1      45.746  -1.935  15.554  0.00  0.00    +0.000 A 
ATOM     15  C   UNL     1      45.160  -0.733  15.829  0.00  0.00    +0.000 A 
ATOM     16  C   UNL     1      44.165  -0.239  15.033  0.00  0.00    +0.000 A 
ATOM     17  C   UNL     1      43.701  -0.913  13.925  0.00  0.00    +0.000 A 
ATOM     18  C   UNL     1      44.310  -2.152  13.648  0.00  0.00    +0.000 A 
ATOM     19  C   UNL     1      45.301  -2.629  14.453  0.00  0.00    +0.000 A 
BRANCH  14  20
ATOM     20  C   UNL     1      46.819  -2.538  16.355  0.00  0.00    +0.000 C 
BRANCH  20  21
ATOM     21  C   UNL     1      46.724  -4.042  16.436  0.00  0.00    +0.000 C 
BRANCH  21  22
ATOM     22  C   UNL     1      48.048  -4.671  16.086  0.00  0.00    +0.000 C 
BRANCH  22  24
ATOM     23  C   UNL     1      48.677  -4.256  13.704  0.00  0.00    +0.000 C 
ATOM     24  C   UNL     1      47.957  -5.201  14.652  0.00  0.00    +0.000 C 
ENDBRANCH  22  24
ENDBRANCH  21  22
ENDBRANCH  20  21
ENDBRANCH  14  20
ENDBRANCH   1  17
BRANCH  10  25
ATOM     25  N   UNL     1      38.319   1.339  15.295  0.00  0.00    +0.000 NA
BRANCH  25  26
ATOM     26  C   UNL     1      37.015   1.876  15.424  0.00  0.00    +0.000 A 
ATOM     27  C   UNL     1      36.556   2.866  14.585  0.00  0.00    +0.000 A 
ATOM     28  C   UNL     1      35.295   3.404  14.686  0.00  0.00    +0.000 A 
ATOM     29  C   UNL     1      34.457   2.937  15.663  0.00  0.00    +0.000 A 
ATOM     30  C   UNL     1      34.896   1.949  16.511  0.00  0.00    +0.000 A 
ATOM     31  C   UNL     1      36.150   1.407  16.419  0.00  0.00    +0.000 A 
ENDBRANCH  25  26
ENDBRANCH  10  25
TORSDOF 7
ENDMDL
MODEL 10
REMARK VINA RESULT:      -6.7      4.198      7.044
REMARK  Name = 
REMARK  7 active torsions:
REMARK  status: ('A' for Active; 'I' for Inactive)
REMARK    1  A    between atoms: C_2  and  C_3
REMARK    2  A    between atoms: C_3  and  C_4
REMARK    3  A    between atoms: C_4  and  C_5
REMARK    4  A    between atoms: C_5  and  C_6
REMARK    5  A    between atoms: C_9  and  C_10
REMARK    6  A    between atoms: C_19  and  N_20
REMARK    7  A    between atoms: N_20  and  C_21
REMARK                            x       y       z     vdW  Elec       q    Type
REMARK                         _______ _______ _______ _____ _____    ______ ____
ROOT
ATOM      1  C   UNL     1      40.531   8.104  19.572  0.00  0.00    +0.000 C 
ATOM      2  O   UNL     1      39.776   8.888  20.293  0.00  0.00    +0.000 OA
ATOM      3  N   UNL     1      40.082   7.792  18.337  0.00  0.00    +0.000 N 
ATOM      4  C   UNL     1      40.718   7.174  17.237  0.00  0.00    +0.000 A 
ATOM      5  C   UNL     1      42.084   7.304  17.194  0.00  0.00    +0.000 A 
ATOM      6  C   UNL     1      42.863   6.775  16.197  0.00  0.00    +0.000 A 
ATOM      7  C   UNL     1      42.197   6.073  15.189  0.00  0.00    +0.000 A 
ATOM      8  C   UNL     1      40.834   5.950  15.243  0.00  0.00    +0.000 A 
ATOM      9  C   UNL     1      40.117   6.490  16.244  0.00  0.00    +0.000 A 
ATOM     10  C   UNL     1      38.522   6.337  16.218  0.00  0.00    +0.000 C 
ATOM     11  C   UNL     1      38.304   6.380  17.858  0.00  0.00    +0.000 C 
ATOM     12  C   UNL     1      38.584   8.051  17.913  0.00  0.00    +0.000 C 
ATOM     13  C   UNL     1      37.918   8.157  19.423  0.00  0.00    +0.000 C 
ENDROOT
BRANCH   1  17
ATOM     14  C   UNL     1      44.058   6.824  21.581  0.00  0.00    +0.000 A 
ATOM     15  C   UNL     1      43.851   8.149  21.326  0.00  0.00    +0.000 A 
ATOM     16  C   UNL     1      42.722   8.572  20.683  0.00  0.00    +0.000 A 
ATOM     17  C   UNL     1      41.742   7.701  20.260  0.00  0.00    +0.000 A 
ATOM     18  C   UNL     1      41.962   6.337  20.525  0.00  0.00    +0.000 A 
ATOM     19  C   UNL     1      43.095   5.933  21.169  0.00  0.00    +0.000 A 
BRANCH  14  20
ATOM     20  C   UNL     1      45.241   6.284  22.265  0.00  0.00    +0.000 C 
BRANCH  20  21
ATOM     21  C   UNL     1      46.116   5.447  21.364  0.00  0.00    +0.000 C 
BRANCH  21  22
ATOM     22  C   UNL     1      46.912   6.331  20.438  0.00  0.00    +0.000 C 
BRANCH  22  24
ATOM     23  C   UNL     1      45.871   7.212  18.345  0.00  0.00    +0.000 C 
ATOM     24  C   UNL     1      46.509   5.997  19.000  0.00  0.00    +0.000 C 
ENDBRANCH  22  24
ENDBRANCH  21  22
ENDBRANCH  20  21
ENDBRANCH  14  20
ENDBRANCH   1  17
BRANCH  10  25
ATOM     25  N   UNL     1      38.530   4.765  16.140  0.00  0.00    +0.000 NA
BRANCH  25  26
ATOM     26  C   UNL     1      37.267   4.199  15.841  0.00  0.00    +0.000 A 
ATOM     27  C   UNL     1      36.524   4.621  14.762  0.00  0.00    +0.000 A 
ATOM     28  C   UNL     1      35.296   4.089  14.448  0.00  0.00    +0.000 A 
ATOM     29  C   UNL     1      34.787   3.095  15.240  0.00  0.00    +0.000 A 
ATOM     30  C   UNL     1      35.513   2.658  16.322  0.00  0.00    +0.000 A 
ATOM     31  C   UNL     1      36.736   3.182  16.644  0.00  0.00    +0.000 A 
ENDBRANCH  25  26
ENDBRANCH  10  25
TORSDOF 7
ENDMDL
