MODEL 1
REMARK VINA RESULT:      -7.5      0.000      0.000
REMARK  Name = 
REMARK  1 active torsions:
REMARK  status: ('A' for Active; 'I' for Inactive)
REMARK    1  A    between atoms: C_5  and  C_6
REMARK                            x       y       z     vdW  Elec       q    Type
REMARK                         _______ _______ _______ _____ _____    ______ ____
ROOT
ATOM      1  C   UNL     1      14.972  11.984  36.045  0.00  0.00    +0.000 A 
ATOM      2  C   UNL     1      16.286  11.663  36.310  0.00  0.00    +0.000 A 
ATOM      3  C   UNL     1      16.659  11.051  37.491  0.00  0.00    +0.000 A 
ATOM      4 CL   UNL     1      18.335  10.641  37.828  0.00  0.00    +0.000 Cl
ATOM      5  C   UNL     1      15.734  10.730  38.463  0.00  0.00    +0.000 A 
ATOM      6 CL   UNL     1      16.220   9.950  39.961  0.00  0.00    +0.000 Cl
ATOM      7  C   UNL     1      14.417  11.048  38.204  0.00  0.00    +0.000 A 
ATOM      8 CL   UNL     1      13.238  10.641  39.441  0.00  0.00    +0.000 Cl
ATOM      9  C   UNL     1      14.053  11.661  37.021  0.00  0.00    +0.000 A 
ATOM     10 CL   UNL     1      12.376  12.054  36.719  0.00  0.00    +0.000 Cl
ENDROOT
BRANCH   1  15
ATOM     11  O   UNL     1      13.603  14.383  31.088  0.00  0.00    +0.000 OA
ATOM     12  C   UNL     1      13.936  13.798  32.317  0.00  0.00    +0.000 A 
ATOM     13  C   UNL     1      13.520  14.366  33.502  0.00  0.00    +0.000 A 
ATOM     14  C   UNL     1      13.850  13.787  34.710  0.00  0.00    +0.000 A 
ATOM     15  C   UNL     1      14.599  12.631  34.793  0.00  0.00    +0.000 A 
ATOM     16  C   UNL     1      15.003  12.085  33.593  0.00  0.00    +0.000 A 
ATOM     17  C   UNL     1      14.686  12.642  32.373  0.00  0.00    +0.000 A 
ENDBRANCH   1  15
TORSDOF 1
ENDMDL
MODEL 2
REMARK VINA RESULT:      -7.3      3.780      6.396
REMARK  Name = 
REMARK  1 active torsions:
REMARK  status: ('A' for Active; 'I' for Inactive)
REMARK    1  A    between atoms: C_5  and  C_6
REMARK                            x       y       z     vdW  Elec       q    Type
REMARK                         _______ _______ _______ _____ _____    ______ ____
ROOT
ATOM      1  C   UNL     1      15.271  12.090  34.978  0.00  0.00    +0.000 A 
ATOM      2  C   UNL     1      14.466  13.207  35.047  0.00  0.00    +0.000 A 
ATOM      3  C   UNL     1      13.939  13.792  33.913  0.00  0.00    +0.000 A 
ATOM      4 CL   UNL     1      12.913  15.217  34.002  0.00  0.00    +0.000 Cl
ATOM      5  C   UNL     1      14.190  13.286  32.654  0.00  0.00    +0.000 A 
ATOM      6 CL   UNL     1      13.512  14.039  31.217  0.00  0.00    +0.000 Cl
ATOM      7  C   UNL     1      14.994  12.167  32.578  0.00  0.00    +0.000 A 
ATOM      8 CL   UNL     1      15.315  11.523  30.976  0.00  0.00    +0.000 Cl
ATOM      9  C   UNL     1      15.517  11.590  33.717  0.00  0.00    +0.000 A 
ATOM     10 CL   UNL     1      16.534  10.172  33.590  0.00  0.00    +0.000 Cl
ENDROOT
BRANCH   1  15
ATOM     11  O   UNL     1      17.253   9.758  39.757  0.00  0.00    +0.000 OA
ATOM     12  C   UNL     1      16.773  10.333  38.572  0.00  0.00    +0.000 A 
ATOM     13  C   UNL     1      17.612  10.536  37.498  0.00  0.00    +0.000 A 
ATOM     14  C   UNL     1      17.135  11.102  36.334  0.00  0.00    +0.000 A 
ATOM     15  C   UNL     1      15.818  11.488  36.187  0.00  0.00    +0.000 A 
ATOM     16  C   UNL     1      15.002  11.275  37.277  0.00  0.00    +0.000 A 
ATOM     17  C   UNL     1      15.452  10.710  38.451  0.00  0.00    +0.000 A 
ENDBRANCH   1  15
TORSDOF 1
ENDMDL
MODEL 3
REMARK VINA RESULT:      -7.2     29.149     30.757
REMARK  Name = 
REMARK  1 active torsions:
REMARK  status: ('A' for Active; 'I' for Inactive)
REMARK    1  A    between atoms: C_5  and  C_6
REMARK                            x       y       z     vdW  Elec       q    Type
REMARK                         _______ _______ _______ _____ _____    ______ ____
ROOT
ATOM      1  C   UNL     1      30.321  22.495  12.156  0.00  0.00    +0.000 A 
ATOM      2  C   UNL     1      30.136  23.418  13.164  0.00  0.00    +0.000 A 
ATOM      3  C   UNL     1      28.883  23.906  13.478  0.00  0.00    +0.000 A 
ATOM      4 CL   UNL     1      28.647  25.082  14.764  0.00  0.00    +0.000 Cl
ATOM      5  C   UNL     1      27.755  23.493  12.800  0.00  0.00    +0.000 A 
ATOM      6 CL   UNL     1      26.164  24.121  13.210  0.00  0.00    +0.000 Cl
ATOM      7  C   UNL     1      27.933  22.569  11.791  0.00  0.00    +0.000 A 
ATOM      8 CL   UNL     1      26.497  22.044  10.926  0.00  0.00    +0.000 Cl
ATOM      9  C   UNL     1      29.189  22.087  11.483  0.00  0.00    +0.000 A 
ATOM     10 CL   UNL     1      29.386  20.917  10.198  0.00  0.00    +0.000 Cl
ENDROOT
BRANCH   1  15
ATOM     11  O   UNL     1      35.522  20.661  10.816  0.00  0.00    +0.000 OA
ATOM     12  C   UNL     1      34.236  21.106  11.154  0.00  0.00    +0.000 A 
ATOM     13  C   UNL     1      33.485  20.438  12.097  0.00  0.00    +0.000 A 
ATOM     14  C   UNL     1      32.221  20.880  12.427  0.00  0.00    +0.000 A 
ATOM     15  C   UNL     1      31.652  21.992  11.840  0.00  0.00    +0.000 A 
ATOM     16  C   UNL     1      32.424  22.640  10.899  0.00  0.00    +0.000 A 
ATOM     17  C   UNL     1      33.691  22.221  10.552  0.00  0.00    +0.000 A 
ENDBRANCH   1  15
TORSDOF 1
ENDMDL
MODEL 4
REMARK VINA RESULT:      -7.1      3.426      5.688
REMARK  Name = 
REMARK  1 active torsions:
REMARK  status: ('A' for Active; 'I' for Inactive)
REMARK    1  A    between atoms: C_5  and  C_6
REMARK                            x       y       z     vdW  Elec       q    Type
REMARK                         _______ _______ _______ _____ _____    ______ ____
ROOT
ATOM      1  C   UNL     1      16.595  11.410  37.186  0.00  0.00    +0.000 A 
ATOM      2  C   UNL     1      16.112  12.170  36.142  0.00  0.00    +0.000 A 
ATOM      3  C   UNL     1      14.770  12.472  36.026  0.00  0.00    +0.000 A 
ATOM      4 CL   UNL     1      14.154  13.442  34.695  0.00  0.00    +0.000 Cl
ATOM      5  C   UNL     1      13.846  12.028  36.949  0.00  0.00    +0.000 A 
ATOM      6 CL   UNL     1      12.139  12.420  36.791  0.00  0.00    +0.000 Cl
ATOM      7  C   UNL     1      14.322  11.267  37.997  0.00  0.00    +0.000 A 
ATOM      8 CL   UNL     1      13.146  10.701  39.172  0.00  0.00    +0.000 Cl
ATOM      9  C   UNL     1      15.666  10.970  38.105  0.00  0.00    +0.000 A 
ATOM     10 CL   UNL     1      16.242  10.002  39.443  0.00  0.00    +0.000 Cl
ENDROOT
BRANCH   1  15
ATOM     11  O   UNL     1      22.105  10.084  37.491  0.00  0.00    +0.000 OA
ATOM     12  C   UNL     1      20.745  10.419  37.423  0.00  0.00    +0.000 A 
ATOM     13  C   UNL     1      20.251  11.500  38.120  0.00  0.00    +0.000 A 
ATOM     14  C   UNL     1      18.913  11.827  38.049  0.00  0.00    +0.000 A 
ATOM     15  C   UNL     1      18.016  11.102  37.290  0.00  0.00    +0.000 A 
ATOM     16  C   UNL     1      18.537  10.025  36.605  0.00  0.00    +0.000 A 
ATOM     17  C   UNL     1      19.870   9.678  36.657  0.00  0.00    +0.000 A 
ENDBRANCH   1  15
TORSDOF 1
ENDMDL
MODEL 5
REMARK VINA RESULT:      -6.7      1.315      1.581
REMARK  Name = 
REMARK  1 active torsions:
REMARK  status: ('A' for Active; 'I' for Inactive)
REMARK    1  A    between atoms: C_5  and  C_6
REMARK                            x       y       z     vdW  Elec       q    Type
REMARK                         _______ _______ _______ _____ _____    ______ ____
ROOT
ATOM      1  C   UNL     1      15.978  11.285  35.183  0.00  0.00    +0.000 A 
ATOM      2  C   UNL     1      17.258  10.796  35.337  0.00  0.00    +0.000 A 
ATOM      3  C   UNL     1      17.723  10.354  36.560  0.00  0.00    +0.000 A 
ATOM      4 CL   UNL     1      19.355   9.731  36.756  0.00  0.00    +0.000 Cl
ATOM      5  C   UNL     1      16.928  10.379  37.688  0.00  0.00    +0.000 A 
ATOM      6 CL   UNL     1      17.531   9.813  39.239  0.00  0.00    +0.000 Cl
ATOM      7  C   UNL     1      15.646  10.867  37.540  0.00  0.00    +0.000 A 
ATOM      8 CL   UNL     1      14.634  10.900  38.976  0.00  0.00    +0.000 Cl
ATOM      9  C   UNL     1      15.190  11.307  36.314  0.00  0.00    +0.000 A 
ATOM     10 CL   UNL     1      13.560  11.920  36.156  0.00  0.00    +0.000 Cl
ENDROOT
BRANCH   1  15
ATOM     11  O   UNL     1      14.224  12.959  30.052  0.00  0.00    +0.000 OA
ATOM     12  C   UNL     1      14.652  12.553  31.323  0.00  0.00    +0.000 A 
ATOM     13  C   UNL     1      14.284  13.259  32.448  0.00  0.00    +0.000 A 
ATOM     14  C   UNL     1      14.707  12.857  33.698  0.00  0.00    +0.000 A 
ATOM     15  C   UNL     1      15.506  11.747  33.883  0.00  0.00    +0.000 A 
ATOM     16  C   UNL     1      15.861  11.060  32.742  0.00  0.00    +0.000 A 
ATOM     17  C   UNL     1      15.450  11.440  31.481  0.00  0.00    +0.000 A 
ENDBRANCH   1  15
TORSDOF 1
ENDMDL
MODEL 6
REMARK VINA RESULT:      -6.6      3.985      6.220
REMARK  Name = 
REMARK  1 active torsions:
REMARK  status: ('A' for Active; 'I' for Inactive)
REMARK    1  A    between atoms: C_5  and  C_6
REMARK                            x       y       z     vdW  Elec       q    Type
REMARK                         _______ _______ _______ _____ _____    ______ ____
ROOT
ATOM      1  C   UNL     1      16.457  11.061  35.191  0.00  0.00    +0.000 A 
ATOM      2  C   UNL     1      16.593  10.584  33.904  0.00  0.00    +0.000 A 
ATOM      3  C   UNL     1      15.867  11.113  32.855  0.00  0.00    +0.000 A 
ATOM      4 CL   UNL     1      16.040  10.505  31.214  0.00  0.00    +0.000 Cl
ATOM      5  C   UNL     1      14.971  12.145  33.043  0.00  0.00    +0.000 A 
ATOM      6 CL   UNL     1      14.053  12.811  31.699  0.00  0.00    +0.000 Cl
ATOM      7  C   UNL     1      14.832  12.628  34.328  0.00  0.00    +0.000 A 
ATOM      8 CL   UNL     1      13.691  13.941  34.568  0.00  0.00    +0.000 Cl
ATOM      9  C   UNL     1      15.561  12.092  35.371  0.00  0.00    +0.000 A 
ATOM     10 CL   UNL     1      15.363  12.723  36.990  0.00  0.00    +0.000 Cl
ENDROOT
BRANCH   1  15
ATOM     11  O   UNL     1      19.601   8.807  39.343  0.00  0.00    +0.000 OA
ATOM     12  C   UNL     1      18.817   9.365  38.324  0.00  0.00    +0.000 A 
ATOM     13  C   UNL     1      17.536   9.804  38.582  0.00  0.00    +0.000 A 
ATOM     14  C   UNL     1      16.768  10.352  37.577  0.00  0.00    +0.000 A 
ATOM     15  C   UNL     1      17.233  10.488  36.284  0.00  0.00    +0.000 A 
ATOM     16  C   UNL     1      18.516  10.041  36.054  0.00  0.00    +0.000 A 
ATOM     17  C   UNL     1      19.306   9.490  37.041  0.00  0.00    +0.000 A 
ENDBRANCH   1  15
TORSDOF 1
ENDMDL
MODEL 7
REMARK VINA RESULT:      -6.5      3.962      6.784
REMARK  Name = 
REMARK  1 active torsions:
REMARK  status: ('A' for Active; 'I' for Inactive)
REMARK    1  A    between atoms: C_5  and  C_6
REMARK                            x       y       z     vdW  Elec       q    Type
REMARK                         _______ _______ _______ _____ _____    ______ ____
ROOT
ATOM      1  C   UNL     1      16.603  10.990  36.568  0.00  0.00    +0.000 A 
ATOM      2  C   UNL     1      15.579  11.913  36.526  0.00  0.00    +0.000 A 
ATOM      3  C   UNL     1      15.022  12.323  35.330  0.00  0.00    +0.000 A 
ATOM      4 CL   UNL     1      13.716  13.499  35.277  0.00  0.00    +0.000 Cl
ATOM      5  C   UNL     1      15.462  11.829  34.120  0.00  0.00    +0.000 A 
ATOM      6 CL   UNL     1      14.744  12.358  32.605  0.00  0.00    +0.000 Cl
ATOM      7  C   UNL     1      16.485  10.904  34.155  0.00  0.00    +0.000 A 
ATOM      8 CL   UNL     1      17.047  10.275  32.614  0.00  0.00    +0.000 Cl
ATOM      9  C   UNL     1      17.037  10.501  35.355  0.00  0.00    +0.000 A 
ATOM     10 CL   UNL     1      18.335   9.328  35.369  0.00  0.00    +0.000 Cl
ENDROOT
BRANCH   1  15
ATOM     11  O   UNL     1      18.692   9.304  41.568  0.00  0.00    +0.000 OA
ATOM     12  C   UNL     1      18.185   9.724  40.330  0.00  0.00    +0.000 A 
ATOM     13  C   UNL     1      19.009  10.312  39.395  0.00  0.00    +0.000 A 
ATOM     14  C   UNL     1      18.507  10.724  38.179  0.00  0.00    +0.000 A 
ATOM     15  C   UNL     1      17.178  10.570  37.840  0.00  0.00    +0.000 A 
ATOM     16  C   UNL     1      16.376   9.981  38.793  0.00  0.00    +0.000 A 
ATOM     17  C   UNL     1      16.852   9.559  40.017  0.00  0.00    +0.000 A 
ENDBRANCH   1  15
TORSDOF 1
ENDMDL
MODEL 8
REMARK VINA RESULT:      -6.4     29.276     31.603
REMARK  Name = 
REMARK  1 active torsions:
REMARK  status: ('A' for Active; 'I' for Inactive)
REMARK    1  A    between atoms: C_5  and  C_6
REMARK                            x       y       z     vdW  Elec       q    Type
REMARK                         _______ _______ _______ _____ _____    ______ ____
ROOT
ATOM      1  C   UNL     1      30.889  22.182  10.721  0.00  0.00    +0.000 A 
ATOM      2  C   UNL     1      31.266  22.510   9.436  0.00  0.00    +0.000 A 
ATOM      3  C   UNL     1      32.515  22.189   8.943  0.00  0.00    +0.000 A 
ATOM      4 CL   UNL     1      32.996  22.608   7.305  0.00  0.00    +0.000 Cl
ATOM      5  C   UNL     1      33.447  21.522   9.712  0.00  0.00    +0.000 A 
ATOM      6 CL   UNL     1      35.034  21.117   9.073  0.00  0.00    +0.000 Cl
ATOM      7  C   UNL     1      33.075  21.190  10.998  0.00  0.00    +0.000 A 
ATOM      8 CL   UNL     1      34.261  20.341  11.978  0.00  0.00    +0.000 Cl
ATOM      9  C   UNL     1      31.824  21.516  11.483  0.00  0.00    +0.000 A 
ATOM     10 CL   UNL     1      31.380  21.082  13.119  0.00  0.00    +0.000 Cl
ENDROOT
BRANCH   1  15
ATOM     11  O   UNL     1      25.804  23.661  12.761  0.00  0.00    +0.000 OA
ATOM     12  C   UNL     1      27.056  23.288  12.253  0.00  0.00    +0.000 A 
ATOM     13  C   UNL     1      27.171  22.234  11.372  0.00  0.00    +0.000 A 
ATOM     14  C   UNL     1      28.404  21.871  10.872  0.00  0.00    +0.000 A 
ATOM     15  C   UNL     1      29.565  22.531  11.223  0.00  0.00    +0.000 A 
ATOM     16  C   UNL     1      29.421  23.580  12.105  0.00  0.00    +0.000 A 
ATOM     17  C   UNL     1      28.200  23.964  12.618  0.00  0.00    +0.000 A 
ENDBRANCH   1  15
TORSDOF 1
ENDMDL
MODEL 9
REMARK VINA RESULT:      -6.2     29.566     31.661
REMARK  Name = 
REMARK  1 active torsions:
REMARK  status: ('A' for Active; 'I' for Inactive)
REMARK    1  A    between atoms: C_5  and  C_6
REMARK                            x       y       z     vdW  Elec       q    Type
REMARK                         _______ _______ _______ _____ _____    ______ ____
ROOT
ATOM      1  C   UNL     1      31.527  21.878  11.192  0.00  0.00    +0.000 A 
ATOM      2  C   UNL     1      32.404  21.165  11.982  0.00  0.00    +0.000 A 
ATOM      3  C   UNL     1      33.641  20.766  11.515  0.00  0.00    +0.000 A 
ATOM      4 CL   UNL     1      34.758  19.856  12.523  0.00  0.00    +0.000 Cl
ATOM      5  C   UNL     1      34.060  21.063  10.235  0.00  0.00    +0.000 A 
ATOM      6 CL   UNL     1      35.638  20.551   9.651  0.00  0.00    +0.000 Cl
ATOM      7  C   UNL     1      33.188  21.777   9.439  0.00  0.00    +0.000 A 
ATOM      8 CL   UNL     1      33.722  22.155   7.809  0.00  0.00    +0.000 Cl
ATOM      9  C   UNL     1      31.954  22.171   9.915  0.00  0.00    +0.000 A 
ATOM     10 CL   UNL     1      30.868  23.076   8.884  0.00  0.00    +0.000 Cl
ENDROOT
BRANCH   1  15
ATOM     11  O   UNL     1      26.390  23.402  13.061  0.00  0.00    +0.000 OA
ATOM     12  C   UNL     1      27.663  23.031  12.607  0.00  0.00    +0.000 A 
ATOM     13  C   UNL     1      28.794  23.408  13.298  0.00  0.00    +0.000 A 
ATOM     14  C   UNL     1      30.045  23.040  12.849  0.00  0.00    +0.000 A 
ATOM     15  C   UNL     1      30.226  22.289  11.705  0.00  0.00    +0.000 A 
ATOM     16  C   UNL     1      29.079  21.926  11.033  0.00  0.00    +0.000 A 
ATOM     17  C   UNL     1      27.817  22.280  11.461  0.00  0.00    +0.000 A 
ENDBRANCH   1  15
TORSDOF 1
ENDMDL
MODEL 10
REMARK VINA RESULT:      -6.1     20.596     21.650
REMARK  Name = 
REMARK  1 active torsions:
REMARK  status: ('A' for Active; 'I' for Inactive)
REMARK    1  A    between atoms: C_5  and  C_6
REMARK                            x       y       z     vdW  Elec       q    Type
REMARK                         _______ _______ _______ _____ _____    ______ ____
ROOT
ATOM      1  C   UNL     1      34.286   3.324  35.920  0.00  0.00    +0.000 A 
ATOM      2  C   UNL     1      34.339   2.658  37.126  0.00  0.00    +0.000 A 
ATOM      3  C   UNL     1      33.982   1.329  37.237  0.00  0.00    +0.000 A 
ATOM      4 CL   UNL     1      34.051   0.481  38.776  0.00  0.00    +0.000 Cl
ATOM      5  C   UNL     1      33.555   0.601  36.146  0.00  0.00    +0.000 A 
ATOM      6 CL   UNL     1      33.103  -1.091  36.300  0.00  0.00    +0.000 Cl
ATOM      7  C   UNL     1      33.499   1.261  34.936  0.00  0.00    +0.000 A 
ATOM      8 CL   UNL     1      32.954   0.335  33.546  0.00  0.00    +0.000 Cl
ATOM      9  C   UNL     1      33.858   2.590  34.834  0.00  0.00    +0.000 A 
ATOM     10 CL   UNL     1      33.777   3.402  33.286  0.00  0.00    +0.000 Cl
ENDROOT
BRANCH   1  15
ATOM     11  O   UNL     1      35.926   8.742  35.520  0.00  0.00    +0.000 OA
ATOM     12  C   UNL     1      35.511   7.407  35.621  0.00  0.00    +0.000 A 
ATOM     13  C   UNL     1      34.191   7.097  35.868  0.00  0.00    +0.000 A 
ATOM     14  C   UNL     1      33.787   5.782  35.965  0.00  0.00    +0.000 A 
ATOM     15  C   UNL     1      34.667   4.728  35.824  0.00  0.00    +0.000 A 
ATOM     16  C   UNL     1      35.981   5.066  35.579  0.00  0.00    +0.000 A 
ATOM     17  C   UNL     1      36.411   6.372  35.476  0.00  0.00    +0.000 A 
ENDBRANCH   1  15
TORSDOF 1
ENDMDL
