MODEL 1
REMARK VINA RESULT:      -6.4      0.000      0.000
REMARK  Name = 
REMARK  4 active torsions:
REMARK  status: ('A' for Active; 'I' for Inactive)
REMARK    1  A    between atoms: C_5  and  C_6
REMARK    2  A    between atoms: C_9  and  O_10
REMARK    3  A    between atoms: O_10  and  C_11
REMARK    4  A    between atoms: C_16  and  N_17
REMARK                            x       y       z     vdW  Elec       q    Type
REMARK                         _______ _______ _______ _____ _____    ______ ____
ROOT
ATOM      1  C   UNL     1      24.165  26.282  26.913  0.00  0.00    +0.000 C 
ATOM      2  C   UNL     1      25.047  25.207  27.434  0.00  0.00    +0.000 A 
ATOM      3  C   UNL     1      25.212  25.173  28.846  0.00  0.00    +0.000 A 
ATOM      4  C   UNL     1      26.049  24.182  29.318  0.00  0.00    +0.000 A 
ATOM      5  C   UNL     1      26.693  23.285  28.565  0.00  0.00    +0.000 A 
ATOM      6  C   UNL     1      26.520  23.328  27.157  0.00  0.00    +0.000 A 
ATOM      7  C   UNL     1      25.704  24.285  26.668  0.00  0.00    +0.000 A 
ENDROOT
BRANCH   5   8
ATOM      8  C   UNL     1      27.425  22.148  29.187  0.00  0.00    +0.000 C 
ATOM      9  C   UNL     1      28.596  22.707  30.104  0.00  0.00    +0.000 C 
ATOM     10  C   UNL     1      26.414  21.678  30.375  0.00  0.00    +0.000 C 
ENDBRANCH   5   8
BRANCH   6  11
ATOM     11  O   UNL     1      27.236  22.389  26.467  0.00  0.00    +0.000 OA
BRANCH  11  12
ATOM     12  C   UNL     1      28.389  22.683  25.721  0.00  0.00    +0.000 A 
ATOM     13  C   UNL     1      29.600  22.672  26.475  0.00  0.00    +0.000 A 
ATOM     14  C   UNL     1      30.788  22.951  25.896  0.00  0.00    +0.000 A 
ATOM     15  C   UNL     1      30.825  23.249  24.546  0.00  0.00    +0.000 A 
ATOM     16  C   UNL     1      29.653  23.265  23.779  0.00  0.00    +0.000 A 
ATOM     17  C   UNL     1      28.445  22.968  24.426  0.00  0.00    +0.000 A 
BRANCH  17  18
ATOM     18  N   UNL     1      27.223  22.989  23.683  0.00  0.00    +0.000 NA
ATOM     19  C   UNL     1      26.713  24.293  23.323  0.00  0.00    +0.000 C 
ATOM     20  O   UNL     1      27.347  25.295  23.683  0.00  0.00    +0.000 OA
ENDBRANCH  17  18
ENDBRANCH  11  12
ENDBRANCH   6  11
TORSDOF 4
ENDMDL
MODEL 2
REMARK VINA RESULT:      -6.0      1.561      2.618
REMARK  Name = 
REMARK  4 active torsions:
REMARK  status: ('A' for Active; 'I' for Inactive)
REMARK    1  A    between atoms: C_5  and  C_6
REMARK    2  A    between atoms: C_9  and  O_10
REMARK    3  A    between atoms: O_10  and  C_11
REMARK    4  A    between atoms: C_16  and  N_17
REMARK                            x       y       z     vdW  Elec       q    Type
REMARK                         _______ _______ _______ _____ _____    ______ ____
ROOT
ATOM      1  C   UNL     1      23.930  26.826  28.588  0.00  0.00    +0.000 C 
ATOM      2  C   UNL     1      24.822  25.650  28.752  0.00  0.00    +0.000 A 
ATOM      3  C   UNL     1      25.249  25.380  30.082  0.00  0.00    +0.000 A 
ATOM      4  C   UNL     1      26.093  24.296  30.222  0.00  0.00    +0.000 A 
ATOM      5  C   UNL     1      26.522  23.512  29.228  0.00  0.00    +0.000 A 
ATOM      6  C   UNL     1      26.089  23.791  27.905  0.00  0.00    +0.000 A 
ATOM      7  C   UNL     1      25.261  24.844  27.739  0.00  0.00    +0.000 A 
ENDROOT
BRANCH   5   8
ATOM      8  C   UNL     1      27.281  22.264  29.511  0.00  0.00    +0.000 C 
ATOM      9  C   UNL     1      28.455  22.577  30.536  0.00  0.00    +0.000 C 
ATOM     10  C   UNL     1      26.295  21.470  30.535  0.00  0.00    +0.000 C 
ENDBRANCH   5   8
BRANCH   6  11
ATOM     11  O   UNL     1      26.598  22.954  26.952  0.00  0.00    +0.000 OA
BRANCH  11  12
ATOM     12  C   UNL     1      26.797  23.328  25.613  0.00  0.00    +0.000 A 
ATOM     13  C   UNL     1      25.730  22.974  24.736  0.00  0.00    +0.000 A 
ATOM     14  C   UNL     1      25.786  23.254  23.415  0.00  0.00    +0.000 A 
ATOM     15  C   UNL     1      26.901  23.900  22.912  0.00  0.00    +0.000 A 
ATOM     16  C   UNL     1      27.963  24.263  23.750  0.00  0.00    +0.000 A 
ATOM     17  C   UNL     1      27.857  23.950  25.112  0.00  0.00    +0.000 A 
BRANCH  17  18
ATOM     18  N   UNL     1      28.927  24.288  26.000  0.00  0.00    +0.000 NA
ATOM     19  C   UNL     1      29.980  23.306  26.139  0.00  0.00    +0.000 C 
ATOM     20  O   UNL     1      29.887  22.247  25.502  0.00  0.00    +0.000 OA
ENDBRANCH  17  18
ENDBRANCH  11  12
ENDBRANCH   6  11
TORSDOF 4
ENDMDL
MODEL 3
REMARK VINA RESULT:      -5.9     18.389     21.646
REMARK  Name = 
REMARK  4 active torsions:
REMARK  status: ('A' for Active; 'I' for Inactive)
REMARK    1  A    between atoms: C_5  and  C_6
REMARK    2  A    between atoms: C_9  and  O_10
REMARK    3  A    between atoms: O_10  and  C_11
REMARK    4  A    between atoms: C_16  and  N_17
REMARK                            x       y       z     vdW  Elec       q    Type
REMARK                         _______ _______ _______ _____ _____    ______ ____
ROOT
ATOM      1  C   UNL     1      19.280   4.424  40.614  0.00  0.00    +0.000 C 
ATOM      2  C   UNL     1      18.668   5.776  40.670  0.00  0.00    +0.000 A 
ATOM      3  C   UNL     1      17.342   5.832  41.181  0.00  0.00    +0.000 A 
ATOM      4  C   UNL     1      16.774   7.090  41.212  0.00  0.00    +0.000 A 
ATOM      5  C   UNL     1      17.365   8.219  40.807  0.00  0.00    +0.000 A 
ATOM      6  C   UNL     1      18.689   8.150  40.300  0.00  0.00    +0.000 A 
ATOM      7  C   UNL     1      19.270   6.932  40.261  0.00  0.00    +0.000 A 
ENDROOT
BRANCH   5   8
ATOM      8  C   UNL     1      16.734   9.543  41.053  0.00  0.00    +0.000 C 
ATOM      9  C   UNL     1      15.171   9.447  40.781  0.00  0.00    +0.000 C 
ATOM     10  C   UNL     1      16.675   9.616  42.679  0.00  0.00    +0.000 C 
ENDBRANCH   5   8
BRANCH   6  11
ATOM     11  O   UNL     1      19.202   9.348  39.887  0.00  0.00    +0.000 OA
BRANCH  11  12
ATOM     12  C   UNL     1      19.968   9.507  38.720  0.00  0.00    +0.000 A 
ATOM     13  C   UNL     1      21.376   9.555  38.939  0.00  0.00    +0.000 A 
ATOM     14  C   UNL     1      22.240   9.720  37.913  0.00  0.00    +0.000 A 
ATOM     15  C   UNL     1      21.742   9.840  36.629  0.00  0.00    +0.000 A 
ATOM     16  C   UNL     1      20.364   9.793  36.382  0.00  0.00    +0.000 A 
ATOM     17  C   UNL     1      19.510   9.621  37.479  0.00  0.00    +0.000 A 
BRANCH  17  18
ATOM     18  N   UNL     1      18.094   9.584  37.274  0.00  0.00    +0.000 NA
ATOM     19  C   UNL     1      17.405  10.854  37.325  0.00  0.00    +0.000 C 
ATOM     20  O   UNL     1      18.068  11.876  37.552  0.00  0.00    +0.000 OA
ENDBRANCH  17  18
ENDBRANCH  11  12
ENDBRANCH   6  11
TORSDOF 4
ENDMDL
MODEL 4
REMARK VINA RESULT:      -5.8     16.804     19.021
REMARK  Name = 
REMARK  4 active torsions:
REMARK  status: ('A' for Active; 'I' for Inactive)
REMARK    1  A    between atoms: C_5  and  C_6
REMARK    2  A    between atoms: C_9  and  O_10
REMARK    3  A    between atoms: O_10  and  C_11
REMARK    4  A    between atoms: C_16  and  N_17
REMARK                            x       y       z     vdW  Elec       q    Type
REMARK                         _______ _______ _______ _____ _____    ______ ____
ROOT
ATOM      1  C   UNL     1      21.789  14.763  39.332  0.00  0.00    +0.000 C 
ATOM      2  C   UNL     1      21.996  13.430  38.710  0.00  0.00    +0.000 A 
ATOM      3  C   UNL     1      23.339  13.107  38.375  0.00  0.00    +0.000 A 
ATOM      4  C   UNL     1      23.518  11.874  37.781  0.00  0.00    +0.000 A 
ATOM      5  C   UNL     1      22.548  10.995  37.508  0.00  0.00    +0.000 A 
ATOM      6  C   UNL     1      21.211  11.328  37.848  0.00  0.00    +0.000 A 
ATOM      7  C   UNL     1      21.007  12.528  38.433  0.00  0.00    +0.000 A 
ENDROOT
BRANCH   5   8
ATOM      8  C   UNL     1      22.871   9.622  37.034  0.00  0.00    +0.000 C 
ATOM      9  C   UNL     1      24.094   9.682  36.020  0.00  0.00    +0.000 C 
ATOM     10  C   UNL     1      23.664   8.981  38.304  0.00  0.00    +0.000 C 
ENDBRANCH   5   8
BRANCH   6  11
ATOM     11  O   UNL     1      20.285  10.382  37.510  0.00  0.00    +0.000 OA
BRANCH  11  12
ATOM     12  C   UNL     1      19.101  10.158  38.230  0.00  0.00    +0.000 A 
ATOM     13  C   UNL     1      19.285   9.498  39.481  0.00  0.00    +0.000 A 
ATOM     14  C   UNL     1      18.236   9.200  40.278  0.00  0.00    +0.000 A 
ATOM     15  C   UNL     1      16.961   9.550  39.869  0.00  0.00    +0.000 A 
ATOM     16  C   UNL     1      16.749  10.202  38.648  0.00  0.00    +0.000 A 
ATOM     17  C   UNL     1      17.870  10.488  37.857  0.00  0.00    +0.000 A 
BRANCH  17  18
ATOM     18  N   UNL     1      17.697  11.139  36.595  0.00  0.00    +0.000 NA
ATOM     19  C   UNL     1      17.457  10.279  35.457  0.00  0.00    +0.000 C 
ATOM     20  O   UNL     1      17.429   9.054  35.639  0.00  0.00    +0.000 OA
ENDBRANCH  17  18
ENDBRANCH  11  12
ENDBRANCH   6  11
TORSDOF 4
ENDMDL
MODEL 5
REMARK VINA RESULT:      -5.8     18.370     21.701
REMARK  Name = 
REMARK  4 active torsions:
REMARK  status: ('A' for Active; 'I' for Inactive)
REMARK    1  A    between atoms: C_5  and  C_6
REMARK    2  A    between atoms: C_9  and  O_10
REMARK    3  A    between atoms: O_10  and  C_11
REMARK    4  A    between atoms: C_16  and  N_17
REMARK                            x       y       z     vdW  Elec       q    Type
REMARK                         _______ _______ _______ _____ _____    ______ ____
ROOT
ATOM      1  C   UNL     1      19.346   4.663  40.261  0.00  0.00    +0.000 C 
ATOM      2  C   UNL     1      18.638   5.956  40.453  0.00  0.00    +0.000 A 
ATOM      3  C   UNL     1      17.511   5.920  41.319  0.00  0.00    +0.000 A 
ATOM      4  C   UNL     1      16.849   7.121  41.476  0.00  0.00    +0.000 A 
ATOM      5  C   UNL     1      17.184   8.274  40.888  0.00  0.00    +0.000 A 
ATOM      6  C   UNL     1      18.311   8.298  40.026  0.00  0.00    +0.000 A 
ATOM      7  C   UNL     1      18.979   7.137  39.857  0.00  0.00    +0.000 A 
ENDROOT
BRANCH   5   8
ATOM      8  C   UNL     1      16.515   9.548  41.267  0.00  0.00    +0.000 C 
ATOM      9  C   UNL     1      14.999   9.515  40.791  0.00  0.00    +0.000 C 
ATOM     10  C   UNL     1      16.253   9.355  42.863  0.00  0.00    +0.000 C 
ENDBRANCH   5   8
BRANCH   6  11
ATOM     11  O   UNL     1      18.562   9.512  39.451  0.00  0.00    +0.000 OA
BRANCH  11  12
ATOM     12  C   UNL     1      18.417   9.769  38.078  0.00  0.00    +0.000 A 
ATOM     13  C   UNL     1      17.076  10.024  37.662  0.00  0.00    +0.000 A 
ATOM     14  C   UNL     1      16.778  10.271  36.368  0.00  0.00    +0.000 A 
ATOM     15  C   UNL     1      17.799  10.280  35.434  0.00  0.00    +0.000 A 
ATOM     16  C   UNL     1      19.125  10.036  35.812  0.00  0.00    +0.000 A 
ATOM     17  C   UNL     1      19.382   9.785  37.166  0.00  0.00    +0.000 A 
BRANCH  17  18
ATOM     18  N   UNL     1      20.721   9.516  37.594  0.00  0.00    +0.000 NA
ATOM     19  C   UNL     1      21.513  10.662  37.979  0.00  0.00    +0.000 C 
ATOM     20  O   UNL     1      20.999  11.787  37.905  0.00  0.00    +0.000 OA
ENDBRANCH  17  18
ENDBRANCH  11  12
ENDBRANCH   6  11
TORSDOF 4
ENDMDL
MODEL 6
REMARK VINA RESULT:      -5.6      2.292      3.912
REMARK  Name = 
REMARK  4 active torsions:
REMARK  status: ('A' for Active; 'I' for Inactive)
REMARK    1  A    between atoms: C_5  and  C_6
REMARK    2  A    between atoms: C_9  and  O_10
REMARK    3  A    between atoms: O_10  and  C_11
REMARK    4  A    between atoms: C_16  and  N_17
REMARK                            x       y       z     vdW  Elec       q    Type
REMARK                         _______ _______ _______ _____ _____    ______ ____
ROOT
ATOM      1  C   UNL     1      26.285  22.054  30.505  0.00  0.00    +0.000 C 
ATOM      2  C   UNL     1      27.522  22.263  29.709  0.00  0.00    +0.000 A 
ATOM      3  C   UNL     1      28.701  22.524  30.459  0.00  0.00    +0.000 A 
ATOM      4  C   UNL     1      29.842  22.735  29.711  0.00  0.00    +0.000 A 
ATOM      5  C   UNL     1      29.910  22.712  28.376  0.00  0.00    +0.000 A 
ATOM      6  C   UNL     1      28.727  22.449  27.638  0.00  0.00    +0.000 A 
ATOM      7  C   UNL     1      27.597  22.236  28.345  0.00  0.00    +0.000 A 
ENDROOT
BRANCH   5   8
ATOM      8  C   UNL     1      31.222  22.771  27.675  0.00  0.00    +0.000 C 
ATOM      9  C   UNL     1      31.925  24.163  27.980  0.00  0.00    +0.000 C 
ATOM     10  C   UNL     1      32.169  21.831  28.609  0.00  0.00    +0.000 C 
ENDBRANCH   5   8
BRANCH   6  11
ATOM     11  O   UNL     1      28.886  22.470  26.280  0.00  0.00    +0.000 OA
BRANCH  11  12
ATOM     12  C   UNL     1      28.098  23.247  25.415  0.00  0.00    +0.000 A 
ATOM     13  C   UNL     1      26.825  22.683  25.110  0.00  0.00    +0.000 A 
ATOM     14  C   UNL     1      25.963  23.309  24.278  0.00  0.00    +0.000 A 
ATOM     15  C   UNL     1      26.328  24.520  23.719  0.00  0.00    +0.000 A 
ATOM     16  C   UNL     1      27.571  25.100  24.003  0.00  0.00    +0.000 A 
ATOM     17  C   UNL     1      28.429  24.412  24.871  0.00  0.00    +0.000 A 
BRANCH  17  18
ATOM     18  N   UNL     1      29.715  24.961  25.176  0.00  0.00    +0.000 NA
ATOM     19  C   UNL     1      30.799  24.581  24.298  0.00  0.00    +0.000 C 
ATOM     20  O   UNL     1      30.556  23.807  23.361  0.00  0.00    +0.000 OA
ENDBRANCH  17  18
ENDBRANCH  11  12
ENDBRANCH   6  11
TORSDOF 4
ENDMDL
MODEL 7
REMARK VINA RESULT:      -5.5     21.819     24.252
REMARK  Name = 
REMARK  4 active torsions:
REMARK  status: ('A' for Active; 'I' for Inactive)
REMARK    1  A    between atoms: C_5  and  C_6
REMARK    2  A    between atoms: C_9  and  O_10
REMARK    3  A    between atoms: O_10  and  C_11
REMARK    4  A    between atoms: C_16  and  N_17
REMARK                            x       y       z     vdW  Elec       q    Type
REMARK                         _______ _______ _______ _____ _____    ______ ____
ROOT
ATOM      1  C   UNL     1      33.713   4.088  40.536  0.00  0.00    +0.000 C 
ATOM      2  C   UNL     1      33.796   4.143  39.053  0.00  0.00    +0.000 A 
ATOM      3  C   UNL     1      33.437   5.385  38.461  0.00  0.00    +0.000 A 
ATOM      4  C   UNL     1      33.499   5.420  37.082  0.00  0.00    +0.000 A 
ATOM      5  C   UNL     1      33.859   4.402  36.295  0.00  0.00    +0.000 A 
ATOM      6  C   UNL     1      34.215   3.167  36.898  0.00  0.00    +0.000 A 
ATOM      7  C   UNL     1      34.166   3.105  38.245  0.00  0.00    +0.000 A 
ENDROOT
BRANCH   5   8
ATOM      8  C   UNL     1      34.068   4.600  34.835  0.00  0.00    +0.000 C 
ATOM      9  C   UNL     1      32.809   5.346  34.214  0.00  0.00    +0.000 C 
ATOM     10  C   UNL     1      35.114   5.848  34.789  0.00  0.00    +0.000 C 
ENDBRANCH   5   8
BRANCH   6  11
ATOM     11  O   UNL     1      34.544   2.177  36.014  0.00  0.00    +0.000 OA
BRANCH  11  12
ATOM     12  C   UNL     1      33.765   1.027  35.808  0.00  0.00    +0.000 A 
ATOM     13  C   UNL     1      33.676   0.163  36.940  0.00  0.00    +0.000 A 
ATOM     14  C   UNL     1      32.974  -0.990  36.888  0.00  0.00    +0.000 A 
ATOM     15  C   UNL     1      32.329  -1.332  35.712  0.00  0.00    +0.000 A 
ATOM     16  C   UNL     1      32.396  -0.502  34.586  0.00  0.00    +0.000 A 
ATOM     17  C   UNL     1      33.137   0.683  34.691  0.00  0.00    +0.000 A 
BRANCH  17  18
ATOM     18  N   UNL     1      33.244   1.552  33.559  0.00  0.00    +0.000 NA
ATOM     19  C   UNL     1      34.109   1.106  32.489  0.00  0.00    +0.000 C 
ATOM     20  O   UNL     1      34.703   0.026  32.620  0.00  0.00    +0.000 OA
ENDBRANCH  17  18
ENDBRANCH  11  12
ENDBRANCH   6  11
TORSDOF 4
ENDMDL
MODEL 8
REMARK VINA RESULT:      -5.5      2.848      4.523
REMARK  Name = 
REMARK  4 active torsions:
REMARK  status: ('A' for Active; 'I' for Inactive)
REMARK    1  A    between atoms: C_5  and  C_6
REMARK    2  A    between atoms: C_9  and  O_10
REMARK    3  A    between atoms: O_10  and  C_11
REMARK    4  A    between atoms: C_16  and  N_17
REMARK                            x       y       z     vdW  Elec       q    Type
REMARK                         _______ _______ _______ _____ _____    ______ ____
ROOT
ATOM      1  C   UNL     1      31.278  27.907  25.445  0.00  0.00    +0.000 C 
ATOM      2  C   UNL     1      31.071  26.458  25.699  0.00  0.00    +0.000 A 
ATOM      3  C   UNL     1      31.540  25.979  26.953  0.00  0.00    +0.000 A 
ATOM      4  C   UNL     1      31.360  24.627  27.172  0.00  0.00    +0.000 A 
ATOM      5  C   UNL     1      30.796  23.770  26.316  0.00  0.00    +0.000 A 
ATOM      6  C   UNL     1      30.330  24.261  25.068  0.00  0.00    +0.000 A 
ATOM      7  C   UNL     1      30.491  25.579  24.828  0.00  0.00    +0.000 A 
ENDROOT
BRANCH   5   8
ATOM      8  C   UNL     1      30.486  22.373  26.724  0.00  0.00    +0.000 C 
ATOM      9  C   UNL     1      31.470  21.929  27.890  0.00  0.00    +0.000 C 
ATOM     10  C   UNL     1      29.139  22.553  27.622  0.00  0.00    +0.000 C 
ENDBRANCH   5   8
BRANCH   6  11
ATOM     11  O   UNL     1      29.792  23.309  24.248  0.00  0.00    +0.000 OA
BRANCH  11  12
ATOM     12  C   UNL     1      28.491  23.380  23.721  0.00  0.00    +0.000 A 
ATOM     13  C   UNL     1      27.457  23.094  24.661  0.00  0.00    +0.000 A 
ATOM     14  C   UNL     1      26.156  23.107  24.296  0.00  0.00    +0.000 A 
ATOM     15  C   UNL     1      25.828  23.409  22.987  0.00  0.00    +0.000 A 
ATOM     16  C   UNL     1      26.822  23.697  22.043  0.00  0.00    +0.000 A 
ATOM     17  C   UNL     1      28.156  23.670  22.470  0.00  0.00    +0.000 A 
BRANCH  17  18
ATOM     18  N   UNL     1      29.203  23.943  21.535  0.00  0.00    +0.000 NA
ATOM     19  C   UNL     1      29.428  25.335  21.212  0.00  0.00    +0.000 C 
ATOM     20  O   UNL     1      28.705  26.189  21.746  0.00  0.00    +0.000 OA
ENDBRANCH  17  18
ENDBRANCH  11  12
ENDBRANCH   6  11
TORSDOF 4
ENDMDL
MODEL 9
REMARK VINA RESULT:      -5.4     31.282     32.885
REMARK  Name = 
REMARK  4 active torsions:
REMARK  status: ('A' for Active; 'I' for Inactive)
REMARK    1  A    between atoms: C_5  and  C_6
REMARK    2  A    between atoms: C_9  and  O_10
REMARK    3  A    between atoms: O_10  and  C_11
REMARK    4  A    between atoms: C_16  and  N_17
REMARK                            x       y       z     vdW  Elec       q    Type
REMARK                         _______ _______ _______ _____ _____    ______ ____
ROOT
ATOM      1  C   UNL     1      21.263 -11.044  28.983  0.00  0.00    +0.000 C 
ATOM      2  C   UNL     1      20.509 -10.072  28.152  0.00  0.00    +0.000 A 
ATOM      3  C   UNL     1      19.315  -9.561  28.732  0.00  0.00    +0.000 A 
ATOM      4  C   UNL     1      18.610  -8.672  27.945  0.00  0.00    +0.000 A 
ATOM      5  C   UNL     1      18.961  -8.274  26.718  0.00  0.00    +0.000 A 
ATOM      6  C   UNL     1      20.156  -8.790  26.150  0.00  0.00    +0.000 A 
ATOM      7  C   UNL     1      20.866  -9.660  26.899  0.00  0.00    +0.000 A 
ENDROOT
BRANCH   5   8
ATOM      8  C   UNL     1      18.229  -7.176  26.030  0.00  0.00    +0.000 C 
ATOM      9  C   UNL     1      16.670  -7.330  26.294  0.00  0.00    +0.000 C 
ATOM     10  C   UNL     1      18.497  -5.901  27.008  0.00  0.00    +0.000 C 
ENDBRANCH   5   8
BRANCH   6  11
ATOM     11  O   UNL     1      20.421  -8.347  24.884  0.00  0.00    +0.000 OA
BRANCH  11  12
ATOM     12  C   UNL     1      21.711  -8.036  24.422  0.00  0.00    +0.000 A 
ATOM     13  C   UNL     1      22.198  -6.764  24.843  0.00  0.00    +0.000 A 
ATOM     14  C   UNL     1      23.417  -6.320  24.464  0.00  0.00    +0.000 A 
ATOM     15  C   UNL     1      24.202  -7.122  23.656  0.00  0.00    +0.000 A 
ATOM     16  C   UNL     1      23.752  -8.378  23.230  0.00  0.00    +0.000 A 
ATOM     17  C   UNL     1      22.481  -8.792  23.650  0.00  0.00    +0.000 A 
BRANCH  17  18
ATOM     18  N   UNL     1      21.976 -10.062  23.224  0.00  0.00    +0.000 NA
ATOM     19  C   UNL     1      21.260 -10.078  21.968  0.00  0.00    +0.000 C 
ATOM     20  O   UNL     1      21.119  -9.010  21.354  0.00  0.00    +0.000 OA
ENDBRANCH  17  18
ENDBRANCH  11  12
ENDBRANCH   6  11
TORSDOF 4
ENDMDL
MODEL 10
REMARK VINA RESULT:      -5.3      1.245      4.268
REMARK  Name = 
REMARK  4 active torsions:
REMARK  status: ('A' for Active; 'I' for Inactive)
REMARK    1  A    between atoms: C_5  and  C_6
REMARK    2  A    between atoms: C_9  and  O_10
REMARK    3  A    between atoms: O_10  and  C_11
REMARK    4  A    between atoms: C_16  and  N_17
REMARK                            x       y       z     vdW  Elec       q    Type
REMARK                         _______ _______ _______ _____ _____    ______ ____
ROOT
ATOM      1  C   UNL     1      31.029  22.655  24.789  0.00  0.00    +0.000 C 
ATOM      2  C   UNL     1      30.102  22.742  25.947  0.00  0.00    +0.000 A 
ATOM      3  C   UNL     1      30.693  22.546  27.225  0.00  0.00    +0.000 A 
ATOM      4  C   UNL     1      29.820  22.610  28.294  0.00  0.00    +0.000 A 
ATOM      5  C   UNL     1      28.505  22.835  28.210  0.00  0.00    +0.000 A 
ATOM      6  C   UNL     1      27.928  23.030  26.929  0.00  0.00    +0.000 A 
ATOM      7  C   UNL     1      28.758  22.975  25.866  0.00  0.00    +0.000 A 
ENDROOT
BRANCH   5   8
ATOM      8  C   UNL     1      27.689  23.065  29.433  0.00  0.00    +0.000 C 
ATOM      9  C   UNL     1      27.046  21.692  29.910  0.00  0.00    +0.000 C 
ATOM     10  C   UNL     1      28.820  23.201  30.598  0.00  0.00    +0.000 C 
ENDBRANCH   5   8
BRANCH   6  11
ATOM     11  O   UNL     1      26.575  23.228  26.939  0.00  0.00    +0.000 OA
BRANCH  11  12
ATOM     12  C   UNL     1      25.956  24.403  26.481  0.00  0.00    +0.000 A 
ATOM     13  C   UNL     1      25.967  25.479  27.416  0.00  0.00    +0.000 A 
ATOM     14  C   UNL     1      25.395  26.668  27.123  0.00  0.00    +0.000 A 
ATOM     15  C   UNL     1      24.793  26.838  25.889  0.00  0.00    +0.000 A 
ATOM     16  C   UNL     1      24.770  25.800  24.949  0.00  0.00    +0.000 A 
ATOM     17  C   UNL     1      25.377  24.587  25.301  0.00  0.00    +0.000 A 
BRANCH  17  18
ATOM     18  N   UNL     1      25.362  23.495  24.376  0.00  0.00    +0.000 NA
ATOM     19  C   UNL     1      26.306  23.569  23.282  0.00  0.00    +0.000 C 
ATOM     20  O   UNL     1      27.046  24.560  23.207  0.00  0.00    +0.000 OA
ENDBRANCH  17  18
ENDBRANCH  11  12
ENDBRANCH   6  11
TORSDOF 4
ENDMDL
