MODEL 1
REMARK VINA RESULT:      -6.6      0.000      0.000
REMARK  Name = 
REMARK  3 active torsions:
REMARK  status: ('A' for Active; 'I' for Inactive)
REMARK    1  A    between atoms: C_10  and  C_11
REMARK    2  A    between atoms: C_11  and  C_12
REMARK    3  A    between atoms: C_12  and  N_13
REMARK                            x       y       z     vdW  Elec       q    Type
REMARK                         _______ _______ _______ _____ _____    ______ ____
ROOT
ATOM      1  C   UNL     1      26.010  23.764  25.456  0.00  0.00    +0.000 C 
ENDROOT
BRANCH   1  11
ATOM      2  C   UNL     1      24.059  26.131  26.190  0.00  0.00    +0.000 C 
ATOM      3  C   UNL     1      24.820  25.283  27.155  0.00  0.00    +0.000 A 
ATOM      4  N   UNL     1      24.833  25.359  28.497  0.00  0.00    +0.000 NA
ATOM      5  C   UNL     1      25.683  24.435  28.994  0.00  0.00    +0.000 A 
ATOM      6  C   UNL     1      26.061  24.099  30.286  0.00  0.00    +0.000 A 
ATOM      7  C   UNL     1      26.976  23.087  30.479  0.00  0.00    +0.000 A 
ATOM      8  C   UNL     1      27.538  22.384  29.444  0.00  0.00    +0.000 A 
ATOM      9  C   UNL     1      27.170  22.708  28.152  0.00  0.00    +0.000 A 
ATOM     10  C   UNL     1      26.255  23.723  27.965  0.00  0.00    +0.000 A 
ATOM     11  C   UNL     1      25.700  24.267  26.797  0.00  0.00    +0.000 A 
ENDBRANCH   1  11
BRANCH   1  12
ATOM     12  C   UNL     1      27.019  24.510  24.730  0.00  0.00    +0.000 C 
BRANCH  12  13
ATOM     13  N   UNL     1      28.274  23.971  24.403  0.00  0.00    +0.000 N 
ATOM     14  C   UNL     1      28.719  23.503  23.112  0.00  0.00    +0.000 C 
ATOM     15  O   UNL     1      27.930  23.002  22.261  0.00  0.00    +0.000 OA
ATOM     16  O   UNL     1      30.099  23.709  23.024  0.00  0.00    +0.000 OA
ATOM     17  C   UNL     1      30.486  24.445  24.195  0.00  0.00    +0.000 C 
ATOM     18  C   UNL     1      30.189  25.903  24.087  0.00  0.00    +0.000 C 
ATOM     19  C   UNL     1      31.905  24.145  24.581  0.00  0.00    +0.000 C 
ATOM     20  C   UNL     1      29.502  23.803  25.209  0.00  0.00    +0.000 C 
ATOM     21  C   UNL     1      29.948  22.386  25.330  0.00  0.00    +0.000 C 
ATOM     22  O   UNL     1      29.456  24.509  26.384  0.00  0.00    +0.000 OA
ENDBRANCH  12  13
ENDBRANCH   1  12
TORSDOF 3
ENDMDL
MODEL 2
REMARK VINA RESULT:      -6.6      1.935      2.693
REMARK  Name = 
REMARK  3 active torsions:
REMARK  status: ('A' for Active; 'I' for Inactive)
REMARK    1  A    between atoms: C_10  and  C_11
REMARK    2  A    between atoms: C_11  and  C_12
REMARK    3  A    between atoms: C_12  and  N_13
REMARK                            x       y       z     vdW  Elec       q    Type
REMARK                         _______ _______ _______ _____ _____    ______ ____
ROOT
ATOM      1  C   UNL     1      25.765  23.494  25.946  0.00  0.00    +0.000 C 
ENDROOT
BRANCH   1  11
ATOM      2  C   UNL     1      24.992  25.469  28.281  0.00  0.00    +0.000 C 
ATOM      3  C   UNL     1      26.255  24.679  28.174  0.00  0.00    +0.000 A 
ATOM      4  N   UNL     1      27.294  24.656  29.026  0.00  0.00    +0.000 NA
ATOM      5  C   UNL     1      28.256  23.841  28.544  0.00  0.00    +0.000 A 
ATOM      6  C   UNL     1      29.506  23.472  29.020  0.00  0.00    +0.000 A 
ATOM      7  C   UNL     1      30.278  22.601  28.281  0.00  0.00    +0.000 A 
ATOM      8  C   UNL     1      29.867  22.073  27.084  0.00  0.00    +0.000 A 
ATOM      9  C   UNL     1      28.624  22.432  26.599  0.00  0.00    +0.000 A 
ATOM     10  C   UNL     1      27.856  23.305  27.342  0.00  0.00    +0.000 A 
ATOM     11  C   UNL     1      26.580  23.841  27.113  0.00  0.00    +0.000 A 
ENDBRANCH   1  11
BRANCH   1  12
ATOM     12  C   UNL     1      25.866  24.405  24.823  0.00  0.00    +0.000 C 
BRANCH  12  13
ATOM     13  N   UNL     1      26.697  24.160  23.718  0.00  0.00    +0.000 N 
ATOM     14  C   UNL     1      26.317  23.609  22.439  0.00  0.00    +0.000 C 
ATOM     15  O   UNL     1      25.367  22.784  22.308  0.00  0.00    +0.000 OA
ATOM     16  O   UNL     1      27.162  24.145  21.463  0.00  0.00    +0.000 OA
ATOM     17  C   UNL     1      27.965  25.144  22.110  0.00  0.00    +0.000 C 
ATOM     18  C   UNL     1      27.243  26.436  22.296  0.00  0.00    +0.000 C 
ATOM     19  C   UNL     1      29.299  25.289  21.438  0.00  0.00    +0.000 C 
ATOM     20  C   UNL     1      28.128  24.453  23.491  0.00  0.00    +0.000 C 
ATOM     21  C   UNL     1      28.951  23.240  23.216  0.00  0.00    +0.000 C 
ATOM     22  O   UNL     1      28.640  25.313  24.428  0.00  0.00    +0.000 OA
ENDBRANCH  12  13
ENDBRANCH   1  12
TORSDOF 3
ENDMDL
MODEL 3
REMARK VINA RESULT:      -6.5      3.086      4.404
REMARK  Name = 
REMARK  3 active torsions:
REMARK  status: ('A' for Active; 'I' for Inactive)
REMARK    1  A    between atoms: C_10  and  C_11
REMARK    2  A    between atoms: C_11  and  C_12
REMARK    3  A    between atoms: C_12  and  N_13
REMARK                            x       y       z     vdW  Elec       q    Type
REMARK                         _______ _______ _______ _____ _____    ______ ____
ROOT
ATOM      1  C   UNL     1      27.661  23.439  22.171  0.00  0.00    +0.000 C 
ENDROOT
BRANCH   1  11
ATOM      2  C   UNL     1      25.108  23.320  24.019  0.00  0.00    +0.000 C 
ATOM      3  C   UNL     1      26.523  23.131  24.456  0.00  0.00    +0.000 A 
ATOM      4  N   UNL     1      26.985  22.885  25.694  0.00  0.00    +0.000 NA
ATOM      5  C   UNL     1      28.333  22.820  25.669  0.00  0.00    +0.000 A 
ATOM      6  C   UNL     1      29.284  22.596  26.654  0.00  0.00    +0.000 A 
ATOM      7  C   UNL     1      30.619  22.592  26.312  0.00  0.00    +0.000 A 
ATOM      8  C   UNL     1      31.061  22.799  25.030  0.00  0.00    +0.000 A 
ATOM      9  C   UNL     1      30.124  23.023  24.040  0.00  0.00    +0.000 A 
ATOM     10  C   UNL     1      28.788  23.027  24.388  0.00  0.00    +0.000 A 
ATOM     11  C   UNL     1      27.631  23.223  23.620  0.00  0.00    +0.000 A 
ENDBRANCH   1  11
BRANCH   1  12
ATOM     12  C   UNL     1      27.404  24.798  21.739  0.00  0.00    +0.000 C 
BRANCH  12  13
ATOM     13  N   UNL     1      28.343  25.832  21.879  0.00  0.00    +0.000 N 
ATOM     14  C   UNL     1      29.298  26.290  20.897  0.00  0.00    +0.000 C 
ATOM     15  O   UNL     1      29.800  25.523  20.027  0.00  0.00    +0.000 OA
ATOM     16  O   UNL     1      29.522  27.653  21.108  0.00  0.00    +0.000 OA
ATOM     17  C   UNL     1      28.594  28.077  22.119  0.00  0.00    +0.000 C 
ATOM     18  C   UNL     1      27.221  28.312  21.583  0.00  0.00    +0.000 C 
ATOM     19  C   UNL     1      29.140  29.231  22.909  0.00  0.00    +0.000 C 
ATOM     20  C   UNL     1      28.584  26.786  22.982  0.00  0.00    +0.000 C 
ATOM     21  C   UNL     1      29.958  26.702  23.556  0.00  0.00    +0.000 C 
ATOM     22  O   UNL     1      27.563  26.798  23.896  0.00  0.00    +0.000 OA
ENDBRANCH  12  13
ENDBRANCH   1  12
TORSDOF 3
ENDMDL
MODEL 4
REMARK VINA RESULT:      -6.4      2.712      6.248
REMARK  Name = 
REMARK  3 active torsions:
REMARK  status: ('A' for Active; 'I' for Inactive)
REMARK    1  A    between atoms: C_10  and  C_11
REMARK    2  A    between atoms: C_11  and  C_12
REMARK    3  A    between atoms: C_12  and  N_13
REMARK                            x       y       z     vdW  Elec       q    Type
REMARK                         _______ _______ _______ _____ _____    ______ ____
ROOT
ATOM      1  C   UNL     1      29.057  22.325  27.512  0.00  0.00    +0.000 C 
ENDROOT
BRANCH   1  11
ATOM      2  C   UNL     1      31.592  23.380  25.960  0.00  0.00    +0.000 C 
ATOM      3  C   UNL     1      30.196  23.323  25.434  0.00  0.00    +0.000 A 
ATOM      4  N   UNL     1      29.746  23.707  24.227  0.00  0.00    +0.000 NA
ATOM      5  C   UNL     1      28.410  23.527  24.164  0.00  0.00    +0.000 A 
ATOM      6  C   UNL     1      27.473  23.760  23.167  0.00  0.00    +0.000 A 
ATOM      7  C   UNL     1      26.148  23.470  23.409  0.00  0.00    +0.000 A 
ATOM      8  C   UNL     1      25.702  22.955  24.599  0.00  0.00    +0.000 A 
ATOM      9  C   UNL     1      26.624  22.719  25.600  0.00  0.00    +0.000 A 
ATOM     10  C   UNL     1      27.950  23.012  25.354  0.00  0.00    +0.000 A 
ATOM     11  C   UNL     1      29.093  22.883  26.158  0.00  0.00    +0.000 A 
ENDBRANCH   1  11
BRANCH   1  12
ATOM     12  C   UNL     1      28.821  23.283  28.574  0.00  0.00    +0.000 C 
BRANCH  12  13
ATOM     13  N   UNL     1      27.544  23.536  29.099  0.00  0.00    +0.000 N 
ATOM     14  C   UNL     1      26.732  22.650  29.899  0.00  0.00    +0.000 C 
ATOM     15  O   UNL     1      26.781  21.392  29.785  0.00  0.00    +0.000 OA
ATOM     16  O   UNL     1      25.947  23.429  30.754  0.00  0.00    +0.000 OA
ATOM     17  C   UNL     1      26.381  24.789  30.595  0.00  0.00    +0.000 C 
ATOM     18  C   UNL     1      27.630  25.090  31.352  0.00  0.00    +0.000 C 
ATOM     19  C   UNL     1      25.262  25.752  30.868  0.00  0.00    +0.000 C 
ATOM     20  C   UNL     1      26.706  24.754  29.077  0.00  0.00    +0.000 C 
ATOM     21  C   UNL     1      25.387  24.560  28.409  0.00  0.00    +0.000 C 
ATOM     22  O   UNL     1      27.408  25.864  28.686  0.00  0.00    +0.000 OA
ENDBRANCH  12  13
ENDBRANCH   1  12
TORSDOF 3
ENDMDL
MODEL 5
REMARK VINA RESULT:      -6.3      2.258      3.553
REMARK  Name = 
REMARK  3 active torsions:
REMARK  status: ('A' for Active; 'I' for Inactive)
REMARK    1  A    between atoms: C_10  and  C_11
REMARK    2  A    between atoms: C_11  and  C_12
REMARK    3  A    between atoms: C_12  and  N_13
REMARK                            x       y       z     vdW  Elec       q    Type
REMARK                         _______ _______ _______ _____ _____    ______ ____
ROOT
ATOM      1  C   UNL     1      27.327  22.628  25.574  0.00  0.00    +0.000 C 
ENDROOT
BRANCH   1  11
ATOM      2  C   UNL     1      30.436  22.305  25.155  0.00  0.00    +0.000 C 
ATOM      3  C   UNL     1      29.736  22.491  26.461  0.00  0.00    +0.000 A 
ATOM      4  N   UNL     1      30.274  22.549  27.691  0.00  0.00    +0.000 NA
ATOM      5  C   UNL     1      29.292  22.686  28.608  0.00  0.00    +0.000 A 
ATOM      6  C   UNL     1      29.301  22.790  29.992  0.00  0.00    +0.000 A 
ATOM      7  C   UNL     1      28.106  22.920  30.665  0.00  0.00    +0.000 A 
ATOM      8  C   UNL     1      26.891  22.953  30.029  0.00  0.00    +0.000 A 
ATOM      9  C   UNL     1      26.868  22.850  28.651  0.00  0.00    +0.000 A 
ATOM     10  C   UNL     1      28.068  22.719  27.982  0.00  0.00    +0.000 A 
ATOM     11  C   UNL     1      28.357  22.596  26.614  0.00  0.00    +0.000 A 
ENDBRANCH   1  11
BRANCH   1  12
ATOM     12  C   UNL     1      27.070  23.930  24.990  0.00  0.00    +0.000 C 
BRANCH  12  13
ATOM     13  N   UNL     1      27.440  24.260  23.677  0.00  0.00    +0.000 N 
ATOM     14  C   UNL     1      26.685  24.032  22.468  0.00  0.00    +0.000 C 
ATOM     15  O   UNL     1      25.890  23.058  22.335  0.00  0.00    +0.000 OA
ATOM     16  O   UNL     1      27.002  25.043  21.556  0.00  0.00    +0.000 OA
ATOM     17  C   UNL     1      27.836  25.984  22.251  0.00  0.00    +0.000 C 
ATOM     18  C   UNL     1      27.058  26.915  23.121  0.00  0.00    +0.000 C 
ATOM     19  C   UNL     1      28.773  26.681  21.308  0.00  0.00    +0.000 C 
ATOM     20  C   UNL     1      28.615  24.986  23.150  0.00  0.00    +0.000 C 
ATOM     21  C   UNL     1      29.438  24.182  22.201  0.00  0.00    +0.000 C 
ATOM     22  O   UNL     1      29.315  25.634  24.134  0.00  0.00    +0.000 OA
ENDBRANCH  12  13
ENDBRANCH   1  12
TORSDOF 3
ENDMDL
MODEL 6
REMARK VINA RESULT:      -6.2      2.510      5.911
REMARK  Name = 
REMARK  3 active torsions:
REMARK  status: ('A' for Active; 'I' for Inactive)
REMARK    1  A    between atoms: C_10  and  C_11
REMARK    2  A    between atoms: C_11  and  C_12
REMARK    3  A    between atoms: C_12  and  N_13
REMARK                            x       y       z     vdW  Elec       q    Type
REMARK                         _______ _______ _______ _____ _____    ______ ____
ROOT
ATOM      1  C   UNL     1      29.734  22.446  26.731  0.00  0.00    +0.000 C 
ENDROOT
BRANCH   1  11
ATOM      2  C   UNL     1      31.843  23.234  24.523  0.00  0.00    +0.000 C 
ATOM      3  C   UNL     1      30.359  23.210  24.358  0.00  0.00    +0.000 A 
ATOM      4  N   UNL     1      29.640  23.518  23.265  0.00  0.00    +0.000 NA
ATOM      5  C   UNL     1      28.323  23.406  23.544  0.00  0.00    +0.000 A 
ATOM      6  C   UNL     1      27.178  23.607  22.786  0.00  0.00    +0.000 A 
ATOM      7  C   UNL     1      25.944  23.409  23.366  0.00  0.00    +0.000 A 
ATOM      8  C   UNL     1      25.788  23.017  24.671  0.00  0.00    +0.000 A 
ATOM      9  C   UNL     1      26.920  22.814  25.436  0.00  0.00    +0.000 A 
ATOM     10  C   UNL     1      28.154  23.014  24.851  0.00  0.00    +0.000 A 
ATOM     11  C   UNL     1      29.454  22.889  25.364  0.00  0.00    +0.000 A 
ENDBRANCH   1  11
BRANCH   1  12
ATOM     12  C   UNL     1      30.110  23.493  27.661  0.00  0.00    +0.000 C 
BRANCH  12  13
ATOM     13  N   UNL     1      29.170  24.212  28.416  0.00  0.00    +0.000 N 
ATOM     14  C   UNL     1      28.217  25.184  27.936  0.00  0.00    +0.000 C 
ATOM     15  O   UNL     1      28.438  25.916  26.929  0.00  0.00    +0.000 OA
ATOM     16  O   UNL     1      27.091  25.138  28.763  0.00  0.00    +0.000 OA
ATOM     17  C   UNL     1      27.279  24.033  29.662  0.00  0.00    +0.000 C 
ATOM     18  C   UNL     1      26.962  22.717  29.036  0.00  0.00    +0.000 C 
ATOM     19  C   UNL     1      26.575  24.268  30.967  0.00  0.00    +0.000 C 
ATOM     20  C   UNL     1      28.817  24.145  29.850  0.00  0.00    +0.000 C 
ATOM     21  C   UNL     1      29.019  25.432  30.576  0.00  0.00    +0.000 C 
ATOM     22  O   UNL     1      29.332  23.034  30.465  0.00  0.00    +0.000 OA
ENDBRANCH  12  13
ENDBRANCH   1  12
TORSDOF 3
ENDMDL
MODEL 7
REMARK VINA RESULT:      -6.1      3.497      6.180
REMARK  Name = 
REMARK  3 active torsions:
REMARK  status: ('A' for Active; 'I' for Inactive)
REMARK    1  A    between atoms: C_10  and  C_11
REMARK    2  A    between atoms: C_11  and  C_12
REMARK    3  A    between atoms: C_12  and  N_13
REMARK                            x       y       z     vdW  Elec       q    Type
REMARK                         _______ _______ _______ _____ _____    ______ ____
ROOT
ATOM      1  C   UNL     1      29.742  22.473  26.805  0.00  0.00    +0.000 C 
ENDROOT
BRANCH   1  11
ATOM      2  C   UNL     1      31.834  23.190  24.555  0.00  0.00    +0.000 C 
ATOM      3  C   UNL     1      30.349  23.171  24.406  0.00  0.00    +0.000 A 
ATOM      4  N   UNL     1      29.620  23.455  23.313  0.00  0.00    +0.000 NA
ATOM      5  C   UNL     1      28.306  23.359  23.607  0.00  0.00    +0.000 A 
ATOM      6  C   UNL     1      27.155  23.547  22.856  0.00  0.00    +0.000 A 
ATOM      7  C   UNL     1      25.926  23.373  23.453  0.00  0.00    +0.000 A 
ATOM      8  C   UNL     1      25.780  23.017  24.769  0.00  0.00    +0.000 A 
ATOM      9  C   UNL     1      26.918  22.826  25.528  0.00  0.00    +0.000 A 
ATOM     10  C   UNL     1      28.147  23.003  24.926  0.00  0.00    +0.000 A 
ATOM     11  C   UNL     1      29.452  22.883  25.429  0.00  0.00    +0.000 A 
ENDBRANCH   1  11
BRANCH   1  12
ATOM     12  C   UNL     1      29.960  23.556  27.744  0.00  0.00    +0.000 C 
BRANCH  12  13
ATOM     13  N   UNL     1      30.478  23.352  29.032  0.00  0.00    +0.000 N 
ATOM     14  C   UNL     1      29.875  22.611  30.114  0.00  0.00    +0.000 C 
ATOM     15  O   UNL     1      28.623  22.517  30.261  0.00  0.00    +0.000 OA
ATOM     16  O   UNL     1      30.899  22.068  30.897  0.00  0.00    +0.000 OA
ATOM     17  C   UNL     1      32.134  22.342  30.215  0.00  0.00    +0.000 C 
ATOM     18  C   UNL     1      32.396  21.398  29.090  0.00  0.00    +0.000 C 
ATOM     19  C   UNL     1      33.275  22.458  31.184  0.00  0.00    +0.000 C 
ATOM     20  C   UNL     1      31.774  23.735  29.632  0.00  0.00    +0.000 C 
ATOM     21  C   UNL     1      31.643  24.624  30.822  0.00  0.00    +0.000 C 
ATOM     22  O   UNL     1      32.687  24.139  28.692  0.00  0.00    +0.000 OA
ENDBRANCH  12  13
ENDBRANCH   1  12
TORSDOF 3
ENDMDL
MODEL 8
REMARK VINA RESULT:      -6.0      1.677      3.509
REMARK  Name = 
REMARK  3 active torsions:
REMARK  status: ('A' for Active; 'I' for Inactive)
REMARK    1  A    between atoms: C_10  and  C_11
REMARK    2  A    between atoms: C_11  and  C_12
REMARK    3  A    between atoms: C_12  and  N_13
REMARK                            x       y       z     vdW  Elec       q    Type
REMARK                         _______ _______ _______ _____ _____    ______ ____
ROOT
ATOM      1  C   UNL     1      27.054  23.118  27.289  0.00  0.00    +0.000 C 
ENDROOT
BRANCH   1  11
ATOM      2  C   UNL     1      27.557  22.328  30.301  0.00  0.00    +0.000 C 
ATOM      3  C   UNL     1      26.659  23.417  29.812  0.00  0.00    +0.000 A 
ATOM      4  N   UNL     1      25.897  24.254  30.537  0.00  0.00    +0.000 NA
ATOM      5  C   UNL     1      25.204  25.064  29.709  0.00  0.00    +0.000 A 
ATOM      6  C   UNL     1      24.292  26.086  29.936  0.00  0.00    +0.000 A 
ATOM      7  C   UNL     1      23.737  26.744  28.859  0.00  0.00    +0.000 A 
ATOM      8  C   UNL     1      24.046  26.438  27.559  0.00  0.00    +0.000 A 
ATOM      9  C   UNL     1      24.953  25.423  27.320  0.00  0.00    +0.000 A 
ATOM     10  C   UNL     1      25.505  24.767  28.401  0.00  0.00    +0.000 A 
ATOM     11  C   UNL     1      26.433  23.717  28.473  0.00  0.00    +0.000 A 
ENDBRANCH   1  11
BRANCH   1  12
ATOM     12  C   UNL     1      28.104  23.904  26.671  0.00  0.00    +0.000 C 
BRANCH  12  13
ATOM     13  N   UNL     1      28.356  23.883  25.290  0.00  0.00    +0.000 N 
ATOM     14  C   UNL     1      29.002  22.839  24.531  0.00  0.00    +0.000 C 
ATOM     15  O   UNL     1      29.893  22.090  25.025  0.00  0.00    +0.000 OA
ATOM     16  O   UNL     1      28.469  22.842  23.239  0.00  0.00    +0.000 OA
ATOM     17  C   UNL     1      27.384  23.785  23.239  0.00  0.00    +0.000 C 
ATOM     18  C   UNL     1      26.133  23.227  23.832  0.00  0.00    +0.000 C 
ATOM     19  C   UNL     1      27.191  24.391  21.880  0.00  0.00    +0.000 C 
ATOM     20  C   UNL     1      27.984  24.830  24.218  0.00  0.00    +0.000 C 
ATOM     21  C   UNL     1      29.155  25.403  23.493  0.00  0.00    +0.000 C 
ATOM     22  O   UNL     1      27.041  25.738  24.626  0.00  0.00    +0.000 OA
ENDBRANCH  12  13
ENDBRANCH   1  12
TORSDOF 3
ENDMDL
MODEL 9
REMARK VINA RESULT:      -5.9      2.375      4.012
REMARK  Name = 
REMARK  3 active torsions:
REMARK  status: ('A' for Active; 'I' for Inactive)
REMARK    1  A    between atoms: C_10  and  C_11
REMARK    2  A    between atoms: C_11  and  C_12
REMARK    3  A    between atoms: C_12  and  N_13
REMARK                            x       y       z     vdW  Elec       q    Type
REMARK                         _______ _______ _______ _____ _____    ______ ____
ROOT
ATOM      1  C   UNL     1      27.822  22.202  27.023  0.00  0.00    +0.000 C 
ENDROOT
BRANCH   1  11
ATOM      2  C   UNL     1      26.449  22.345  29.859  0.00  0.00    +0.000 C 
ATOM      3  C   UNL     1      27.902  22.538  29.571  0.00  0.00    +0.000 A 
ATOM      4  N   UNL     1      28.892  22.812  30.437  0.00  0.00    +0.000 NA
ATOM      5  C   UNL     1      30.055  22.950  29.766  0.00  0.00    +0.000 A 
ATOM      6  C   UNL     1      31.351  23.231  30.174  0.00  0.00    +0.000 A 
ATOM      7  C   UNL     1      32.351  23.312  29.229  0.00  0.00    +0.000 A 
ATOM      8  C   UNL     1      32.127  23.125  27.889  0.00  0.00    +0.000 A 
ATOM      9  C   UNL     1      30.841  22.844  27.470  0.00  0.00    +0.000 A 
ATOM     10  C   UNL     1      29.843  22.765  28.420  0.00  0.00    +0.000 A 
ATOM     11  C   UNL     1      28.470  22.502  28.302  0.00  0.00    +0.000 A 
ENDBRANCH   1  11
BRANCH   1  12
ATOM     12  C   UNL     1      27.119  23.310  26.406  0.00  0.00    +0.000 C 
BRANCH  12  13
ATOM     13  N   UNL     1      27.703  24.132  25.430  0.00  0.00    +0.000 N 
ATOM     14  C   UNL     1      28.699  25.159  25.628  0.00  0.00    +0.000 C 
ATOM     15  O   UNL     1      28.780  25.832  26.695  0.00  0.00    +0.000 OA
ATOM     16  O   UNL     1      29.483  25.237  24.474  0.00  0.00    +0.000 OA
ATOM     17  C   UNL     1      29.076  24.156  23.620  0.00  0.00    +0.000 C 
ATOM     18  C   UNL     1      29.668  22.846  24.021  0.00  0.00    +0.000 C 
ATOM     19  C   UNL     1      29.287  24.496  22.173  0.00  0.00    +0.000 C 
ATOM     20  C   UNL     1      27.561  24.149  23.959  0.00  0.00    +0.000 C 
ATOM     21  C   UNL     1      27.045  25.442  23.423  0.00  0.00    +0.000 C 
ATOM     22  O   UNL     1      26.941  23.024  23.480  0.00  0.00    +0.000 OA
ENDBRANCH  12  13
ENDBRANCH   1  12
TORSDOF 3
ENDMDL
MODEL 10
REMARK VINA RESULT:      -5.9      1.153      2.272
REMARK  Name = 
REMARK  3 active torsions:
REMARK  status: ('A' for Active; 'I' for Inactive)
REMARK    1  A    between atoms: C_10  and  C_11
REMARK    2  A    between atoms: C_11  and  C_12
REMARK    3  A    between atoms: C_12  and  N_13
REMARK                            x       y       z     vdW  Elec       q    Type
REMARK                         _______ _______ _______ _____ _____    ______ ____
ROOT
ATOM      1  C   UNL     1      25.589  23.999  25.501  0.00  0.00    +0.000 C 
ENDROOT
BRANCH   1  11
ATOM      2  C   UNL     1      23.696  26.518  25.358  0.00  0.00    +0.000 C 
ATOM      3  C   UNL     1      24.293  25.932  26.595  0.00  0.00    +0.000 A 
ATOM      4  N   UNL     1      24.155  26.353  27.864  0.00  0.00    +0.000 NA
ATOM      5  C   UNL     1      24.892  25.571  28.682  0.00  0.00    +0.000 A 
ATOM      6  C   UNL     1      25.099  25.573  30.054  0.00  0.00    +0.000 A 
ATOM      7  C   UNL     1      25.930  24.625  30.610  0.00  0.00    +0.000 A 
ATOM      8  C   UNL     1      26.570  23.665  29.868  0.00  0.00    +0.000 A 
ATOM      9  C   UNL     1      26.372  23.652  28.500  0.00  0.00    +0.000 A 
ATOM     10  C   UNL     1      25.539  24.605  27.948  0.00  0.00    +0.000 A 
ATOM     11  C   UNL     1      25.153  24.839  26.619  0.00  0.00    +0.000 A 
ENDBRANCH   1  11
BRANCH   1  12
ATOM     12  C   UNL     1      26.414  24.662  24.510  0.00  0.00    +0.000 C 
BRANCH  12  13
ATOM     13  N   UNL     1      27.816  24.675  24.575  0.00  0.00    +0.000 N 
ATOM     14  C   UNL     1      28.646  25.436  25.479  0.00  0.00    +0.000 C 
ATOM     15  O   UNL     1      28.299  26.561  25.938  0.00  0.00    +0.000 OA
ATOM     16  O   UNL     1      29.818  24.711  25.711  0.00  0.00    +0.000 OA
ATOM     17  C   UNL     1      29.651  23.434  25.076  0.00  0.00    +0.000 C 
ATOM     18  C   UNL     1      28.823  22.490  25.883  0.00  0.00    +0.000 C 
ATOM     19  C   UNL     1      30.972  22.863  24.647  0.00  0.00    +0.000 C 
ATOM     20  C   UNL     1      28.833  23.893  23.840  0.00  0.00    +0.000 C 
ATOM     21  C   UNL     1      29.777  24.734  23.049  0.00  0.00    +0.000 C 
ATOM     22  O   UNL     1      28.289  22.828  23.170  0.00  0.00    +0.000 OA
ENDBRANCH  12  13
ENDBRANCH   1  12
TORSDOF 3
ENDMDL
