MODEL 1
REMARK VINA RESULT:      -7.1      0.000      0.000
REMARK  Name = 
REMARK  3 active torsions:
REMARK  status: ('A' for Active; 'I' for Inactive)
REMARK    1  A    between atoms: O_2  and  C_3
REMARK    2  A    between atoms: C_8  and  C_9
REMARK    3  A    between atoms: N_11  and  C_12
REMARK                            x       y       z     vdW  Elec       q    Type
REMARK                         _______ _______ _______ _____ _____    ______ ____
ROOT
ATOM      1  C   UNL     1      14.708  12.427  32.017  0.00  0.00    +0.000 A 
ATOM      2  C   UNL     1      15.401  11.434  31.359  0.00  0.00    +0.000 A 
ATOM      3  C   UNL     1      16.229  10.550  32.044  0.00  0.00    +0.000 A 
ATOM      4  C   UNL     1      16.355  10.679  33.425  0.00  0.00    +0.000 A 
ATOM      5  N   UNL     1      17.069   9.983  34.327  0.00  0.00    +0.000 NA
ATOM      6  C   UNL     1      16.879  10.475  35.570  0.00  0.00    +0.000 A 
ATOM      7  C   UNL     1      16.008  11.525  35.429  0.00  0.00    +0.000 A 
ATOM      8  C   UNL     1      15.671  11.666  34.101  0.00  0.00    +0.000 A 
ATOM      9  C   UNL     1      14.860  12.525  33.394  0.00  0.00    +0.000 A 
ENDROOT
BRANCH   6  10
ATOM     10  C   UNL     1      17.477   9.990  36.791  0.00  0.00    +0.000 C 
ATOM     11  O   UNL     1      18.312   9.041  36.740  0.00  0.00    +0.000 OA
ATOM     12  N   UNL     1      17.180  10.522  38.056  0.00  0.00    +0.000 NA
BRANCH  12  13
ATOM     13  C   UNL     1      17.814   9.991  39.238  0.00  0.00    +0.000 A 
ATOM     14  C   UNL     1      19.102  10.382  39.524  0.00  0.00    +0.000 A 
ATOM     15  C   UNL     1      19.750   9.903  40.641  0.00  0.00    +0.000 A 
ATOM     16  C   UNL     1      19.101   9.024  41.480  0.00  0.00    +0.000 A 
ATOM     17  C   UNL     1      19.804   8.496  42.703  0.00  0.00    +0.000 C 
ATOM     18  C   UNL     1      17.814   8.643  41.181  0.00  0.00    +0.000 A 
ATOM     19  F   UNL     1      17.219   7.768  42.047  0.00  0.00    +0.000 F 
ATOM     20  C   UNL     1      17.166   9.116  40.071  0.00  0.00    +0.000 A 
ENDBRANCH  12  13
ENDBRANCH   6  10
BRANCH   1  22
ATOM     21  C   UNL     1      13.842  14.658  31.556  0.00  0.00    +0.000 C 
ATOM     22  O   UNL     1      13.903  13.271  31.278  0.00  0.00    +0.000 OA
ENDBRANCH   1  22
TORSDOF 3
ENDMDL
MODEL 2
REMARK VINA RESULT:      -6.5      2.276      3.120
REMARK  Name = 
REMARK  3 active torsions:
REMARK  status: ('A' for Active; 'I' for Inactive)
REMARK    1  A    between atoms: O_2  and  C_3
REMARK    2  A    between atoms: C_8  and  C_9
REMARK    3  A    between atoms: N_11  and  C_12
REMARK                            x       y       z     vdW  Elec       q    Type
REMARK                         _______ _______ _______ _____ _____    ______ ____
ROOT
ATOM      1  C   UNL     1      15.600  11.776  33.894  0.00  0.00    +0.000 A 
ATOM      2  C   UNL     1      16.661  10.957  33.573  0.00  0.00    +0.000 A 
ATOM      3  C   UNL     1      17.343  10.237  34.549  0.00  0.00    +0.000 A 
ATOM      4  C   UNL     1      16.940  10.353  35.878  0.00  0.00    +0.000 A 
ATOM      5  N   UNL     1      17.404   9.790  37.006  0.00  0.00    +0.000 NA
ATOM      6  C   UNL     1      16.690  10.203  38.075  0.00  0.00    +0.000 A 
ATOM      7  C   UNL     1      15.741  11.062  37.584  0.00  0.00    +0.000 A 
ATOM      8  C   UNL     1      15.882  11.167  36.218  0.00  0.00    +0.000 A 
ATOM      9  C   UNL     1      15.226  11.866  35.229  0.00  0.00    +0.000 A 
ENDROOT
BRANCH   6  10
ATOM     10  C   UNL     1      16.893   9.814  39.451  0.00  0.00    +0.000 C 
ATOM     11  O   UNL     1      18.071   9.728  39.905  0.00  0.00    +0.000 OA
ATOM     12  N   UNL     1      15.839   9.523  40.331  0.00  0.00    +0.000 NA
BRANCH  12  13
ATOM     13  C   UNL     1      16.111   9.141  41.695  0.00  0.00    +0.000 A 
ATOM     14  C   UNL     1      16.083   7.804  42.020  0.00  0.00    +0.000 A 
ATOM     15  C   UNL     1      16.336   7.390  43.309  0.00  0.00    +0.000 A 
ATOM     16  C   UNL     1      16.620   8.323  44.281  0.00  0.00    +0.000 A 
ATOM     17  C   UNL     1      16.897   7.877  45.693  0.00  0.00    +0.000 C 
ATOM     18  C   UNL     1      16.645   9.655  43.941  0.00  0.00    +0.000 A 
ATOM     19  F   UNL     1      16.931  10.538  44.945  0.00  0.00    +0.000 F 
ATOM     20  C   UNL     1      16.393  10.072  42.660  0.00  0.00    +0.000 A 
ENDBRANCH  12  13
ENDBRANCH   6  10
BRANCH   1  22
ATOM     21  C   UNL     1      15.449  12.417  31.548  0.00  0.00    +0.000 C 
ATOM     22  O   UNL     1      14.964  12.462  32.878  0.00  0.00    +0.000 OA
ENDBRANCH   1  22
TORSDOF 3
ENDMDL
MODEL 3
REMARK VINA RESULT:      -6.3      1.385      1.906
REMARK  Name = 
REMARK  3 active torsions:
REMARK  status: ('A' for Active; 'I' for Inactive)
REMARK    1  A    between atoms: O_2  and  C_3
REMARK    2  A    between atoms: C_8  and  C_9
REMARK    3  A    between atoms: N_11  and  C_12
REMARK                            x       y       z     vdW  Elec       q    Type
REMARK                         _______ _______ _______ _____ _____    ______ ____
ROOT
ATOM      1  C   UNL     1      14.828  12.584  33.597  0.00  0.00    +0.000 A 
ATOM      2  C   UNL     1      15.533  11.695  32.814  0.00  0.00    +0.000 A 
ATOM      3  C   UNL     1      16.398  10.762  33.375  0.00  0.00    +0.000 A 
ATOM      4  C   UNL     1      16.551  10.731  34.760  0.00  0.00    +0.000 A 
ATOM      5  N   UNL     1      17.302   9.956  35.560  0.00  0.00    +0.000 NA
ATOM      6  C   UNL     1      17.125  10.293  36.856  0.00  0.00    +0.000 A 
ATOM      7  C   UNL     1      16.224  11.326  36.855  0.00  0.00    +0.000 A 
ATOM      8  C   UNL     1      15.855  11.612  35.559  0.00  0.00    +0.000 A 
ATOM      9  C   UNL     1      15.006  12.523  34.974  0.00  0.00    +0.000 A 
ENDROOT
BRANCH   6  10
ATOM     10  C   UNL     1      17.762   9.685  38.001  0.00  0.00    +0.000 C 
ATOM     11  O   UNL     1      18.935   9.226  37.888  0.00  0.00    +0.000 OA
ATOM     12  N   UNL     1      17.142   9.573  39.255  0.00  0.00    +0.000 NA
BRANCH  12  13
ATOM     13  C   UNL     1      17.834   8.954  40.359  0.00  0.00    +0.000 A 
ATOM     14  C   UNL     1      17.625   7.616  40.597  0.00  0.00    +0.000 A 
ATOM     15  C   UNL     1      18.263   6.980  41.639  0.00  0.00    +0.000 A 
ATOM     16  C   UNL     1      19.119   7.692  42.449  0.00  0.00    +0.000 A 
ATOM     17  C   UNL     1      19.820   7.003  43.591  0.00  0.00    +0.000 C 
ATOM     18  C   UNL     1      19.318   9.030  42.199  0.00  0.00    +0.000 A 
ATOM     19  F   UNL     1      20.175   9.688  43.036  0.00  0.00    +0.000 F 
ATOM     20  C   UNL     1      18.685   9.667  41.165  0.00  0.00    +0.000 A 
ENDBRANCH  12  13
ENDBRANCH   6  10
BRANCH   1  22
ATOM     21  C   UNL     1      13.859  13.524  31.568  0.00  0.00    +0.000 C 
ATOM     22  O   UNL     1      13.984  13.485  32.978  0.00  0.00    +0.000 OA
ENDBRANCH   1  22
TORSDOF 3
ENDMDL
MODEL 4
REMARK VINA RESULT:      -6.3     20.642     22.873
REMARK  Name = 
REMARK  3 active torsions:
REMARK  status: ('A' for Active; 'I' for Inactive)
REMARK    1  A    between atoms: O_2  and  C_3
REMARK    2  A    between atoms: C_8  and  C_9
REMARK    3  A    between atoms: N_11  and  C_12
REMARK                            x       y       z     vdW  Elec       q    Type
REMARK                         _______ _______ _______ _____ _____    ______ ____
ROOT
ATOM      1  C   UNL     1      20.328  -7.275  25.709  0.00  0.00    +0.000 A 
ATOM      2  C   UNL     1      19.803  -6.069  26.121  0.00  0.00    +0.000 A 
ATOM      3  C   UNL     1      18.438  -5.907  26.335  0.00  0.00    +0.000 A 
ATOM      4  C   UNL     1      17.589  -6.992  26.126  0.00  0.00    +0.000 A 
ATOM      5  N   UNL     1      16.258  -7.123  26.251  0.00  0.00    +0.000 NA
ATOM      6  C   UNL     1      15.869  -8.378  25.937  0.00  0.00    +0.000 A 
ATOM      7  C   UNL     1      17.015  -9.053  25.603  0.00  0.00    +0.000 A 
ATOM      8  C   UNL     1      18.095  -8.206  25.715  0.00  0.00    +0.000 A 
ATOM      9  C   UNL     1      19.451  -8.335  25.512  0.00  0.00    +0.000 A 
ENDROOT
BRANCH   6  10
ATOM     10  C   UNL     1      14.520  -8.893  25.953  0.00  0.00    +0.000 C 
ATOM     11  O   UNL     1      14.331 -10.140  25.848  0.00  0.00    +0.000 OA
ATOM     12  N   UNL     1      13.387  -8.076  26.082  0.00  0.00    +0.000 NA
BRANCH  12  13
ATOM     13  C   UNL     1      12.066  -8.655  26.091  0.00  0.00    +0.000 A 
ATOM     14  C   UNL     1      11.359  -8.695  24.912  0.00  0.00    +0.000 A 
ATOM     15  C   UNL     1      10.094  -9.238  24.870  0.00  0.00    +0.000 A 
ATOM     16  C   UNL     1       9.533  -9.747  26.020  0.00  0.00    +0.000 A 
ATOM     17  C   UNL     1       8.149 -10.342  25.981  0.00  0.00    +0.000 C 
ATOM     18  C   UNL     1      10.251  -9.700  27.191  0.00  0.00    +0.000 A 
ATOM     19  F   UNL     1       9.646 -10.217  28.302  0.00  0.00    +0.000 F 
ATOM     20  C   UNL     1      11.510  -9.160  27.238  0.00  0.00    +0.000 A 
ENDBRANCH  12  13
ENDBRANCH   6  10
BRANCH   1  22
ATOM     21  C   UNL     1      22.322  -8.627  25.342  0.00  0.00    +0.000 C 
ATOM     22  O   UNL     1      21.692  -7.371  25.516  0.00  0.00    +0.000 OA
ENDBRANCH   1  22
TORSDOF 3
ENDMDL
MODEL 5
REMARK VINA RESULT:      -6.3      2.027      2.336
REMARK  Name = 
REMARK  3 active torsions:
REMARK  status: ('A' for Active; 'I' for Inactive)
REMARK    1  A    between atoms: O_2  and  C_3
REMARK    2  A    between atoms: C_8  and  C_9
REMARK    3  A    between atoms: N_11  and  C_12
REMARK                            x       y       z     vdW  Elec       q    Type
REMARK                         _______ _______ _______ _____ _____    ______ ____
ROOT
ATOM      1  C   UNL     1      14.940  12.144  32.611  0.00  0.00    +0.000 A 
ATOM      2  C   UNL     1      15.706  11.283  31.854  0.00  0.00    +0.000 A 
ATOM      3  C   UNL     1      16.712  10.512  32.427  0.00  0.00    +0.000 A 
ATOM      4  C   UNL     1      16.945  10.618  33.797  0.00  0.00    +0.000 A 
ATOM      5  N   UNL     1      17.831  10.010  34.603  0.00  0.00    +0.000 NA
ATOM      6  C   UNL     1      17.687  10.432  35.877  0.00  0.00    +0.000 A 
ATOM      7  C   UNL     1      16.664  11.345  35.857  0.00  0.00    +0.000 A 
ATOM      8  C   UNL     1      16.190  11.473  34.570  0.00  0.00    +0.000 A 
ATOM      9  C   UNL     1      15.201  12.223  33.973  0.00  0.00    +0.000 A 
ENDROOT
BRANCH   6  10
ATOM     10  C   UNL     1      18.458  10.005  37.021  0.00  0.00    +0.000 C 
ATOM     11  O   UNL     1      18.175   8.910  37.587  0.00  0.00    +0.000 OA
ATOM     12  N   UNL     1      19.526  10.748  37.548  0.00  0.00    +0.000 NA
BRANCH  12  13
ATOM     13  C   UNL     1      20.257  10.264  38.694  0.00  0.00    +0.000 A 
ATOM     14  C   UNL     1      19.770  10.545  39.949  0.00  0.00    +0.000 A 
ATOM     15  C   UNL     1      20.432  10.104  41.074  0.00  0.00    +0.000 A 
ATOM     16  C   UNL     1      21.592   9.375  40.939  0.00  0.00    +0.000 A 
ATOM     17  C   UNL     1      22.322   8.890  42.164  0.00  0.00    +0.000 C 
ATOM     18  C   UNL     1      22.067   9.101  39.677  0.00  0.00    +0.000 A 
ATOM     19  F   UNL     1      23.222   8.375  39.602  0.00  0.00    +0.000 F 
ATOM     20  C   UNL     1      21.412   9.538  38.556  0.00  0.00    +0.000 A 
ENDBRANCH  12  13
ENDBRANCH   6  10
BRANCH   1  22
ATOM     21  C   UNL     1      14.149  13.399  30.677  0.00  0.00    +0.000 C 
ATOM     22  O   UNL     1      13.956  12.880  31.981  0.00  0.00    +0.000 OA
ENDBRANCH   1  22
TORSDOF 3
ENDMDL
MODEL 6
REMARK VINA RESULT:      -6.2     20.833     22.589
REMARK  Name = 
REMARK  3 active torsions:
REMARK  status: ('A' for Active; 'I' for Inactive)
REMARK    1  A    between atoms: O_2  and  C_3
REMARK    2  A    between atoms: C_8  and  C_9
REMARK    3  A    between atoms: N_11  and  C_12
REMARK                            x       y       z     vdW  Elec       q    Type
REMARK                         _______ _______ _______ _____ _____    ______ ____
ROOT
ATOM      1  C   UNL     1       9.486 -10.016  27.017  0.00  0.00    +0.000 A 
ATOM      2  C   UNL     1      10.103 -11.157  27.482  0.00  0.00    +0.000 A 
ATOM      3  C   UNL     1      11.485 -11.305  27.437  0.00  0.00    +0.000 A 
ATOM      4  C   UNL     1      12.257 -10.273  26.908  0.00  0.00    +0.000 A 
ATOM      5  N   UNL     1      13.584 -10.143  26.741  0.00  0.00    +0.000 NA
ATOM      6  C   UNL     1      13.881  -8.952  26.178  0.00  0.00    +0.000 A 
ATOM      7  C   UNL     1      12.681  -8.317  25.988  0.00  0.00    +0.000 A 
ATOM      8  C   UNL     1      11.659  -9.124  26.437  0.00  0.00    +0.000 A 
ATOM      9  C   UNL     1      10.288  -9.008  26.496  0.00  0.00    +0.000 A 
ENDROOT
BRANCH   6  10
ATOM     10  C   UNL     1      15.196  -8.458  25.846  0.00  0.00    +0.000 C 
ATOM     11  O   UNL     1      15.412  -7.993  24.690  0.00  0.00    +0.000 OA
ATOM     12  N   UNL     1      16.269  -8.463  26.751  0.00  0.00    +0.000 NA
BRANCH  12  13
ATOM     13  C   UNL     1      17.560  -7.954  26.356  0.00  0.00    +0.000 A 
ATOM     14  C   UNL     1      18.487  -8.836  25.851  0.00  0.00    +0.000 A 
ATOM     15  C   UNL     1      19.733  -8.397  25.460  0.00  0.00    +0.000 A 
ATOM     16  C   UNL     1      20.052  -7.063  25.576  0.00  0.00    +0.000 A 
ATOM     17  C   UNL     1      21.413  -6.576  25.151  0.00  0.00    +0.000 C 
ATOM     18  C   UNL     1      19.115  -6.193  26.082  0.00  0.00    +0.000 A 
ATOM     19  F   UNL     1      19.486  -4.881  26.176  0.00  0.00    +0.000 F 
ATOM     20  C   UNL     1      17.875  -6.624  26.473  0.00  0.00    +0.000 A 
ENDBRANCH  12  13
ENDBRANCH   6  10
BRANCH   1  22
ATOM     21  C   UNL     1       7.327  -9.671  25.940  0.00  0.00    +0.000 C 
ATOM     22  O   UNL     1       8.110  -9.931  27.091  0.00  0.00    +0.000 OA
ENDBRANCH   1  22
TORSDOF 3
ENDMDL
MODEL 7
REMARK VINA RESULT:      -6.1     23.371     25.854
REMARK  Name = 
REMARK  3 active torsions:
REMARK  status: ('A' for Active; 'I' for Inactive)
REMARK    1  A    between atoms: O_2  and  C_3
REMARK    2  A    between atoms: C_8  and  C_9
REMARK    3  A    between atoms: N_11  and  C_12
REMARK                            x       y       z     vdW  Elec       q    Type
REMARK                         _______ _______ _______ _____ _____    ______ ____
ROOT
ATOM      1  C   UNL     1      30.475  30.120  16.987  0.00  0.00    +0.000 A 
ATOM      2  C   UNL     1      30.892  29.037  16.243  0.00  0.00    +0.000 A 
ATOM      3  C   UNL     1      30.836  27.743  16.749  0.00  0.00    +0.000 A 
ATOM      4  C   UNL     1      30.345  27.545  18.038  0.00  0.00    +0.000 A 
ATOM      5  N   UNL     1      30.180  26.430  18.770  0.00  0.00    +0.000 NA
ATOM      6  C   UNL     1      29.665  26.726  19.983  0.00  0.00    +0.000 A 
ATOM      7  C   UNL     1      29.505  28.088  20.000  0.00  0.00    +0.000 A 
ATOM      8  C   UNL     1      29.923  28.614  18.798  0.00  0.00    +0.000 A 
ATOM      9  C   UNL     1      29.992  29.883  18.268  0.00  0.00    +0.000 A 
ENDROOT
BRANCH   6  10
ATOM     10  C   UNL     1      29.351  25.793  21.039  0.00  0.00    +0.000 C 
ATOM     11  O   UNL     1      29.701  24.583  20.923  0.00  0.00    +0.000 OA
ATOM     12  N   UNL     1      28.669  26.159  22.210  0.00  0.00    +0.000 NA
BRANCH  12  13
ATOM     13  C   UNL     1      28.387  25.177  23.228  0.00  0.00    +0.000 A 
ATOM     14  C   UNL     1      29.285  25.025  24.260  0.00  0.00    +0.000 A 
ATOM     15  C   UNL     1      29.060  24.101  25.256  0.00  0.00    +0.000 A 
ATOM     16  C   UNL     1      27.926  23.322  25.218  0.00  0.00    +0.000 A 
ATOM     17  C   UNL     1      27.674  22.309  26.304  0.00  0.00    +0.000 C 
ATOM     18  C   UNL     1      27.037  23.485  24.181  0.00  0.00    +0.000 A 
ATOM     19  F   UNL     1      25.929  22.685  24.193  0.00  0.00    +0.000 F 
ATOM     20  C   UNL     1      27.257  24.403  23.188  0.00  0.00    +0.000 A 
ENDBRANCH  12  13
ENDBRANCH   6  10
BRANCH   1  22
ATOM     21  C   UNL     1      31.800  32.038  16.277  0.00  0.00    +0.000 C 
ATOM     22  O   UNL     1      30.555  31.379  16.425  0.00  0.00    +0.000 OA
ENDBRANCH   1  22
TORSDOF 3
ENDMDL
MODEL 8
REMARK VINA RESULT:      -6.1      8.418     12.991
REMARK  Name = 
REMARK  3 active torsions:
REMARK  status: ('A' for Active; 'I' for Inactive)
REMARK    1  A    between atoms: O_2  and  C_3
REMARK    2  A    between atoms: C_8  and  C_9
REMARK    3  A    between atoms: N_11  and  C_12
REMARK                            x       y       z     vdW  Elec       q    Type
REMARK                         _______ _______ _______ _____ _____    ______ ____
ROOT
ATOM      1  C   UNL     1      24.845  -1.879  41.121  0.00  0.00    +0.000 A 
ATOM      2  C   UNL     1      23.762  -2.448  40.486  0.00  0.00    +0.000 A 
ATOM      3  C   UNL     1      22.596  -1.726  40.252  0.00  0.00    +0.000 A 
ATOM      4  C   UNL     1      22.529  -0.400  40.674  0.00  0.00    +0.000 A 
ATOM      5  N   UNL     1      21.551   0.518  40.585  0.00  0.00    +0.000 NA
ATOM      6  C   UNL     1      21.940   1.686  41.140  0.00  0.00    +0.000 A 
ATOM      7  C   UNL     1      23.218   1.479  41.593  0.00  0.00    +0.000 A 
ATOM      8  C   UNL     1      23.600   0.187  41.311  0.00  0.00    +0.000 A 
ATOM      9  C   UNL     1      24.741  -0.554  41.527  0.00  0.00    +0.000 A 
ENDROOT
BRANCH   6  10
ATOM     10  C   UNL     1      21.163   2.899  41.233  0.00  0.00    +0.000 C 
ATOM     11  O   UNL     1      21.698   3.946  41.701  0.00  0.00    +0.000 OA
ATOM     12  N   UNL     1      19.822   2.985  40.826  0.00  0.00    +0.000 NA
BRANCH  12  13
ATOM     13  C   UNL     1      19.101   4.229  40.945  0.00  0.00    +0.000 A 
ATOM     14  C   UNL     1      18.271   4.405  42.028  0.00  0.00    +0.000 A 
ATOM     15  C   UNL     1      17.562   5.575  42.187  0.00  0.00    +0.000 A 
ATOM     16  C   UNL     1      17.686   6.578  41.252  0.00  0.00    +0.000 A 
ATOM     17  C   UNL     1      16.913   7.860  41.419  0.00  0.00    +0.000 C 
ATOM     18  C   UNL     1      18.520   6.389  40.175  0.00  0.00    +0.000 A 
ATOM     19  F   UNL     1      18.604   7.416  39.277  0.00  0.00    +0.000 F 
ATOM     20  C   UNL     1      19.227   5.226  40.012  0.00  0.00    +0.000 A 
ENDBRANCH  12  13
ENDBRANCH   6  10
BRANCH   1  22
ATOM     21  C   UNL     1      26.997  -2.235  42.208  0.00  0.00    +0.000 C 
ATOM     22  O   UNL     1      25.973  -2.649  41.321  0.00  0.00    +0.000 OA
ENDBRANCH   1  22
TORSDOF 3
ENDMDL
MODEL 9
REMARK VINA RESULT:      -6.1     21.820     23.900
REMARK  Name = 
REMARK  3 active torsions:
REMARK  status: ('A' for Active; 'I' for Inactive)
REMARK    1  A    between atoms: O_2  and  C_3
REMARK    2  A    between atoms: C_8  and  C_9
REMARK    3  A    between atoms: N_11  and  C_12
REMARK                            x       y       z     vdW  Elec       q    Type
REMARK                         _______ _______ _______ _____ _____    ______ ____
ROOT
ATOM      1  C   UNL     1      18.477  -7.882  27.386  0.00  0.00    +0.000 A 
ATOM      2  C   UNL     1      18.356  -6.572  26.973  0.00  0.00    +0.000 A 
ATOM      3  C   UNL     1      19.253  -6.009  26.072  0.00  0.00    +0.000 A 
ATOM      4  C   UNL     1      20.296  -6.792  25.580  0.00  0.00    +0.000 A 
ATOM      5  N   UNL     1      21.290  -6.519  24.718  0.00  0.00    +0.000 NA
ATOM      6  C   UNL     1      22.077  -7.601  24.537  0.00  0.00    +0.000 A 
ATOM      7  C   UNL     1      21.543  -8.589  25.324  0.00  0.00    +0.000 A 
ATOM      8  C   UNL     1      20.434  -8.103  25.980  0.00  0.00    +0.000 A 
ATOM      9  C   UNL     1      19.529  -8.631  26.873  0.00  0.00    +0.000 A 
ENDROOT
BRANCH   6  10
ATOM     10  C   UNL     1      23.240  -7.690  23.687  0.00  0.00    +0.000 C 
ATOM     11  O   UNL     1      23.257  -7.061  22.590  0.00  0.00    +0.000 OA
ATOM     12  N   UNL     1      24.375  -8.448  24.015  0.00  0.00    +0.000 NA
BRANCH  12  13
ATOM     13  C   UNL     1      25.506  -8.494  23.120  0.00  0.00    +0.000 A 
ATOM     14  C   UNL     1      25.644  -9.584  22.293  0.00  0.00    +0.000 A 
ATOM     15  C   UNL     1      26.707  -9.674  21.421  0.00  0.00    +0.000 A 
ATOM     16  C   UNL     1      27.639  -8.662  21.378  0.00  0.00    +0.000 A 
ATOM     17  C   UNL     1      28.804  -8.754  20.427  0.00  0.00    +0.000 C 
ATOM     18  C   UNL     1      27.488  -7.578  22.211  0.00  0.00    +0.000 A 
ATOM     19  F   UNL     1      28.443  -6.604  22.127  0.00  0.00    +0.000 F 
ATOM     20  C   UNL     1      26.433  -7.485  23.080  0.00  0.00    +0.000 A 
ENDBRANCH  12  13
ENDBRANCH   6  10
BRANCH   1  22
ATOM     21  C   UNL     1      17.107  -9.723  28.205  0.00  0.00    +0.000 C 
ATOM     22  O   UNL     1      17.552  -8.381  28.281  0.00  0.00    +0.000 OA
ENDBRANCH   1  22
TORSDOF 3
ENDMDL
MODEL 10
REMARK VINA RESULT:      -5.9     22.476     24.378
REMARK  Name = 
REMARK  3 active torsions:
REMARK  status: ('A' for Active; 'I' for Inactive)
REMARK    1  A    between atoms: O_2  and  C_3
REMARK    2  A    between atoms: C_8  and  C_9
REMARK    3  A    between atoms: N_11  and  C_12
REMARK                            x       y       z     vdW  Elec       q    Type
REMARK                         _______ _______ _______ _____ _____    ______ ____
ROOT
ATOM      1  C   UNL     1      19.142  -7.073  26.412  0.00  0.00    +0.000 A 
ATOM      2  C   UNL     1      19.387  -8.341  26.892  0.00  0.00    +0.000 A 
ATOM      3  C   UNL     1      20.564  -9.017  26.588  0.00  0.00    +0.000 A 
ATOM      4  C   UNL     1      21.511  -8.391  25.780  0.00  0.00    +0.000 A 
ATOM      5  N   UNL     1      22.712  -8.795  25.331  0.00  0.00    +0.000 NA
ATOM      6  C   UNL     1      23.282  -7.841  24.565  0.00  0.00    +0.000 A 
ATOM      7  C   UNL     1      22.392  -6.799  24.539  0.00  0.00    +0.000 A 
ATOM      8  C   UNL     1      21.284  -7.124  25.290  0.00  0.00    +0.000 A 
ATOM      9  C   UNL     1      20.109  -6.481  25.609  0.00  0.00    +0.000 A 
ENDROOT
BRANCH   6  10
ATOM     10  C   UNL     1      24.567  -7.913  23.910  0.00  0.00    +0.000 C 
ATOM     11  O   UNL     1      25.202  -6.846  23.669  0.00  0.00    +0.000 OA
ATOM     12  N   UNL     1      25.164  -9.122  23.521  0.00  0.00    +0.000 NA
BRANCH  12  13
ATOM     13  C   UNL     1      26.452  -9.125  22.871  0.00  0.00    +0.000 A 
ATOM     14  C   UNL     1      27.580  -9.237  23.651  0.00  0.00    +0.000 A 
ATOM     15  C   UNL     1      28.832  -9.244  23.077  0.00  0.00    +0.000 A 
ATOM     16  C   UNL     1      28.955  -9.138  21.709  0.00  0.00    +0.000 A 
ATOM     17  C   UNL     1      30.321  -9.145  21.075  0.00  0.00    +0.000 C 
ATOM     18  C   UNL     1      27.819  -9.027  20.943  0.00  0.00    +0.000 A 
ATOM     19  F   UNL     1      27.999  -8.923  19.592  0.00  0.00    +0.000 F 
ATOM     20  C   UNL     1      26.571  -9.019  21.509  0.00  0.00    +0.000 A 
ENDBRANCH  12  13
ENDBRANCH   6  10
BRANCH   1  22
ATOM     21  C   UNL     1      16.756  -7.198  26.894  0.00  0.00    +0.000 C 
ATOM     22  O   UNL     1      17.954  -6.456  26.752  0.00  0.00    +0.000 OA
ENDBRANCH   1  22
TORSDOF 3
ENDMDL
