MODEL 1
REMARK VINA RESULT:      -7.0      0.000      0.000
REMARK  Name = 
REMARK  2 active torsions:
REMARK  status: ('A' for Active; 'I' for Inactive)
REMARK    1  A    between atoms: N_11  and  C_12
REMARK    2  A    between atoms: C_12  and  C_13
REMARK                            x       y       z     vdW  Elec       q    Type
REMARK                         _______ _______ _______ _____ _____    ______ ____
ROOT
ATOM      1  C   UNL     1      27.173  22.654  26.011  0.00  0.00    +0.000 C 
ENDROOT
BRANCH   1  12
ATOM      2  O   UNL     1      25.177  24.797  25.513  0.00  0.00    +0.000 OA
ATOM      3  C   UNL     1      25.578  24.487  26.673  0.00  0.00    +0.000 C 
ATOM      4  C   UNL     1      25.158  25.091  27.918  0.00  0.00    +0.000 A 
ATOM      5  C   UNL     1      24.270  26.102  28.208  0.00  0.00    +0.000 A 
ATOM      6  C   UNL     1      24.035  26.508  29.492  0.00  0.00    +0.000 A 
ATOM      7  C   UNL     1      24.706  25.887  30.534  0.00  0.00    +0.000 A 
ATOM      8  C   UNL     1      25.593  24.880  30.284  0.00  0.00    +0.000 A 
ATOM      9  C   UNL     1      25.817  24.483  28.972  0.00  0.00    +0.000 A 
ATOM     10  C   UNL     1      26.696  23.452  28.420  0.00  0.00    +0.000 C 
ATOM     11  O   UNL     1      27.460  22.683  29.055  0.00  0.00    +0.000 OA
ATOM     12  N   UNL     1      26.530  23.475  27.013  0.00  0.00    +0.000 N 
ENDBRANCH   1  12
BRANCH   1  13
ATOM     13  C   UNL     1      28.528  23.254  25.629  0.00  0.00    +0.000 C 
ATOM     14  C   UNL     1      29.502  22.404  26.245  0.00  0.00    +0.000 C 
ATOM     15  C   UNL     1      31.026  22.812  25.893  0.00  0.00    +0.000 C 
ATOM     16  C   UNL     1      31.080  24.331  26.325  0.00  0.00    +0.000 C 
ATOM     17  C   UNL     1      29.930  25.357  25.968  0.00  0.00    +0.000 C 
ATOM     18  C   UNL     1      29.917  25.204  24.360  0.00  0.00    +0.000 C 
ATOM     19  C   UNL     1      29.863  23.878  23.880  0.00  0.00    +0.000 C 
ATOM     20  O   UNL     1      29.944  23.952  22.482  0.00  0.00    +0.000 OA
ATOM     21  C   UNL     1      30.874  22.987  24.296  0.00  0.00    +0.000 C 
ATOM     22  C   UNL     1      28.473  23.278  24.123  0.00  0.00    +0.000 C 
ATOM     23  C   UNL     1      28.592  24.512  26.312  0.00  0.00    +0.000 C 
ENDBRANCH   1  13
TORSDOF 2
ENDMDL
MODEL 2
REMARK VINA RESULT:      -7.0      0.099      1.844
REMARK  Name = 
REMARK  2 active torsions:
REMARK  status: ('A' for Active; 'I' for Inactive)
REMARK    1  A    between atoms: N_11  and  C_12
REMARK    2  A    between atoms: C_12  and  C_13
REMARK                            x       y       z     vdW  Elec       q    Type
REMARK                         _______ _______ _______ _____ _____    ______ ____
ROOT
ATOM      1  C   UNL     1      27.307  22.561  26.153  0.00  0.00    +0.000 C 
ENDROOT
BRANCH   1  12
ATOM      2  O   UNL     1      27.478  22.678  29.117  0.00  0.00    +0.000 OA
ATOM      3  C   UNL     1      26.722  23.436  28.441  0.00  0.00    +0.000 C 
ATOM      4  C   UNL     1      25.840  24.456  28.963  0.00  0.00    +0.000 A 
ATOM      5  C   UNL     1      25.569  24.886  30.242  0.00  0.00    +0.000 A 
ATOM      6  C   UNL     1      24.675  25.891  30.490  0.00  0.00    +0.000 A 
ATOM      7  C   UNL     1      24.023  26.497  29.428  0.00  0.00    +0.000 A 
ATOM      8  C   UNL     1      24.268  26.097  28.145  0.00  0.00    +0.000 A 
ATOM      9  C   UNL     1      25.180  25.074  27.916  0.00  0.00    +0.000 A 
ATOM     10  C   UNL     1      25.629  24.454  26.669  0.00  0.00    +0.000 C 
ATOM     11  O   UNL     1      25.261  24.737  25.503  0.00  0.00    +0.000 OA
ATOM     12  N   UNL     1      26.572  23.456  27.019  0.00  0.00    +0.000 N 
ENDBRANCH   1  12
BRANCH   1  13
ATOM     13  C   UNL     1      28.631  23.204  25.732  0.00  0.00    +0.000 C 
ATOM     14  C   UNL     1      29.648  22.393  26.327  0.00  0.00    +0.000 C 
ATOM     15  C   UNL     1      31.148  22.850  25.932  0.00  0.00    +0.000 C 
ATOM     16  C   UNL     1      31.161  24.373  26.354  0.00  0.00    +0.000 C 
ATOM     17  C   UNL     1      29.967  25.356  26.021  0.00  0.00    +0.000 C 
ATOM     18  C   UNL     1      29.918  25.193  24.415  0.00  0.00    +0.000 C 
ATOM     19  C   UNL     1      29.896  23.862  23.944  0.00  0.00    +0.000 C 
ATOM     20  O   UNL     1      29.938  23.930  22.545  0.00  0.00    +0.000 OA
ATOM     21  C   UNL     1      30.948  23.009  24.339  0.00  0.00    +0.000 C 
ATOM     22  C   UNL     1      28.535  23.216  24.228  0.00  0.00    +0.000 C 
ATOM     23  C   UNL     1      28.669  24.469  26.405  0.00  0.00    +0.000 C 
ENDBRANCH   1  13
TORSDOF 2
ENDMDL
MODEL 3
REMARK VINA RESULT:      -6.9      1.937      2.855
REMARK  Name = 
REMARK  2 active torsions:
REMARK  status: ('A' for Active; 'I' for Inactive)
REMARK    1  A    between atoms: N_11  and  C_12
REMARK    2  A    between atoms: C_12  and  C_13
REMARK                            x       y       z     vdW  Elec       q    Type
REMARK                         _______ _______ _______ _____ _____    ______ ____
ROOT
ATOM      1  C   UNL     1      26.787  23.083  24.521  0.00  0.00    +0.000 C 
ENDROOT
BRANCH   1  12
ATOM      2  O   UNL     1      24.929  24.433  26.405  0.00  0.00    +0.000 OA
ATOM      3  C   UNL     1      25.968  23.817  26.786  0.00  0.00    +0.000 C 
ATOM      4  C   UNL     1      26.423  23.663  28.150  0.00  0.00    +0.000 A 
ATOM      5  C   UNL     1      25.918  24.097  29.354  0.00  0.00    +0.000 A 
ATOM      6  C   UNL     1      26.541  23.820  30.539  0.00  0.00    +0.000 A 
ATOM      7  C   UNL     1      27.715  23.082  30.533  0.00  0.00    +0.000 A 
ATOM      8  C   UNL     1      28.245  22.634  29.357  0.00  0.00    +0.000 A 
ATOM      9  C   UNL     1      27.595  22.927  28.164  0.00  0.00    +0.000 A 
ATOM     10  C   UNL     1      27.930  22.583  26.782  0.00  0.00    +0.000 C 
ATOM     11  O   UNL     1      28.919  21.923  26.380  0.00  0.00    +0.000 OA
ATOM     12  N   UNL     1      26.918  23.139  25.960  0.00  0.00    +0.000 N 
ENDBRANCH   1  12
BRANCH   1  13
ATOM     13  C   UNL     1      27.586  24.218  23.875  0.00  0.00    +0.000 C 
ATOM     14  C   UNL     1      28.416  24.734  24.920  0.00  0.00    +0.000 C 
ATOM     15  C   UNL     1      29.421  25.901  24.426  0.00  0.00    +0.000 C 
ATOM     16  C   UNL     1      28.432  26.943  23.767  0.00  0.00    +0.000 C 
ATOM     17  C   UNL     1      27.260  26.506  22.800  0.00  0.00    +0.000 C 
ATOM     18  C   UNL     1      28.111  25.715  21.678  0.00  0.00    +0.000 C 
ATOM     19  C   UNL     1      29.018  24.755  22.175  0.00  0.00    +0.000 C 
ATOM     20  O   UNL     1      29.710  24.244  21.068  0.00  0.00    +0.000 OA
ATOM     21  C   UNL     1      29.994  25.189  23.096  0.00  0.00    +0.000 C 
ATOM     22  C   UNL     1      28.263  23.535  22.715  0.00  0.00    +0.000 C 
ATOM     23  C   UNL     1      26.623  25.237  23.576  0.00  0.00    +0.000 C 
ENDBRANCH   1  13
TORSDOF 2
ENDMDL
MODEL 4
REMARK VINA RESULT:      -6.9     13.532     16.402
REMARK  Name = 
REMARK  2 active torsions:
REMARK  status: ('A' for Active; 'I' for Inactive)
REMARK    1  A    between atoms: N_11  and  C_12
REMARK    2  A    between atoms: C_12  and  C_13
REMARK                            x       y       z     vdW  Elec       q    Type
REMARK                         _______ _______ _______ _____ _____    ______ ____
ROOT
ATOM      1  C   UNL     1      31.726  20.081  11.442  0.00  0.00    +0.000 C 
ENDROOT
BRANCH   1  12
ATOM      2  O   UNL     1      31.329  21.564  13.985  0.00  0.00    +0.000 OA
ATOM      3  C   UNL     1      30.550  21.677  12.994  0.00  0.00    +0.000 C 
ATOM      4  C   UNL     1      29.372  22.514  12.918  0.00  0.00    +0.000 A 
ATOM      5  C   UNL     1      28.782  23.372  13.817  0.00  0.00    +0.000 A 
ATOM      6  C   UNL     1      27.646  24.069  13.509  0.00  0.00    +0.000 A 
ATOM      7  C   UNL     1      27.071  23.910  12.258  0.00  0.00    +0.000 A 
ATOM      8  C   UNL     1      27.630  23.068  11.340  0.00  0.00    +0.000 A 
ATOM      9  C   UNL     1      28.784  22.370  11.674  0.00  0.00    +0.000 A 
ATOM     10  C   UNL     1      29.583  21.417  10.903  0.00  0.00    +0.000 C 
ATOM     11  O   UNL     1      29.375  21.023   9.730  0.00  0.00    +0.000 OA
ATOM     12  N   UNL     1      30.657  21.010  11.734  0.00  0.00    +0.000 N 
ENDBRANCH   1  12
BRANCH   1  13
ATOM     13  C   UNL     1      32.860  20.798  10.704  0.00  0.00    +0.000 C 
ATOM     14  C   UNL     1      34.055  20.420  11.396  0.00  0.00    +0.000 C 
ATOM     15  C   UNL     1      35.401  21.005  10.718  0.00  0.00    +0.000 C 
ATOM     16  C   UNL     1      35.109  22.557  10.667  0.00  0.00    +0.000 C 
ATOM     17  C   UNL     1      33.719  23.144  10.194  0.00  0.00    +0.000 C 
ATOM     18  C   UNL     1      33.628  22.481   8.723  0.00  0.00    +0.000 C 
ATOM     19  C   UNL     1      33.868  21.091   8.673  0.00  0.00    +0.000 C 
ATOM     20  O   UNL     1      33.827  20.724   7.320  0.00  0.00    +0.000 OA
ATOM     21  C   UNL     1      35.096  20.618   9.182  0.00  0.00    +0.000 C 
ATOM     22  C   UNL     1      32.691  20.322   9.285  0.00  0.00    +0.000 C 
ATOM     23  C   UNL     1      32.660  22.193  10.965  0.00  0.00    +0.000 C 
ENDBRANCH   1  13
TORSDOF 2
ENDMDL
MODEL 5
REMARK VINA RESULT:      -6.9     16.951     18.788
REMARK  Name = 
REMARK  2 active torsions:
REMARK  status: ('A' for Active; 'I' for Inactive)
REMARK    1  A    between atoms: N_11  and  C_12
REMARK    2  A    between atoms: C_12  and  C_13
REMARK                            x       y       z     vdW  Elec       q    Type
REMARK                         _______ _______ _______ _____ _____    ______ ____
ROOT
ATOM      1  C   UNL     1      21.709  11.377  39.465  0.00  0.00    +0.000 C 
ENDROOT
BRANCH   1  12
ATOM      2  O   UNL     1      20.346  13.668  38.154  0.00  0.00    +0.000 OA
ATOM      3  C   UNL     1      19.833  12.513  38.227  0.00  0.00    +0.000 C 
ATOM      4  C   UNL     1      18.545  12.110  37.707  0.00  0.00    +0.000 A 
ATOM      5  C   UNL     1      17.560  12.794  37.031  0.00  0.00    +0.000 A 
ATOM      6  C   UNL     1      16.403  12.183  36.634  0.00  0.00    +0.000 A 
ATOM      7  C   UNL     1      16.212  10.840  36.917  0.00  0.00    +0.000 A 
ATOM      8  C   UNL     1      17.168  10.130  37.584  0.00  0.00    +0.000 A 
ATOM      9  C   UNL     1      18.336  10.769  37.979  0.00  0.00    +0.000 A 
ATOM     10  C   UNL     1      19.508  10.266  38.696  0.00  0.00    +0.000 C 
ATOM     11  O   UNL     1      19.699   9.099  39.117  0.00  0.00    +0.000 OA
ATOM     12  N   UNL     1      20.408  11.352  38.833  0.00  0.00    +0.000 N 
ENDBRANCH   1  12
BRANCH   1  13
ATOM     13  C   UNL     1      22.781  10.900  38.483  0.00  0.00    +0.000 C 
ATOM     14  C   UNL     1      23.693  11.996  38.362  0.00  0.00    +0.000 C 
ATOM     15  C   UNL     1      24.969  11.670  37.424  0.00  0.00    +0.000 C 
ATOM     16  C   UNL     1      24.290  11.201  36.077  0.00  0.00    +0.000 C 
ATOM     17  C   UNL     1      23.066  10.200  36.048  0.00  0.00    +0.000 C 
ATOM     18  C   UNL     1      23.713   8.952  36.844  0.00  0.00    +0.000 C 
ATOM     19  C   UNL     1      24.338   9.276  38.067  0.00  0.00    +0.000 C 
ATOM     20  O   UNL     1      24.902   8.091  38.558  0.00  0.00    +0.000 OA
ATOM     21  C   UNL     1      25.372  10.235  38.042  0.00  0.00    +0.000 C 
ATOM     22  C   UNL     1      23.288   9.635  39.126  0.00  0.00    +0.000 C 
ATOM     23  C   UNL     1      22.113  10.781  37.220  0.00  0.00    +0.000 C 
ENDBRANCH   1  13
TORSDOF 2
ENDMDL
MODEL 6
REMARK VINA RESULT:      -6.5      1.538      2.978
REMARK  Name = 
REMARK  2 active torsions:
REMARK  status: ('A' for Active; 'I' for Inactive)
REMARK    1  A    between atoms: N_11  and  C_12
REMARK    2  A    between atoms: C_12  and  C_13
REMARK                            x       y       z     vdW  Elec       q    Type
REMARK                         _______ _______ _______ _____ _____    ______ ____
ROOT
ATOM      1  C   UNL     1      27.227  22.585  25.947  0.00  0.00    +0.000 C 
ENDROOT
BRANCH   1  12
ATOM      2  O   UNL     1      26.041  23.572  28.485  0.00  0.00    +0.000 OA
ATOM      3  C   UNL     1      25.749  24.060  27.354  0.00  0.00    +0.000 C 
ATOM      4  C   UNL     1      24.824  25.143  27.098  0.00  0.00    +0.000 A 
ATOM      5  C   UNL     1      24.041  25.913  27.927  0.00  0.00    +0.000 A 
ATOM      6  C   UNL     1      23.230  26.900  27.440  0.00  0.00    +0.000 A 
ATOM      7  C   UNL     1      23.191  27.135  26.074  0.00  0.00    +0.000 A 
ATOM      8  C   UNL     1      23.955  26.390  25.222  0.00  0.00    +0.000 A 
ATOM      9  C   UNL     1      24.773  25.393  25.738  0.00  0.00    +0.000 A 
ATOM     10  C   UNL     1      25.680  24.459  25.072  0.00  0.00    +0.000 C 
ATOM     11  O   UNL     1      25.912  24.369  23.841  0.00  0.00    +0.000 OA
ATOM     12  N   UNL     1      26.265  23.656  26.083  0.00  0.00    +0.000 N 
ENDBRANCH   1  12
BRANCH   1  13
ATOM     13  C   UNL     1      28.627  23.161  25.720  0.00  0.00    +0.000 C 
ATOM     14  C   UNL     1      28.886  22.979  24.324  0.00  0.00    +0.000 C 
ATOM     15  C   UNL     1      30.297  23.606  23.845  0.00  0.00    +0.000 C 
ATOM     16  C   UNL     1      31.326  22.910  24.822  0.00  0.00    +0.000 C 
ATOM     17  C   UNL     1      31.060  22.769  26.375  0.00  0.00    +0.000 C 
ATOM     18  C   UNL     1      30.844  24.324  26.758  0.00  0.00    +0.000 C 
ATOM     19  C   UNL     1      29.933  25.025  25.941  0.00  0.00    +0.000 C 
ATOM     20  O   UNL     1      29.947  26.358  26.375  0.00  0.00    +0.000 OA
ATOM     21  C   UNL     1      30.181  25.051  24.552  0.00  0.00    +0.000 C 
ATOM     22  C   UNL     1      28.497  24.573  26.230  0.00  0.00    +0.000 C 
ATOM     23  C   UNL     1      29.517  22.282  26.420  0.00  0.00    +0.000 C 
ENDBRANCH   1  13
TORSDOF 2
ENDMDL
MODEL 7
REMARK VINA RESULT:      -6.5      1.176      2.006
REMARK  Name = 
REMARK  2 active torsions:
REMARK  status: ('A' for Active; 'I' for Inactive)
REMARK    1  A    between atoms: N_11  and  C_12
REMARK    2  A    between atoms: C_12  and  C_13
REMARK                            x       y       z     vdW  Elec       q    Type
REMARK                         _______ _______ _______ _____ _____    ______ ____
ROOT
ATOM      1  C   UNL     1      26.541  22.966  25.718  0.00  0.00    +0.000 C 
ENDROOT
BRANCH   1  12
ATOM      2  O   UNL     1      24.769  25.316  25.312  0.00  0.00    +0.000 OA
ATOM      3  C   UNL     1      25.146  24.928  26.457  0.00  0.00    +0.000 C 
ATOM      4  C   UNL     1      24.799  25.530  27.725  0.00  0.00    +0.000 A 
ATOM      5  C   UNL     1      24.021  26.615  28.058  0.00  0.00    +0.000 A 
ATOM      6  C   UNL     1      23.838  27.000  29.357  0.00  0.00    +0.000 A 
ATOM      7  C   UNL     1      24.450  26.280  30.371  0.00  0.00    +0.000 A 
ATOM      8  C   UNL     1      25.228  25.196  30.078  0.00  0.00    +0.000 A 
ATOM      9  C   UNL     1      25.401  24.823  28.751  0.00  0.00    +0.000 A 
ATOM     10  C   UNL     1      26.166  23.727  28.157  0.00  0.00    +0.000 C 
ATOM     11  O   UNL     1      26.852  22.864  28.758  0.00  0.00    +0.000 OA
ATOM     12  N   UNL     1      25.993  23.814  26.753  0.00  0.00    +0.000 N 
ENDBRANCH   1  12
BRANCH   1  13
ATOM     13  C   UNL     1      27.996  23.350  25.438  0.00  0.00    +0.000 C 
ATOM     14  C   UNL     1      28.070  24.755  25.702  0.00  0.00    +0.000 C 
ATOM     15  C   UNL     1      29.563  25.359  25.551  0.00  0.00    +0.000 C 
ATOM     16  C   UNL     1      29.959  24.922  24.086  0.00  0.00    +0.000 C 
ATOM     17  C   UNL     1      29.682  23.468  23.529  0.00  0.00    +0.000 C 
ATOM     18  C   UNL     1      30.472  22.596  24.635  0.00  0.00    +0.000 C 
ATOM     19  C   UNL     1      30.175  22.913  25.978  0.00  0.00    +0.000 C 
ATOM     20  O   UNL     1      31.011  22.118  26.774  0.00  0.00    +0.000 OA
ATOM     21  C   UNL     1      30.369  24.247  26.396  0.00  0.00    +0.000 C 
ATOM     22  C   UNL     1      28.768  22.426  26.344  0.00  0.00    +0.000 C 
ATOM     23  C   UNL     1      28.166  23.190  24.024  0.00  0.00    +0.000 C 
ENDBRANCH   1  13
TORSDOF 2
ENDMDL
MODEL 8
REMARK VINA RESULT:      -6.4      1.323      2.376
REMARK  Name = 
REMARK  2 active torsions:
REMARK  status: ('A' for Active; 'I' for Inactive)
REMARK    1  A    between atoms: N_11  and  C_12
REMARK    2  A    between atoms: C_12  and  C_13
REMARK                            x       y       z     vdW  Elec       q    Type
REMARK                         _______ _______ _______ _____ _____    ______ ____
ROOT
ATOM      1  C   UNL     1      27.800  22.069  27.564  0.00  0.00    +0.000 C 
ENDROOT
BRANCH   1  12
ATOM      2  O   UNL     1      28.783  22.757  30.282  0.00  0.00    +0.000 OA
ATOM      3  C   UNL     1      27.755  23.287  29.768  0.00  0.00    +0.000 C 
ATOM      4  C   UNL     1      26.904  24.283  30.381  0.00  0.00    +0.000 A 
ATOM      5  C   UNL     1      26.941  24.911  31.605  0.00  0.00    +0.000 A 
ATOM      6  C   UNL     1      26.005  25.840  31.966  0.00  0.00    +0.000 A 
ATOM      7  C   UNL     1      24.989  26.160  31.080  0.00  0.00    +0.000 A 
ATOM      8  C   UNL     1      24.921  25.557  29.856  0.00  0.00    +0.000 A 
ATOM      9  C   UNL     1      25.883  24.617  29.509  0.00  0.00    +0.000 A 
ATOM     10  C   UNL     1      26.054  23.828  28.289  0.00  0.00    +0.000 C 
ATOM     11  O   UNL     1      25.330  23.845  27.264  0.00  0.00    +0.000 OA
ATOM     12  N   UNL     1      27.207  23.024  28.474  0.00  0.00    +0.000 N 
ENDBRANCH   1  12
BRANCH   1  13
ATOM     13  C   UNL     1      28.558  22.801  26.453  0.00  0.00    +0.000 C 
ATOM     14  C   UNL     1      29.865  22.217  26.443  0.00  0.00    +0.000 C 
ATOM     15  C   UNL     1      30.816  22.793  25.269  0.00  0.00    +0.000 C 
ATOM     16  C   UNL     1      30.770  24.350  25.527  0.00  0.00    +0.000 C 
ATOM     17  C   UNL     1      29.424  25.120  25.843  0.00  0.00    +0.000 C 
ATOM     18  C   UNL     1      28.565  24.716  24.536  0.00  0.00    +0.000 C 
ATOM     19  C   UNL     1      28.543  23.338  24.231  0.00  0.00    +0.000 C 
ATOM     20  O   UNL     1      27.827  23.203  23.033  0.00  0.00    +0.000 OA
ATOM     21  C   UNL     1      29.780  22.689  24.036  0.00  0.00    +0.000 C 
ATOM     22  C   UNL     1      27.682  22.579  25.247  0.00  0.00    +0.000 C 
ATOM     23  C   UNL     1      28.713  24.146  26.923  0.00  0.00    +0.000 C 
ENDBRANCH   1  13
TORSDOF 2
ENDMDL
MODEL 9
REMARK VINA RESULT:      -6.3      1.298      2.737
REMARK  Name = 
REMARK  2 active torsions:
REMARK  status: ('A' for Active; 'I' for Inactive)
REMARK    1  A    between atoms: N_11  and  C_12
REMARK    2  A    between atoms: C_12  and  C_13
REMARK                            x       y       z     vdW  Elec       q    Type
REMARK                         _______ _______ _______ _____ _____    ______ ____
ROOT
ATOM      1  C   UNL     1      25.956  23.349  25.597  0.00  0.00    +0.000 C 
ENDROOT
BRANCH   1  12
ATOM      2  O   UNL     1      27.101  22.681  28.255  0.00  0.00    +0.000 OA
ATOM      3  C   UNL     1      26.279  23.627  28.079  0.00  0.00    +0.000 C 
ATOM      4  C   UNL     1      25.767  24.521  29.095  0.00  0.00    +0.000 A 
ATOM      5  C   UNL     1      25.991  24.615  30.449  0.00  0.00    +0.000 A 
ATOM      6  C   UNL     1      25.377  25.565  31.217  0.00  0.00    +0.000 A 
ATOM      7  C   UNL     1      24.503  26.460  30.619  0.00  0.00    +0.000 A 
ATOM      8  C   UNL     1      24.257  26.397  29.277  0.00  0.00    +0.000 A 
ATOM      9  C   UNL     1      24.892  25.423  28.516  0.00  0.00    +0.000 A 
ATOM     10  C   UNL     1      24.818  25.127  27.085  0.00  0.00    +0.000 C 
ATOM     11  O   UNL     1      24.132  25.723  26.219  0.00  0.00    +0.000 OA
ATOM     12  N   UNL     1      25.676  24.025  26.845  0.00  0.00    +0.000 N 
ENDBRANCH   1  12
BRANCH   1  13
ATOM     13  C   UNL     1      27.191  23.962  24.932  0.00  0.00    +0.000 C 
ATOM     14  C   UNL     1      27.460  25.158  25.671  0.00  0.00    +0.000 C 
ATOM     15  C   UNL     1      28.796  25.928  25.183  0.00  0.00    +0.000 C 
ATOM     16  C   UNL     1      28.526  26.130  23.639  0.00  0.00    +0.000 C 
ATOM     17  C   UNL     1      27.949  24.979  22.720  0.00  0.00    +0.000 C 
ATOM     18  C   UNL     1      29.064  23.839  22.977  0.00  0.00    +0.000 C 
ATOM     19  C   UNL     1      29.365  23.584  24.332  0.00  0.00    +0.000 C 
ATOM     20  O   UNL     1      30.398  22.637  24.344  0.00  0.00    +0.000 OA
ATOM     21  C   UNL     1      29.801  24.668  25.123  0.00  0.00    +0.000 C 
ATOM     22  C   UNL     1      28.202  22.848  25.010  0.00  0.00    +0.000 C 
ATOM     23  C   UNL     1      26.755  24.375  23.630  0.00  0.00    +0.000 C 
ENDBRANCH   1  13
TORSDOF 2
ENDMDL
MODEL 10
REMARK VINA RESULT:      -6.1     32.648     34.540
REMARK  Name = 
REMARK  2 active torsions:
REMARK  status: ('A' for Active; 'I' for Inactive)
REMARK    1  A    between atoms: N_11  and  C_12
REMARK    2  A    between atoms: C_12  and  C_13
REMARK                            x       y       z     vdW  Elec       q    Type
REMARK                         _______ _______ _______ _____ _____    ______ ____
ROOT
ATOM      1  C   UNL     1      18.466  -8.028  27.399  0.00  0.00    +0.000 C 
ENDROOT
BRANCH   1  12
ATOM      2  O   UNL     1      19.384  -5.758  25.717  0.00  0.00    +0.000 OA
ATOM      3  C   UNL     1      20.043  -6.832  25.842  0.00  0.00    +0.000 C 
ATOM      4  C   UNL     1      21.311  -7.140  25.218  0.00  0.00    +0.000 A 
ATOM      5  C   UNL     1      22.126  -6.428  24.368  0.00  0.00    +0.000 A 
ATOM      6  C   UNL     1      23.304  -6.942  23.901  0.00  0.00    +0.000 A 
ATOM      7  C   UNL     1      23.692  -8.214  24.290  0.00  0.00    +0.000 A 
ATOM      8  C   UNL     1      22.908  -8.949  25.134  0.00  0.00    +0.000 A 
ATOM      9  C   UNL     1      21.716  -8.408  25.597  0.00  0.00    +0.000 A 
ATOM     10  C   UNL     1      20.698  -8.959  26.492  0.00  0.00    +0.000 C 
ATOM     11  O   UNL     1      20.700 -10.085  27.046  0.00  0.00    +0.000 OA
ATOM     12  N   UNL     1      19.687  -7.974  26.626  0.00  0.00    +0.000 N 
ENDBRANCH   1  12
BRANCH   1  13
ATOM     13  C   UNL     1      17.379  -8.769  26.616  0.00  0.00    +0.000 C 
ATOM     14  C   UNL     1      17.921  -8.952  25.304  0.00  0.00    +0.000 C 
ATOM     15  C   UNL     1      16.957  -9.803  24.323  0.00  0.00    +0.000 C 
ATOM     16  C   UNL     1      15.603  -8.992  24.391  0.00  0.00    +0.000 C 
ATOM     17  C   UNL     1      15.000  -8.458  25.753  0.00  0.00    +0.000 C 
ATOM     18  C   UNL     1      14.894  -9.849  26.568  0.00  0.00    +0.000 C 
ATOM     19  C   UNL     1      16.063 -10.639  26.569  0.00  0.00    +0.000 C 
ATOM     20  O   UNL     1      15.748 -11.823  27.248  0.00  0.00    +0.000 OA
ATOM     21  C   UNL     1      16.599 -11.019  25.320  0.00  0.00    +0.000 C 
ATOM     22  C   UNL     1      17.141  -9.999  27.453  0.00  0.00    +0.000 C 
ATOM     23  C   UNL     1      16.301  -7.834  26.487  0.00  0.00    +0.000 C 
ENDBRANCH   1  13
TORSDOF 2
ENDMDL
