MODEL 1
REMARK VINA RESULT:      -8.2      0.000      0.000
REMARK  Name = 
REMARK  7 active torsions:
REMARK  status: ('A' for Active; 'I' for Inactive)
REMARK    1  A    between atoms: C_2  and  C_3
REMARK    2  A    between atoms: C_3  and  N_4
REMARK    3  A    between atoms: N_4  and  C_5
REMARK    4  A    between atoms: N_4  and  C_12
REMARK    5  A    between atoms: C_5  and  C_6
REMARK    6  A    between atoms: C_14  and  C_15
REMARK    7  A    between atoms: C_22  and  C_23
REMARK                            x       y       z     vdW  Elec       q    Type
REMARK                         _______ _______ _______ _____ _____    ______ ____
ROOT
ATOM      1  C   UNL     1      36.740   2.799  15.698  0.00  0.00    +0.000 A 
ATOM      2  C   UNL     1      37.731   3.406  16.438  0.00  0.00    +0.000 A 
ATOM      3  C   UNL     1      38.069   4.736  16.264  0.00  0.00    +0.000 A 
ATOM      4  C   UNL     1      37.355   5.424  15.303  0.00  0.00    +0.000 A 
ATOM      5  C   UNL     1      36.359   4.845  14.547  0.00  0.00    +0.000 A 
ATOM      6  N   UNL     1      36.089   3.550  14.775  0.00  0.00    +0.000 NA
ENDROOT
BRANCH   5   7
ATOM      7  C   UNL     1      35.614   5.591  13.533  0.00  0.00    +0.000 A 
ATOM      8  C   UNL     1      34.478   6.275  13.900  0.00  0.00    +0.000 A 
ATOM      9  C   UNL     1      33.743   6.996  12.965  0.00  0.00    +0.000 A 
ATOM     10  C   UNL     1      34.176   7.012  11.657  0.00  0.00    +0.000 A 
ATOM     11  O   UNL     1      33.412   7.750  10.737  0.00  0.00    +0.000 OA
ATOM     12  C   UNL     1      35.305   6.342  11.255  0.00  0.00    +0.000 A 
ATOM     13  C   UNL     1      36.003   5.640  12.216  0.00  0.00    +0.000 A 
ATOM     14  C   UNL     1      37.231   4.902  11.811  0.00  0.00    +0.000 C 
ENDBRANCH   5   7
BRANCH   3  15
ATOM     15  C   UNL     1      39.108   5.319  17.058  0.00  0.00    +0.000 A 
ATOM     16  C   UNL     1      38.970   5.387  18.423  0.00  0.00    +0.000 A 
ATOM     17  C   UNL     1      39.949   5.944  19.237  0.00  0.00    +0.000 A 
ATOM     18  C   UNL     1      41.076   6.432  18.624  0.00  0.00    +0.000 A 
ATOM     19  C   UNL     1      41.262   6.388  17.258  0.00  0.00    +0.000 A 
ATOM     20  C   UNL     1      40.254   5.820  16.483  0.00  0.00    +0.000 A 
ENDBRANCH   3  15
BRANCH   1  21
ATOM     21  N   UNL     1      36.379   1.438  15.859  0.00  0.00    +0.000 N 
BRANCH  21  22
ATOM     22  C   UNL     1      35.958   0.968  17.137  0.00  0.00    +0.000 C 
BRANCH  22  24
ATOM     23  C   UNL     1      34.651  -1.150  17.544  0.00  0.00    +0.000 C 
ATOM     24  C   UNL     1      34.636   0.286  17.152  0.00  0.00    +0.000 C 
ENDBRANCH  22  24
ENDBRANCH  21  22
BRANCH  21  25
ATOM     25  C   UNL     1      36.455   0.576  14.702  0.00  0.00    +0.000 C 
BRANCH  25  26
ATOM     26  C   UNL     1      37.397  -0.551  14.930  0.00  0.00    +0.000 A 
ATOM     27  C   UNL     1      36.939  -1.822  14.684  0.00  0.00    +0.000 A 
ATOM     28  C   UNL     1      37.776  -2.877  14.883  0.00  0.00    +0.000 A 
ATOM     29  C   UNL     1      39.071  -2.678  15.325  0.00  0.00    +0.000 A 
ATOM     30  C   UNL     1      39.487  -1.400  15.558  0.00  0.00    +0.000 A 
ATOM     31  N   UNL     1      38.657  -0.359  15.361  0.00  0.00    +0.000 NA
ENDBRANCH  25  26
ENDBRANCH  21  25
ENDBRANCH   1  21
TORSDOF 7
ENDMDL
MODEL 2
REMARK VINA RESULT:      -8.1      2.636      5.925
REMARK  Name = 
REMARK  7 active torsions:
REMARK  status: ('A' for Active; 'I' for Inactive)
REMARK    1  A    between atoms: C_2  and  C_3
REMARK    2  A    between atoms: C_3  and  N_4
REMARK    3  A    between atoms: N_4  and  C_5
REMARK    4  A    between atoms: N_4  and  C_12
REMARK    5  A    between atoms: C_5  and  C_6
REMARK    6  A    between atoms: C_14  and  C_15
REMARK    7  A    between atoms: C_22  and  C_23
REMARK                            x       y       z     vdW  Elec       q    Type
REMARK                         _______ _______ _______ _____ _____    ______ ____
ROOT
ATOM      1  C   UNL     1      37.388   2.718  15.097  0.00  0.00    +0.000 A 
ATOM      2  C   UNL     1      36.539   3.494  14.339  0.00  0.00    +0.000 A 
ATOM      3  C   UNL     1      36.530   4.874  14.423  0.00  0.00    +0.000 A 
ATOM      4  C   UNL     1      37.424   5.433  15.315  0.00  0.00    +0.000 A 
ATOM      5  C   UNL     1      38.286   4.685  16.087  0.00  0.00    +0.000 A 
ATOM      6  N   UNL     1      38.234   3.351  15.947  0.00  0.00    +0.000 NA
ENDROOT
BRANCH   5   7
ATOM      7  C   UNL     1      39.226   5.298  17.026  0.00  0.00    +0.000 A 
ATOM      8  C   UNL     1      38.911   5.339  18.364  0.00  0.00    +0.000 A 
ATOM      9  C   UNL     1      39.779   5.913  19.287  0.00  0.00    +0.000 A 
ATOM     10  C   UNL     1      40.967   6.443  18.833  0.00  0.00    +0.000 A 
ATOM     11  O   UNL     1      41.822   7.015  19.790  0.00  0.00    +0.000 OA
ATOM     12  C   UNL     1      41.315   6.419  17.504  0.00  0.00    +0.000 A 
ATOM     13  C   UNL     1      40.424   5.840  16.624  0.00  0.00    +0.000 A 
ATOM     14  C   UNL     1      40.772   5.800  15.178  0.00  0.00    +0.000 C 
ENDBRANCH   5   7
BRANCH   3  15
ATOM     15  C   UNL     1      35.626   5.634  13.614  0.00  0.00    +0.000 A 
ATOM     16  C   UNL     1      34.484   6.156  14.169  0.00  0.00    +0.000 A 
ATOM     17  C   UNL     1      33.576   6.899  13.426  0.00  0.00    +0.000 A 
ATOM     18  C   UNL     1      33.859   7.099  12.098  0.00  0.00    +0.000 A 
ATOM     19  C   UNL     1      34.993   6.596  11.493  0.00  0.00    +0.000 A 
ATOM     20  C   UNL     1      35.874   5.857  12.279  0.00  0.00    +0.000 A 
ENDBRANCH   3  15
BRANCH   1  21
ATOM     21  N   UNL     1      37.413   1.303  15.028  0.00  0.00    +0.000 N 
BRANCH  21  22
ATOM     22  C   UNL     1      38.582   0.642  14.549  0.00  0.00    +0.000 C 
BRANCH  22  24
ATOM     23  C   UNL     1      38.619   0.511  12.030  0.00  0.00    +0.000 C 
ATOM     24  C   UNL     1      38.381  -0.182  13.326  0.00  0.00    +0.000 C 
ENDBRANCH  22  24
ENDBRANCH  21  22
BRANCH  21  25
ATOM     25  C   UNL     1      36.234   0.583  15.451  0.00  0.00    +0.000 C 
BRANCH  25  26
ATOM     26  C   UNL     1      36.408   0.017  16.815  0.00  0.00    +0.000 A 
ATOM     27  C   UNL     1      35.613   0.517  17.817  0.00  0.00    +0.000 A 
ATOM     28  C   UNL     1      35.747   0.021  19.077  0.00  0.00    +0.000 A 
ATOM     29  C   UNL     1      36.669  -0.973  19.351  0.00  0.00    +0.000 A 
ATOM     30  C   UNL     1      37.439  -1.442  18.328  0.00  0.00    +0.000 A 
ATOM     31  N   UNL     1      37.305  -0.949  17.083  0.00  0.00    +0.000 NA
ENDBRANCH  25  26
ENDBRANCH  21  25
ENDBRANCH   1  21
TORSDOF 7
ENDMDL
MODEL 3
REMARK VINA RESULT:      -8.1      2.393      5.437
REMARK  Name = 
REMARK  7 active torsions:
REMARK  status: ('A' for Active; 'I' for Inactive)
REMARK    1  A    between atoms: C_2  and  C_3
REMARK    2  A    between atoms: C_3  and  N_4
REMARK    3  A    between atoms: N_4  and  C_5
REMARK    4  A    between atoms: N_4  and  C_12
REMARK    5  A    between atoms: C_5  and  C_6
REMARK    6  A    between atoms: C_14  and  C_15
REMARK    7  A    between atoms: C_22  and  C_23
REMARK                            x       y       z     vdW  Elec       q    Type
REMARK                         _______ _______ _______ _____ _____    ______ ____
ROOT
ATOM      1  C   UNL     1      37.091   2.694  15.145  0.00  0.00    +0.000 A 
ATOM      2  C   UNL     1      36.287   3.488  14.357  0.00  0.00    +0.000 A 
ATOM      3  C   UNL     1      36.364   4.868  14.382  0.00  0.00    +0.000 A 
ATOM      4  C   UNL     1      37.297   5.409  15.246  0.00  0.00    +0.000 A 
ATOM      5  C   UNL     1      38.115   4.643  16.047  0.00  0.00    +0.000 A 
ATOM      6  N   UNL     1      37.979   3.309  15.965  0.00  0.00    +0.000 NA
ENDROOT
BRANCH   5   7
ATOM      7  C   UNL     1      39.096   5.235  16.955  0.00  0.00    +0.000 A 
ATOM      8  C   UNL     1      38.817   5.299  18.300  0.00  0.00    +0.000 A 
ATOM      9  C   UNL     1      39.725   5.855  19.195  0.00  0.00    +0.000 A 
ATOM     10  C   UNL     1      40.917   6.344  18.705  0.00  0.00    +0.000 A 
ATOM     11  O   UNL     1      41.813   6.899  19.635  0.00  0.00    +0.000 OA
ATOM     12  C   UNL     1      41.230   6.297  17.369  0.00  0.00    +0.000 A 
ATOM     13  C   UNL     1      40.299   5.737  16.518  0.00  0.00    +0.000 A 
ATOM     14  C   UNL     1      40.610   5.672  15.064  0.00  0.00    +0.000 C 
ENDBRANCH   5   7
BRANCH   3  15
ATOM     15  C   UNL     1      35.504   5.648  13.543  0.00  0.00    +0.000 A 
ATOM     16  C   UNL     1      34.362   6.205  14.065  0.00  0.00    +0.000 A 
ATOM     17  C   UNL     1      33.496   6.969  13.292  0.00  0.00    +0.000 A 
ATOM     18  C   UNL     1      33.821   7.151  11.971  0.00  0.00    +0.000 A 
ATOM     19  C   UNL     1      34.955   6.611  11.400  0.00  0.00    +0.000 A 
ATOM     20  C   UNL     1      35.794   5.854  12.214  0.00  0.00    +0.000 A 
ENDBRANCH   3  15
BRANCH   1  21
ATOM     21  N   UNL     1      37.028   1.279  15.137  0.00  0.00    +0.000 N 
BRANCH  21  22
ATOM     22  C   UNL     1      35.829   0.625  15.549  0.00  0.00    +0.000 C 
BRANCH  22  24
ATOM     23  C   UNL     1      35.799   0.465  18.066  0.00  0.00    +0.000 C 
ATOM     24  C   UNL     1      35.261   1.109  16.836  0.00  0.00    +0.000 C 
ENDBRANCH  22  24
ENDBRANCH  21  22
BRANCH  21  25
ATOM     25  C   UNL     1      38.198   0.551  14.705  0.00  0.00    +0.000 C 
BRANCH  25  26
ATOM     26  C   UNL     1      38.219  -0.824  15.272  0.00  0.00    +0.000 A 
ATOM     27  C   UNL     1      37.799  -1.852  14.463  0.00  0.00    +0.000 A 
ATOM     28  C   UNL     1      37.805  -3.122  14.952  0.00  0.00    +0.000 A 
ATOM     29  C   UNL     1      38.227  -3.381  16.243  0.00  0.00    +0.000 A 
ATOM     30  C   UNL     1      38.636  -2.332  17.014  0.00  0.00    +0.000 A 
ATOM     31  N   UNL     1      38.628  -1.076  16.528  0.00  0.00    +0.000 NA
ENDBRANCH  25  26
ENDBRANCH  21  25
ENDBRANCH   1  21
TORSDOF 7
ENDMDL
MODEL 4
REMARK VINA RESULT:      -8.0      1.282      2.574
REMARK  Name = 
REMARK  7 active torsions:
REMARK  status: ('A' for Active; 'I' for Inactive)
REMARK    1  A    between atoms: C_2  and  C_3
REMARK    2  A    between atoms: C_3  and  N_4
REMARK    3  A    between atoms: N_4  and  C_5
REMARK    4  A    between atoms: N_4  and  C_12
REMARK    5  A    between atoms: C_5  and  C_6
REMARK    6  A    between atoms: C_14  and  C_15
REMARK    7  A    between atoms: C_22  and  C_23
REMARK                            x       y       z     vdW  Elec       q    Type
REMARK                         _______ _______ _______ _____ _____    ______ ____
ROOT
ATOM      1  C   UNL     1      37.225   2.643  15.015  0.00  0.00    +0.000 A 
ATOM      2  C   UNL     1      38.085   3.261  15.896  0.00  0.00    +0.000 A 
ATOM      3  C   UNL     1      38.207   4.636  15.964  0.00  0.00    +0.000 A 
ATOM      4  C   UNL     1      37.414   5.360  15.094  0.00  0.00    +0.000 A 
ATOM      5  C   UNL     1      36.545   4.772  14.201  0.00  0.00    +0.000 A 
ATOM      6  N   UNL     1      36.484   3.431  14.196  0.00  0.00    +0.000 NA
ENDROOT
BRANCH   5   7
ATOM      7  C   UNL     1      35.714   5.557  13.288  0.00  0.00    +0.000 A 
ATOM      8  C   UNL     1      34.588   6.180  13.770  0.00  0.00    +0.000 A 
ATOM      9  C   UNL     1      33.773   6.936  12.934  0.00  0.00    +0.000 A 
ATOM     10  C   UNL     1      34.118   7.047  11.604  0.00  0.00    +0.000 A 
ATOM     11  O   UNL     1      33.275   7.817  10.785  0.00  0.00    +0.000 OA
ATOM     12  C   UNL     1      35.235   6.438  11.087  0.00  0.00    +0.000 A 
ATOM     13  C   UNL     1      36.014   5.699  11.954  0.00  0.00    +0.000 A 
ATOM     14  C   UNL     1      37.231   5.027  11.424  0.00  0.00    +0.000 C 
ENDBRANCH   5   7
BRANCH   3  15
ATOM     15  C   UNL     1      39.116   5.228  16.898  0.00  0.00    +0.000 A 
ATOM     16  C   UNL     1      40.285   5.794  16.449  0.00  0.00    +0.000 A 
ATOM     17  C   UNL     1      41.200   6.381  17.315  0.00  0.00    +0.000 A 
ATOM     18  C   UNL     1      40.896   6.375  18.654  0.00  0.00    +0.000 A 
ATOM     19  C   UNL     1      39.737   5.819  19.153  0.00  0.00    +0.000 A 
ATOM     20  C   UNL     1      38.849   5.244  18.247  0.00  0.00    +0.000 A 
ENDBRANCH   3  15
BRANCH   1  21
ATOM     21  N   UNL     1      37.086   1.236  14.927  0.00  0.00    +0.000 N 
BRANCH  21  22
ATOM     22  C   UNL     1      38.131   0.460  14.344  0.00  0.00    +0.000 C 
BRANCH  22  24
ATOM     23  C   UNL     1      37.294   0.314  11.970  0.00  0.00    +0.000 C 
ATOM     24  C   UNL     1      37.713  -0.403  13.206  0.00  0.00    +0.000 C 
ENDBRANCH  22  24
ENDBRANCH  21  22
BRANCH  21  25
ATOM     25  C   UNL     1      35.873   0.642  15.439  0.00  0.00    +0.000 C 
BRANCH  25  26
ATOM     26  C   UNL     1      36.104  -0.006  16.757  0.00  0.00    +0.000 A 
ATOM     27  C   UNL     1      35.859   0.741  17.884  0.00  0.00    +0.000 A 
ATOM     28  C   UNL     1      36.061   0.178  19.107  0.00  0.00    +0.000 A 
ATOM     29  C   UNL     1      36.505  -1.127  19.220  0.00  0.00    +0.000 A 
ATOM     30  C   UNL     1      36.737  -1.834  18.077  0.00  0.00    +0.000 A 
ATOM     31  N   UNL     1      36.536  -1.275  16.869  0.00  0.00    +0.000 NA
ENDBRANCH  25  26
ENDBRANCH  21  25
ENDBRANCH   1  21
TORSDOF 7
ENDMDL
MODEL 5
REMARK VINA RESULT:      -7.7      2.896      7.696
REMARK  Name = 
REMARK  7 active torsions:
REMARK  status: ('A' for Active; 'I' for Inactive)
REMARK    1  A    between atoms: C_2  and  C_3
REMARK    2  A    between atoms: C_3  and  N_4
REMARK    3  A    between atoms: N_4  and  C_5
REMARK    4  A    between atoms: N_4  and  C_12
REMARK    5  A    between atoms: C_5  and  C_6
REMARK    6  A    between atoms: C_14  and  C_15
REMARK    7  A    between atoms: C_22  and  C_23
REMARK                            x       y       z     vdW  Elec       q    Type
REMARK                         _______ _______ _______ _____ _____    ______ ____
ROOT
ATOM      1  C   UNL     1      37.923   4.588  16.054  0.00  0.00    +0.000 A 
ATOM      2  C   UNL     1      37.194   5.333  15.154  0.00  0.00    +0.000 A 
ATOM      3  C   UNL     1      36.088   4.822  14.500  0.00  0.00    +0.000 A 
ATOM      4  C   UNL     1      35.755   3.516  14.802  0.00  0.00    +0.000 A 
ATOM      5  C   UNL     1      36.464   2.744  15.698  0.00  0.00    +0.000 A 
ATOM      6  N   UNL     1      37.525   3.314  16.291  0.00  0.00    +0.000 NA
ENDROOT
BRANCH   5   7
ATOM      7  C   UNL     1      36.094   1.363  16.003  0.00  0.00    +0.000 A 
ATOM      8  C   UNL     1      35.183   1.116  17.004  0.00  0.00    +0.000 A 
ATOM      9  C   UNL     1      34.805  -0.184  17.324  0.00  0.00    +0.000 A 
ATOM     10  C   UNL     1      35.365  -1.226  16.616  0.00  0.00    +0.000 A 
ATOM     11  O   UNL     1      34.963  -2.527  16.963  0.00  0.00    +0.000 OA
ATOM     12  C   UNL     1      36.277  -1.017  15.610  0.00  0.00    +0.000 A 
ATOM     13  C   UNL     1      36.622   0.289  15.327  0.00  0.00    +0.000 A 
ATOM     14  C   UNL     1      37.609   0.548  14.244  0.00  0.00    +0.000 C 
ENDBRANCH   5   7
BRANCH   3  15
ATOM     15  C   UNL     1      35.365   5.637  13.572  0.00  0.00    +0.000 A 
ATOM     16  C   UNL     1      34.236   6.303  13.982  0.00  0.00    +0.000 A 
ATOM     17  C   UNL     1      33.499   7.106  13.120  0.00  0.00    +0.000 A 
ATOM     18  C   UNL     1      33.942   7.215  11.825  0.00  0.00    +0.000 A 
ATOM     19  C   UNL     1      35.069   6.566  11.365  0.00  0.00    +0.000 A 
ATOM     20  C   UNL     1      35.775   5.773  12.266  0.00  0.00    +0.000 A 
ENDBRANCH   3  15
BRANCH   1  21
ATOM     21  N   UNL     1      39.061   5.092  16.733  0.00  0.00    +0.000 N 
BRANCH  21  22
ATOM     22  C   UNL     1      40.104   5.718  15.991  0.00  0.00    +0.000 C 
BRANCH  22  24
ATOM     23  C   UNL     1      42.483   6.552  16.055  0.00  0.00    +0.000 C 
ATOM     24  C   UNL     1      41.241   6.222  16.807  0.00  0.00    +0.000 C 
ENDBRANCH  22  24
ENDBRANCH  21  22
BRANCH  21  25
ATOM     25  C   UNL     1      39.112   4.945  18.169  0.00  0.00    +0.000 C 
BRANCH  25  26
ATOM     26  C   UNL     1      38.900   6.247  18.854  0.00  0.00    +0.000 A 
ATOM     27  C   UNL     1      37.945   7.089  18.337  0.00  0.00    +0.000 A 
ATOM     28  C   UNL     1      37.726   8.289  18.940  0.00  0.00    +0.000 A 
ATOM     29  C   UNL     1      38.451   8.663  20.056  0.00  0.00    +0.000 A 
ATOM     30  C   UNL     1      39.391   7.799  20.537  0.00  0.00    +0.000 A 
ATOM     31  N   UNL     1      39.605   6.612  19.939  0.00  0.00    +0.000 NA
ENDBRANCH  25  26
ENDBRANCH  21  25
ENDBRANCH   1  21
TORSDOF 7
ENDMDL
MODEL 6
REMARK VINA RESULT:      -7.7      2.855      7.064
REMARK  Name = 
REMARK  7 active torsions:
REMARK  status: ('A' for Active; 'I' for Inactive)
REMARK    1  A    between atoms: C_2  and  C_3
REMARK    2  A    between atoms: C_3  and  N_4
REMARK    3  A    between atoms: N_4  and  C_5
REMARK    4  A    between atoms: N_4  and  C_12
REMARK    5  A    between atoms: C_5  and  C_6
REMARK    6  A    between atoms: C_14  and  C_15
REMARK    7  A    between atoms: C_22  and  C_23
REMARK                            x       y       z     vdW  Elec       q    Type
REMARK                         _______ _______ _______ _____ _____    ______ ____
ROOT
ATOM      1  C   UNL     1      36.951   5.533  14.911  0.00  0.00    +0.000 A 
ATOM      2  C   UNL     1      37.939   5.972  15.765  0.00  0.00    +0.000 A 
ATOM      3  C   UNL     1      38.480   5.160  16.744  0.00  0.00    +0.000 A 
ATOM      4  C   UNL     1      37.972   3.877  16.818  0.00  0.00    +0.000 A 
ATOM      5  C   UNL     1      36.985   3.408  15.979  0.00  0.00    +0.000 A 
ATOM      6  N   UNL     1      36.511   4.258  15.054  0.00  0.00    +0.000 NA
ENDROOT
BRANCH   5   7
ATOM      7  C   UNL     1      36.461   2.046  16.074  0.00  0.00    +0.000 A 
ATOM      8  C   UNL     1      35.350   1.804  16.846  0.00  0.00    +0.000 A 
ATOM      9  C   UNL     1      34.821   0.523  16.962  0.00  0.00    +0.000 A 
ATOM     10  C   UNL     1      35.437  -0.506  16.283  0.00  0.00    +0.000 A 
ATOM     11  O   UNL     1      34.880  -1.789  16.419  0.00  0.00    +0.000 OA
ATOM     12  C   UNL     1      36.549  -0.303  15.502  0.00  0.00    +0.000 A 
ATOM     13  C   UNL     1      37.038   0.985  15.417  0.00  0.00    +0.000 A 
ATOM     14  C   UNL     1      38.241   1.238  14.578  0.00  0.00    +0.000 C 
ENDBRANCH   5   7
BRANCH   3  15
ATOM     15  C   UNL     1      39.504   5.665  17.607  0.00  0.00    +0.000 A 
ATOM     16  C   UNL     1      40.723   6.025  17.085  0.00  0.00    +0.000 A 
ATOM     17  C   UNL     1      41.749   6.520  17.880  0.00  0.00    +0.000 A 
ATOM     18  C   UNL     1      41.503   6.640  19.226  0.00  0.00    +0.000 A 
ATOM     19  C   UNL     1      40.297   6.292  19.798  0.00  0.00    +0.000 A 
ATOM     20  C   UNL     1      39.299   5.801  18.960  0.00  0.00    +0.000 A 
ENDBRANCH   3  15
BRANCH   1  21
ATOM     21  N   UNL     1      36.381   6.349  13.902  0.00  0.00    +0.000 N 
BRANCH  21  22
ATOM     22  C   UNL     1      35.616   5.749  12.860  0.00  0.00    +0.000 C 
BRANCH  22  24
ATOM     23  C   UNL     1      35.506   6.423  10.432  0.00  0.00    +0.000 C 
ATOM     24  C   UNL     1      36.267   5.751  11.522  0.00  0.00    +0.000 C 
ENDBRANCH  22  24
ENDBRANCH  21  22
BRANCH  21  25
ATOM     25  C   UNL     1      36.605   7.774  13.976  0.00  0.00    +0.000 C 
BRANCH  25  26
ATOM     26  C   UNL     1      35.665   8.420  14.930  0.00  0.00    +0.000 A 
ATOM     27  C   UNL     1      34.319   8.270  14.696  0.00  0.00    +0.000 A 
ATOM     28  C   UNL     1      33.431   8.849  15.550  0.00  0.00    +0.000 A 
ATOM     29  C   UNL     1      33.870   9.578  16.639  0.00  0.00    +0.000 A 
ATOM     30  C   UNL     1      35.214   9.703  16.836  0.00  0.00    +0.000 A 
ATOM     31  N   UNL     1      36.091   9.130  15.990  0.00  0.00    +0.000 NA
ENDBRANCH  25  26
ENDBRANCH  21  25
ENDBRANCH   1  21
TORSDOF 7
ENDMDL
MODEL 7
REMARK VINA RESULT:      -7.4      2.356      6.692
REMARK  Name = 
REMARK  7 active torsions:
REMARK  status: ('A' for Active; 'I' for Inactive)
REMARK    1  A    between atoms: C_2  and  C_3
REMARK    2  A    between atoms: C_3  and  N_4
REMARK    3  A    between atoms: N_4  and  C_5
REMARK    4  A    between atoms: N_4  and  C_12
REMARK    5  A    between atoms: C_5  and  C_6
REMARK    6  A    between atoms: C_14  and  C_15
REMARK    7  A    between atoms: C_22  and  C_23
REMARK                            x       y       z     vdW  Elec       q    Type
REMARK                         _______ _______ _______ _____ _____    ______ ____
ROOT
ATOM      1  C   UNL     1      37.648   5.409  15.438  0.00  0.00    +0.000 A 
ATOM      2  C   UNL     1      37.282   4.137  15.817  0.00  0.00    +0.000 A 
ATOM      3  C   UNL     1      36.328   3.409  15.129  0.00  0.00    +0.000 A 
ATOM      4  C   UNL     1      35.760   4.034  14.036  0.00  0.00    +0.000 A 
ATOM      5  C   UNL     1      36.104   5.305  13.632  0.00  0.00    +0.000 A 
ATOM      6  N   UNL     1      37.038   5.946  14.352  0.00  0.00    +0.000 NA
ENDROOT
BRANCH   5   7
ATOM      7  C   UNL     1      35.490   5.949  12.471  0.00  0.00    +0.000 A 
ATOM      8  C   UNL     1      36.050   5.770  11.228  0.00  0.00    +0.000 A 
ATOM      9  C   UNL     1      35.495   6.365  10.099  0.00  0.00    +0.000 A 
ATOM     10  C   UNL     1      34.367   7.142  10.252  0.00  0.00    +0.000 A 
ATOM     11  O   UNL     1      33.830   7.729   9.094  0.00  0.00    +0.000 OA
ATOM     12  C   UNL     1      33.780   7.343  11.478  0.00  0.00    +0.000 A 
ATOM     13  C   UNL     1      34.365   6.733  12.569  0.00  0.00    +0.000 A 
ATOM     14  C   UNL     1      33.753   6.932  13.911  0.00  0.00    +0.000 C 
ENDBRANCH   5   7
BRANCH   3  15
ATOM     15  C   UNL     1      35.982   2.090  15.566  0.00  0.00    +0.000 A 
ATOM     16  C   UNL     1      35.129   1.923  16.628  0.00  0.00    +0.000 A 
ATOM     17  C   UNL     1      34.764   0.664  17.090  0.00  0.00    +0.000 A 
ATOM     18  C   UNL     1      35.292  -0.425  16.441  0.00  0.00    +0.000 A 
ATOM     19  C   UNL     1      36.154  -0.309  15.370  0.00  0.00    +0.000 A 
ATOM     20  C   UNL     1      36.490   0.973  14.942  0.00  0.00    +0.000 A 
ENDBRANCH   3  15
BRANCH   1  21
ATOM     21  N   UNL     1      38.621   6.173  16.129  0.00  0.00    +0.000 N 
BRANCH  21  22
ATOM     22  C   UNL     1      39.491   5.529  17.057  0.00  0.00    +0.000 C 
BRANCH  22  24
ATOM     23  C   UNL     1      39.859   6.174  19.468  0.00  0.00    +0.000 C 
ATOM     24  C   UNL     1      38.998   5.495  18.461  0.00  0.00    +0.000 C 
ENDBRANCH  22  24
ENDBRANCH  21  22
BRANCH  21  25
ATOM     25  C   UNL     1      38.688   7.590  15.858  0.00  0.00    +0.000 C 
BRANCH  25  26
ATOM     26  C   UNL     1      37.606   8.326  16.564  0.00  0.00    +0.000 A 
ATOM     27  C   UNL     1      36.585   8.840  15.802  0.00  0.00    +0.000 A 
ATOM     28  C   UNL     1      35.579   9.521  16.416  0.00  0.00    +0.000 A 
ATOM     29  C   UNL     1      35.579   9.695  17.788  0.00  0.00    +0.000 A 
ATOM     30  C   UNL     1      36.612   9.170  18.508  0.00  0.00    +0.000 A 
ATOM     31  N   UNL     1      37.605   8.497  17.898  0.00  0.00    +0.000 NA
ENDBRANCH  25  26
ENDBRANCH  21  25
ENDBRANCH   1  21
TORSDOF 7
ENDMDL
MODEL 8
REMARK VINA RESULT:      -7.4      4.525      7.574
REMARK  Name = 
REMARK  7 active torsions:
REMARK  status: ('A' for Active; 'I' for Inactive)
REMARK    1  A    between atoms: C_2  and  C_3
REMARK    2  A    between atoms: C_3  and  N_4
REMARK    3  A    between atoms: N_4  and  C_5
REMARK    4  A    between atoms: N_4  and  C_12
REMARK    5  A    between atoms: C_5  and  C_6
REMARK    6  A    between atoms: C_14  and  C_15
REMARK    7  A    between atoms: C_22  and  C_23
REMARK                            x       y       z     vdW  Elec       q    Type
REMARK                         _______ _______ _______ _____ _____    ______ ____
ROOT
ATOM      1  C   UNL     1      36.551  -2.190  14.640  0.00  0.00    +0.000 A 
ATOM      2  C   UNL     1      36.246  -0.849  14.573  0.00  0.00    +0.000 A 
ATOM      3  C   UNL     1      37.050   0.057  13.905  0.00  0.00    +0.000 A 
ATOM      4  C   UNL     1      38.181  -0.462  13.307  0.00  0.00    +0.000 A 
ATOM      5  C   UNL     1      38.514  -1.799  13.356  0.00  0.00    +0.000 A 
ATOM      6  N   UNL     1      37.682  -2.614  14.023  0.00  0.00    +0.000 NA
ENDROOT
BRANCH   5   7
ATOM      7  C   UNL     1      39.717  -2.328  12.715  0.00  0.00    +0.000 A 
ATOM      8  C   UNL     1      39.744  -2.472  11.348  0.00  0.00    +0.000 A 
ATOM      9  C   UNL     1      40.870  -2.972  10.701  0.00  0.00    +0.000 A 
ATOM     10  C   UNL     1      41.965  -3.322  11.462  0.00  0.00    +0.000 A 
ATOM     11  O   UNL     1      43.086  -3.823  10.780  0.00  0.00    +0.000 OA
ATOM     12  C   UNL     1      41.974  -3.191  12.829  0.00  0.00    +0.000 A 
ATOM     13  C   UNL     1      40.836  -2.691  13.428  0.00  0.00    +0.000 A 
ATOM     14  C   UNL     1      40.815  -2.539  14.908  0.00  0.00    +0.000 C 
ENDBRANCH   5   7
BRANCH   3  15
ATOM     15  C   UNL     1      36.688   1.441  13.866  0.00  0.00    +0.000 A 
ATOM     16  C   UNL     1      37.406   2.314  13.085  0.00  0.00    +0.000 A 
ATOM     17  C   UNL     1      37.095   3.666  13.015  0.00  0.00    +0.000 A 
ATOM     18  C   UNL     1      36.032   4.110  13.762  0.00  0.00    +0.000 A 
ATOM     19  C   UNL     1      35.281   3.274  14.561  0.00  0.00    +0.000 A 
ATOM     20  C   UNL     1      35.630   1.926  14.600  0.00  0.00    +0.000 A 
ENDBRANCH   3  15
BRANCH   1  21
ATOM     21  N   UNL     1      35.742  -3.135  15.319  0.00  0.00    +0.000 N 
BRANCH  21  22
ATOM     22  C   UNL     1      35.789  -4.507  14.936  0.00  0.00    +0.000 C 
BRANCH  22  24
ATOM     23  C   UNL     1      33.545  -4.960  13.876  0.00  0.00    +0.000 C 
ATOM     24  C   UNL     1      34.486  -5.222  15.001  0.00  0.00    +0.000 C 
ENDBRANCH  22  24
ENDBRANCH  21  22
BRANCH  21  25
ATOM     25  C   UNL     1      34.894  -2.657  16.387  0.00  0.00    +0.000 C 
BRANCH  25  26
ATOM     26  C   UNL     1      35.698  -2.109  17.511  0.00  0.00    +0.000 A 
ATOM     27  C   UNL     1      35.270  -0.937  18.087  0.00  0.00    +0.000 A 
ATOM     28  C   UNL     1      35.983  -0.408  19.118  0.00  0.00    +0.000 A 
ATOM     29  C   UNL     1      37.123  -1.036  19.585  0.00  0.00    +0.000 A 
ATOM     30  C   UNL     1      37.515  -2.197  18.985  0.00  0.00    +0.000 A 
ATOM     31  N   UNL     1      36.808  -2.718  17.965  0.00  0.00    +0.000 NA
ENDBRANCH  25  26
ENDBRANCH  21  25
ENDBRANCH   1  21
TORSDOF 7
ENDMDL
MODEL 9
REMARK VINA RESULT:      -7.4      2.360      6.456
REMARK  Name = 
REMARK  7 active torsions:
REMARK  status: ('A' for Active; 'I' for Inactive)
REMARK    1  A    between atoms: C_2  and  C_3
REMARK    2  A    between atoms: C_3  and  N_4
REMARK    3  A    between atoms: N_4  and  C_5
REMARK    4  A    between atoms: N_4  and  C_12
REMARK    5  A    between atoms: C_5  and  C_6
REMARK    6  A    between atoms: C_14  and  C_15
REMARK    7  A    between atoms: C_22  and  C_23
REMARK                            x       y       z     vdW  Elec       q    Type
REMARK                         _______ _______ _______ _____ _____    ______ ____
ROOT
ATOM      1  C   UNL     1      37.584   6.051  15.083  0.00  0.00    +0.000 A 
ATOM      2  C   UNL     1      37.296   4.792  15.562  0.00  0.00    +0.000 A 
ATOM      3  C   UNL     1      36.401   3.950  14.927  0.00  0.00    +0.000 A 
ATOM      4  C   UNL     1      35.810   4.445  13.781  0.00  0.00    +0.000 A 
ATOM      5  C   UNL     1      36.077   5.699  13.277  0.00  0.00    +0.000 A 
ATOM      6  N   UNL     1      36.957   6.456  13.950  0.00  0.00    +0.000 NA
ENDROOT
BRANCH   5   7
ATOM      7  C   UNL     1      35.440   6.204  12.061  0.00  0.00    +0.000 A 
ATOM      8  C   UNL     1      36.045   5.989  10.845  0.00  0.00    +0.000 A 
ATOM      9  C   UNL     1      35.470   6.453   9.666  0.00  0.00    +0.000 A 
ATOM     10  C   UNL     1      34.275   7.137   9.742  0.00  0.00    +0.000 A 
ATOM     11  O   UNL     1      33.720   7.592   8.534  0.00  0.00    +0.000 OA
ATOM     12  C   UNL     1      33.642   7.370  10.938  0.00  0.00    +0.000 A 
ATOM     13  C   UNL     1      34.249   6.891  12.081  0.00  0.00    +0.000 A 
ATOM     14  C   UNL     1      33.588   7.128  13.393  0.00  0.00    +0.000 C 
ENDBRANCH   5   7
BRANCH   3  15
ATOM     15  C   UNL     1      36.136   2.651  15.468  0.00  0.00    +0.000 A 
ATOM     16  C   UNL     1      36.934   1.589  15.119  0.00  0.00    +0.000 A 
ATOM     17  C   UNL     1      36.717   0.310  15.616  0.00  0.00    +0.000 A 
ATOM     18  C   UNL     1      35.663   0.137  16.478  0.00  0.00    +0.000 A 
ATOM     19  C   UNL     1      34.833   1.171  16.859  0.00  0.00    +0.000 A 
ATOM     20  C   UNL     1      35.090   2.436  16.336  0.00  0.00    +0.000 A 
ENDBRANCH   3  15
BRANCH   1  21
ATOM     21  N   UNL     1      38.496   6.931  15.717  0.00  0.00    +0.000 N 
BRANCH  21  22
ATOM     22  C   UNL     1      39.801   7.106  15.171  0.00  0.00    +0.000 C 
BRANCH  22  24
ATOM     23  C   UNL     1      40.962   5.268  13.892  0.00  0.00    +0.000 C 
ATOM     24  C   UNL     1      40.666   5.896  15.209  0.00  0.00    +0.000 C 
ENDBRANCH  22  24
ENDBRANCH  21  22
BRANCH  21  25
ATOM     25  C   UNL     1      38.055   7.620  16.908  0.00  0.00    +0.000 C 
BRANCH  25  26
ATOM     26  C   UNL     1      39.036   7.466  18.015  0.00  0.00    +0.000 A 
ATOM     27  C   UNL     1      39.123   6.237  18.622  0.00  0.00    +0.000 A 
ATOM     28  C   UNL     1      40.010   6.062  19.639  0.00  0.00    +0.000 A 
ATOM     29  C   UNL     1      40.816   7.104  20.060  0.00  0.00    +0.000 A 
ATOM     30  C   UNL     1      40.699   8.309  19.432  0.00  0.00    +0.000 A 
ATOM     31  N   UNL     1      39.820   8.479  18.426  0.00  0.00    +0.000 NA
ENDBRANCH  25  26
ENDBRANCH  21  25
ENDBRANCH   1  21
TORSDOF 7
ENDMDL
MODEL 10
REMARK VINA RESULT:      -7.2      4.279      7.001
REMARK  Name = 
REMARK  7 active torsions:
REMARK  status: ('A' for Active; 'I' for Inactive)
REMARK    1  A    between atoms: C_2  and  C_3
REMARK    2  A    between atoms: C_3  and  N_4
REMARK    3  A    between atoms: N_4  and  C_5
REMARK    4  A    between atoms: N_4  and  C_12
REMARK    5  A    between atoms: C_5  and  C_6
REMARK    6  A    between atoms: C_14  and  C_15
REMARK    7  A    between atoms: C_22  and  C_23
REMARK                            x       y       z     vdW  Elec       q    Type
REMARK                         _______ _______ _______ _____ _____    ______ ____
ROOT
ATOM      1  C   UNL     1      37.575  -1.420  16.011  0.00  0.00    +0.000 A 
ATOM      2  C   UNL     1      36.830  -0.275  15.837  0.00  0.00    +0.000 A 
ATOM      3  C   UNL     1      37.245   0.756  15.015  0.00  0.00    +0.000 A 
ATOM      4  C   UNL     1      38.455   0.573  14.376  0.00  0.00    +0.000 A 
ATOM      5  C   UNL     1      39.225  -0.560  14.529  0.00  0.00    +0.000 A 
ATOM      6  N   UNL     1      38.753  -1.516  15.345  0.00  0.00    +0.000 NA
ENDROOT
BRANCH   5   7
ATOM      7  C   UNL     1      40.504  -0.734  13.842  0.00  0.00    +0.000 A 
ATOM      8  C   UNL     1      41.617  -0.081  14.316  0.00  0.00    +0.000 A 
ATOM      9  C   UNL     1      42.852  -0.222  13.691  0.00  0.00    +0.000 A 
ATOM     10  C   UNL     1      42.938  -1.033  12.580  0.00  0.00    +0.000 A 
ATOM     11  O   UNL     1      44.198  -1.155  11.971  0.00  0.00    +0.000 OA
ATOM     12  C   UNL     1      41.847  -1.701  12.078  0.00  0.00    +0.000 A 
ATOM     13  C   UNL     1      40.644  -1.532  12.731  0.00  0.00    +0.000 A 
ATOM     14  C   UNL     1      39.444  -2.242  12.211  0.00  0.00    +0.000 C 
ENDBRANCH   5   7
BRANCH   3  15
ATOM     15  C   UNL     1      36.432   1.926  14.870  0.00  0.00    +0.000 A 
ATOM     16  C   UNL     1      36.874   2.974  14.099  0.00  0.00    +0.000 A 
ATOM     17  C   UNL     1      36.123   4.130  13.927  0.00  0.00    +0.000 A 
ATOM     18  C   UNL     1      34.908   4.195  14.563  0.00  0.00    +0.000 A 
ATOM     19  C   UNL     1      34.421   3.170  15.347  0.00  0.00    +0.000 A 
ATOM     20  C   UNL     1      35.208   2.030  15.489  0.00  0.00    +0.000 A 
ENDBRANCH   3  15
BRANCH   1  21
ATOM     21  N   UNL     1      37.170  -2.488  16.850  0.00  0.00    +0.000 N 
BRANCH  21  22
ATOM     22  C   UNL     1      36.508  -2.204  18.081  0.00  0.00    +0.000 C 
BRANCH  22  24
ATOM     23  C   UNL     1      37.918  -2.742  20.101  0.00  0.00    +0.000 C 
ATOM     24  C   UNL     1      37.392  -1.706  19.170  0.00  0.00    +0.000 C 
ENDBRANCH  22  24
ENDBRANCH  21  22
BRANCH  21  25
ATOM     25  C   UNL     1      37.451  -3.836  16.414  0.00  0.00    +0.000 C 
BRANCH  25  26
ATOM     26  C   UNL     1      36.231  -4.495  15.878  0.00  0.00    +0.000 A 
ATOM     27  C   UNL     1      35.505  -3.815  14.930  0.00  0.00    +0.000 A 
ATOM     28  C   UNL     1      34.382  -4.390  14.419  0.00  0.00    +0.000 A 
ATOM     29  C   UNL     1      33.973  -5.641  14.842  0.00  0.00    +0.000 A 
ATOM     30  C   UNL     1      34.721  -6.282  15.785  0.00  0.00    +0.000 A 
ATOM     31  N   UNL     1      35.831  -5.712  16.289  0.00  0.00    +0.000 NA
ENDBRANCH  25  26
ENDBRANCH  21  25
ENDBRANCH   1  21
TORSDOF 7
ENDMDL
