MODEL 1
REMARK VINA RESULT:      -6.6      0.000      0.000
REMARK  Name = 
REMARK  3 active torsions:
REMARK  status: ('A' for Active; 'I' for Inactive)
REMARK    1  A    between atoms: O_2  and  C_3
REMARK    2  A    between atoms: C_11  and  N_12
REMARK    3  A    between atoms: N_12  and  C_13
REMARK                            x       y       z     vdW  Elec       q    Type
REMARK                         _______ _______ _______ _____ _____    ______ ____
ROOT
ATOM      1  C   UNL     1      33.688   2.784  33.594  0.00  0.00    +0.000 A 
ATOM      2  C   UNL     1      34.016   2.137  32.442  0.00  0.00    +0.000 A 
ATOM      3  C   UNL     1      34.100   0.764  32.442  0.00  0.00    +0.000 A 
ATOM      4  C   UNL     1      33.854   0.009  33.606  0.00  0.00    +0.000 A 
ATOM      5  C   UNL     1      33.524   0.656  34.759  0.00  0.00    +0.000 A 
ATOM      6  C   UNL     1      33.449   2.056  34.717  0.00  0.00    +0.000 A 
ATOM      7  C   UNL     1      33.258  -0.093  35.992  0.00  0.00    +0.000 C 
ATOM      8  C   UNL     1      33.524  -1.541  35.888  0.00  0.00    +0.000 C 
ATOM      9  C   UNL     1      32.759  -2.053  34.511  0.00  0.00    +0.000 C 
ATOM     10  C   UNL     1      33.953  -1.456  33.572  0.00  0.00    +0.000 C 
ENDROOT
BRANCH   1  12
ATOM     11  C   UNL     1      33.564   4.874  34.900  0.00  0.00    +0.000 C 
ATOM     12  O   UNL     1      33.576   4.177  33.696  0.00  0.00    +0.000 OA
ENDBRANCH   1  12
BRANCH   9  13
ATOM     13  N   UNL     1      33.396  -3.473  34.594  0.00  0.00    +0.000 NA
BRANCH  13  14
ATOM     14  C   UNL     1      32.917  -4.442  33.693  0.00  0.00    +0.000 A 
ATOM     15  C   UNL     1      33.587  -4.488  32.488  0.00  0.00    +0.000 A 
ATOM     16  C   UNL     1      33.243  -5.386  31.487  0.00  0.00    +0.000 A 
ATOM     17  C   UNL     1      32.203  -6.261  31.693  0.00  0.00    +0.000 A 
ATOM     18  O   UNL     1      31.890  -7.139  30.673  0.00  0.00    +0.000 OA
ATOM     19  C   UNL     1      31.543  -6.205  32.896  0.00  0.00    +0.000 A 
ATOM     20  C   UNL     1      31.890  -5.307  33.894  0.00  0.00    +0.000 A 
ENDBRANCH  13  14
ENDBRANCH   9  13
TORSDOF 3
ENDMDL
MODEL 2
REMARK VINA RESULT:      -6.5     26.368     29.108
REMARK  Name = 
REMARK  3 active torsions:
REMARK  status: ('A' for Active; 'I' for Inactive)
REMARK    1  A    between atoms: O_2  and  C_3
REMARK    2  A    between atoms: C_11  and  N_12
REMARK    3  A    between atoms: N_12  and  C_13
REMARK                            x       y       z     vdW  Elec       q    Type
REMARK                         _______ _______ _______ _____ _____    ______ ____
ROOT
ATOM      1  C   UNL     1      29.335  26.270  20.540  0.00  0.00    +0.000 A 
ATOM      2  C   UNL     1      28.495  27.258  20.953  0.00  0.00    +0.000 A 
ATOM      3  C   UNL     1      27.620  27.010  21.985  0.00  0.00    +0.000 A 
ATOM      4  C   UNL     1      27.572  25.757  22.629  0.00  0.00    +0.000 A 
ATOM      5  C   UNL     1      28.414  24.768  22.216  0.00  0.00    +0.000 A 
ATOM      6  C   UNL     1      29.290  25.061  21.161  0.00  0.00    +0.000 A 
ATOM      7  C   UNL     1      28.397  23.449  22.860  0.00  0.00    +0.000 C 
ATOM      8  C   UNL     1      27.317  23.275  23.850  0.00  0.00    +0.000 C 
ATOM      9  C   UNL     1      27.380  24.601  24.841  0.00  0.00    +0.000 C 
ATOM     10  C   UNL     1      26.626  25.525  23.727  0.00  0.00    +0.000 C 
ENDROOT
BRANCH   1  12
ATOM     11  C   UNL     1      30.159  27.386  18.499  0.00  0.00    +0.000 C 
ATOM     12  O   UNL     1      30.260  26.424  19.500  0.00  0.00    +0.000 OA
ENDBRANCH   1  12
BRANCH   9  13
ATOM     13  N   UNL     1      26.056  24.216  25.567  0.00  0.00    +0.000 NA
BRANCH  13  14
ATOM     14  C   UNL     1      26.114  24.066  26.965  0.00  0.00    +0.000 A 
ATOM     15  C   UNL     1      25.379  24.994  27.674  0.00  0.00    +0.000 A 
ATOM     16  C   UNL     1      25.326  24.990  29.061  0.00  0.00    +0.000 A 
ATOM     17  C   UNL     1      26.025  24.035  29.760  0.00  0.00    +0.000 A 
ATOM     18  O   UNL     1      25.949  24.063  31.139  0.00  0.00    +0.000 OA
ATOM     19  C   UNL     1      26.753  23.116  29.043  0.00  0.00    +0.000 A 
ATOM     20  C   UNL     1      26.803  23.124  27.658  0.00  0.00    +0.000 A 
ENDBRANCH  13  14
ENDBRANCH   9  13
TORSDOF 3
ENDMDL
MODEL 3
REMARK VINA RESULT:      -6.4     27.019     28.147
REMARK  Name = 
REMARK  3 active torsions:
REMARK  status: ('A' for Active; 'I' for Inactive)
REMARK    1  A    between atoms: O_2  and  C_3
REMARK    2  A    between atoms: C_11  and  N_12
REMARK    3  A    between atoms: N_12  and  C_13
REMARK                            x       y       z     vdW  Elec       q    Type
REMARK                         _______ _______ _______ _____ _____    ______ ____
ROOT
ATOM      1  C   UNL     1      25.126  25.833  31.137  0.00  0.00    +0.000 A 
ATOM      2  C   UNL     1      26.056  24.866  31.366  0.00  0.00    +0.000 A 
ATOM      3  C   UNL     1      26.515  24.111  30.312  0.00  0.00    +0.000 A 
ATOM      4  C   UNL     1      26.047  24.314  28.998  0.00  0.00    +0.000 A 
ATOM      5  C   UNL     1      25.116  25.284  28.769  0.00  0.00    +0.000 A 
ATOM      6  C   UNL     1      24.675  26.031  29.870  0.00  0.00    +0.000 A 
ATOM      7  C   UNL     1      24.604  25.529  27.415  0.00  0.00    +0.000 C 
ATOM      8  C   UNL     1      25.071  24.556  26.408  0.00  0.00    +0.000 C 
ATOM      9  C   UNL     1      26.714  24.457  26.589  0.00  0.00    +0.000 C 
ATOM     10  C   UNL     1      26.556  23.490  27.895  0.00  0.00    +0.000 C 
ENDROOT
BRANCH   1  12
ATOM     11  C   UNL     1      24.708  26.390  33.505  0.00  0.00    +0.000 C 
ATOM     12  O   UNL     1      24.598  26.654  32.143  0.00  0.00    +0.000 OA
ENDBRANCH   1  12
BRANCH   9  13
ATOM     13  N   UNL     1      26.827  23.264  25.593  0.00  0.00    +0.000 NA
BRANCH  13  14
ATOM     14  C   UNL     1      27.416  23.529  24.342  0.00  0.00    +0.000 A 
ATOM     15  C   UNL     1      28.793  23.605  24.360  0.00  0.00    +0.000 A 
ATOM     16  C   UNL     1      29.533  23.859  23.213  0.00  0.00    +0.000 A 
ATOM     17  C   UNL     1      28.881  24.043  22.017  0.00  0.00    +0.000 A 
ATOM     18  O   UNL     1      29.650  24.295  20.897  0.00  0.00    +0.000 OA
ATOM     19  C   UNL     1      27.509  23.965  22.012  0.00  0.00    +0.000 A 
ATOM     20  C   UNL     1      26.775  23.710  23.160  0.00  0.00    +0.000 A 
ENDBRANCH  13  14
ENDBRANCH   9  13
TORSDOF 3
ENDMDL
MODEL 4
REMARK VINA RESULT:      -6.3     14.596     16.583
REMARK  Name = 
REMARK  3 active torsions:
REMARK  status: ('A' for Active; 'I' for Inactive)
REMARK    1  A    between atoms: O_2  and  C_3
REMARK    2  A    between atoms: C_11  and  N_12
REMARK    3  A    between atoms: N_12  and  C_13
REMARK                            x       y       z     vdW  Elec       q    Type
REMARK                         _______ _______ _______ _____ _____    ______ ____
ROOT
ATOM      1  C   UNL     1      17.971  -7.060  26.465  0.00  0.00    +0.000 A 
ATOM      2  C   UNL     1      18.397  -5.769  26.403  0.00  0.00    +0.000 A 
ATOM      3  C   UNL     1      19.680  -5.502  25.985  0.00  0.00    +0.000 A 
ATOM      4  C   UNL     1      20.567  -6.534  25.618  0.00  0.00    +0.000 A 
ATOM      5  C   UNL     1      20.141  -7.827  25.680  0.00  0.00    +0.000 A 
ATOM      6  C   UNL     1      18.826  -8.056  26.111  0.00  0.00    +0.000 A 
ATOM      7  C   UNL     1      21.032  -8.931  25.305  0.00  0.00    +0.000 C 
ATOM      8  C   UNL     1      22.419  -8.516  25.016  0.00  0.00    +0.000 C 
ATOM      9  C   UNL     1      22.309  -7.241  23.964  0.00  0.00    +0.000 C 
ATOM     10  C   UNL     1      21.930  -6.216  25.177  0.00  0.00    +0.000 C 
ENDROOT
BRANCH   1  12
ATOM     11  C   UNL     1      15.755  -8.067  26.059  0.00  0.00    +0.000 C 
ATOM     12  O   UNL     1      16.686  -7.433  26.878  0.00  0.00    +0.000 OA
ENDBRANCH   1  12
BRANCH   9  13
ATOM     13  N   UNL     1      23.835  -6.941  24.050  0.00  0.00    +0.000 NA
BRANCH  13  14
ATOM     14  C   UNL     1      24.679  -7.667  23.189  0.00  0.00    +0.000 A 
ATOM     15  C   UNL     1      26.026  -7.419  23.360  0.00  0.00    +0.000 A 
ATOM     16  C   UNL     1      26.996  -8.051  22.594  0.00  0.00    +0.000 A 
ATOM     17  C   UNL     1      26.612  -8.954  21.631  0.00  0.00    +0.000 A 
ATOM     18  O   UNL     1      27.606  -9.561  20.888  0.00  0.00    +0.000 OA
ATOM     19  C   UNL     1      25.269  -9.192  21.470  0.00  0.00    +0.000 A 
ATOM     20  C   UNL     1      24.304  -8.559  22.238  0.00  0.00    +0.000 A 
ENDBRANCH  13  14
ENDBRANCH   9  13
TORSDOF 3
ENDMDL
MODEL 5
REMARK VINA RESULT:      -6.2     23.365     26.441
REMARK  Name = 
REMARK  3 active torsions:
REMARK  status: ('A' for Active; 'I' for Inactive)
REMARK    1  A    between atoms: O_2  and  C_3
REMARK    2  A    between atoms: C_11  and  N_12
REMARK    3  A    between atoms: N_12  and  C_13
REMARK                            x       y       z     vdW  Elec       q    Type
REMARK                         _______ _______ _______ _____ _____    ______ ____
ROOT
ATOM      1  C   UNL     1      31.754  21.945  30.536  0.00  0.00    +0.000 A 
ATOM      2  C   UNL     1      32.323  21.655  29.335  0.00  0.00    +0.000 A 
ATOM      3  C   UNL     1      31.623  21.913  28.178  0.00  0.00    +0.000 A 
ATOM      4  C   UNL     1      30.331  22.473  28.207  0.00  0.00    +0.000 A 
ATOM      5  C   UNL     1      29.761  22.764  29.410  0.00  0.00    +0.000 A 
ATOM      6  C   UNL     1      30.507  22.486  30.564  0.00  0.00    +0.000 A 
ATOM      7  C   UNL     1      28.417  23.350  29.484  0.00  0.00    +0.000 C 
ATOM      8  C   UNL     1      27.726  23.440  28.183  0.00  0.00    +0.000 C 
ATOM      9  C   UNL     1      28.801  24.142  27.136  0.00  0.00    +0.000 C 
ATOM     10  C   UNL     1      29.610  22.736  26.955  0.00  0.00    +0.000 C 
ENDROOT
BRANCH   1  12
ATOM     11  C   UNL     1      33.635  21.125  31.908  0.00  0.00    +0.000 C 
ATOM     12  O   UNL     1      32.384  21.719  31.767  0.00  0.00    +0.000 OA
ENDBRANCH   1  12
BRANCH   9  13
ATOM     13  N   UNL     1      27.882  23.890  25.904  0.00  0.00    +0.000 NA
BRANCH  13  14
ATOM     14  C   UNL     1      28.419  24.180  24.635  0.00  0.00    +0.000 A 
ATOM     15  C   UNL     1      27.891  23.434  23.602  0.00  0.00    +0.000 A 
ATOM     16  C   UNL     1      28.308  23.593  22.288  0.00  0.00    +0.000 A 
ATOM     17  C   UNL     1      29.279  24.521  21.996  0.00  0.00    +0.000 A 
ATOM     18  O   UNL     1      29.669  24.651  20.677  0.00  0.00    +0.000 OA
ATOM     19  C   UNL     1      29.798  25.258  23.033  0.00  0.00    +0.000 A 
ATOM     20  C   UNL     1      29.378  25.096  24.344  0.00  0.00    +0.000 A 
ENDBRANCH  13  14
ENDBRANCH   9  13
TORSDOF 3
ENDMDL
MODEL 6
REMARK VINA RESULT:      -6.1     24.144     27.305
REMARK  Name = 
REMARK  3 active torsions:
REMARK  status: ('A' for Active; 'I' for Inactive)
REMARK    1  A    between atoms: O_2  and  C_3
REMARK    2  A    between atoms: C_11  and  N_12
REMARK    3  A    between atoms: N_12  and  C_13
REMARK                            x       y       z     vdW  Elec       q    Type
REMARK                         _______ _______ _______ _____ _____    ______ ____
ROOT
ATOM      1  C   UNL     1      29.245  22.868  30.564  0.00  0.00    +0.000 A 
ATOM      2  C   UNL     1      30.141  22.642  29.566  0.00  0.00    +0.000 A 
ATOM      3  C   UNL     1      29.751  22.816  28.258  0.00  0.00    +0.000 A 
ATOM      4  C   UNL     1      28.443  23.224  27.926  0.00  0.00    +0.000 A 
ATOM      5  C   UNL     1      27.545  23.451  28.926  0.00  0.00    +0.000 A 
ATOM      6  C   UNL     1      27.984  23.263  30.245  0.00  0.00    +0.000 A 
ATOM      7  C   UNL     1      26.175  23.880  28.623  0.00  0.00    +0.000 C 
ATOM      8  C   UNL     1      25.849  23.887  27.184  0.00  0.00    +0.000 C 
ATOM      9  C   UNL     1      27.080  24.704  26.436  0.00  0.00    +0.000 C 
ATOM     10  C   UNL     1      28.057  23.399  26.520  0.00  0.00    +0.000 C 
ENDROOT
BRANCH   1  12
ATOM     11  C   UNL     1      30.357  21.713  32.440  0.00  0.00    +0.000 C 
ATOM     12  O   UNL     1      29.546  22.719  31.924  0.00  0.00    +0.000 OA
ENDBRANCH   1  12
BRANCH   9  13
ATOM     13  N   UNL     1      26.555  24.346  25.013  0.00  0.00    +0.000 NA
BRANCH  13  14
ATOM     14  C   UNL     1      27.420  24.595  23.931  0.00  0.00    +0.000 A 
ATOM     15  C   UNL     1      27.380  23.644  22.932  0.00  0.00    +0.000 A 
ATOM     16  C   UNL     1      28.169  23.736  21.793  0.00  0.00    +0.000 A 
ATOM     17  C   UNL     1      29.020  24.804  21.647  0.00  0.00    +0.000 A 
ATOM     18  O   UNL     1      29.790  24.861  20.501  0.00  0.00    +0.000 OA
ATOM     19  C   UNL     1      29.052  25.745  22.649  0.00  0.00    +0.000 A 
ATOM     20  C   UNL     1      28.262  25.649  23.784  0.00  0.00    +0.000 A 
ENDBRANCH  13  14
ENDBRANCH   9  13
TORSDOF 3
ENDMDL
MODEL 7
REMARK VINA RESULT:      -6.0     19.286     20.268
REMARK  Name = 
REMARK  3 active torsions:
REMARK  status: ('A' for Active; 'I' for Inactive)
REMARK    1  A    between atoms: O_2  and  C_3
REMARK    2  A    between atoms: C_11  and  N_12
REMARK    3  A    between atoms: N_12  and  C_13
REMARK                            x       y       z     vdW  Elec       q    Type
REMARK                         _______ _______ _______ _____ _____    ______ ____
ROOT
ATOM      1  C   UNL     1      26.611   6.082  17.123  0.00  0.00    +0.000 A 
ATOM      2  C   UNL     1      26.237   5.887  15.829  0.00  0.00    +0.000 A 
ATOM      3  C   UNL     1      25.378   4.856  15.525  0.00  0.00    +0.000 A 
ATOM      4  C   UNL     1      24.873   3.997  16.521  0.00  0.00    +0.000 A 
ATOM      5  C   UNL     1      25.247   4.192  17.817  0.00  0.00    +0.000 A 
ATOM      6  C   UNL     1      26.124   5.254  18.085  0.00  0.00    +0.000 A 
ATOM      7  C   UNL     1      24.743   3.321  18.885  0.00  0.00    +0.000 C 
ATOM      8  C   UNL     1      23.950   2.173  18.404  0.00  0.00    +0.000 C 
ATOM      9  C   UNL     1      22.838   2.793  17.344  0.00  0.00    +0.000 C 
ATOM     10  C   UNL     1      23.959   2.905  16.163  0.00  0.00    +0.000 C 
ENDROOT
BRANCH   1  12
ATOM     11  C   UNL     1      27.989   7.223  18.823  0.00  0.00    +0.000 C 
ATOM     12  O   UNL     1      27.479   7.102  17.533  0.00  0.00    +0.000 OA
ENDBRANCH   1  12
BRANCH   9  13
ATOM     13  N   UNL     1      22.362   1.378  16.899  0.00  0.00    +0.000 NA
BRANCH  13  14
ATOM     14  C   UNL     1      20.985   1.213  16.657  0.00  0.00    +0.000 A 
ATOM     15  C   UNL     1      20.683   0.423  15.567  0.00  0.00    +0.000 A 
ATOM     16  C   UNL     1      19.374   0.158  15.188  0.00  0.00    +0.000 A 
ATOM     17  C   UNL     1      18.339   0.695  15.915  0.00  0.00    +0.000 A 
ATOM     18  O   UNL     1      17.050   0.409  15.506  0.00  0.00    +0.000 OA
ATOM     19  C   UNL     1      18.652   1.480  16.998  0.00  0.00    +0.000 A 
ATOM     20  C   UNL     1      19.961   1.743  17.373  0.00  0.00    +0.000 A 
ENDBRANCH  13  14
ENDBRANCH   9  13
TORSDOF 3
ENDMDL
MODEL 8
REMARK VINA RESULT:      -6.0     18.559     19.958
REMARK  Name = 
REMARK  3 active torsions:
REMARK  status: ('A' for Active; 'I' for Inactive)
REMARK    1  A    between atoms: O_2  and  C_3
REMARK    2  A    between atoms: C_11  and  N_12
REMARK    3  A    between atoms: N_12  and  C_13
REMARK                            x       y       z     vdW  Elec       q    Type
REMARK                         _______ _______ _______ _____ _____    ______ ____
ROOT
ATOM      1  C   UNL     1      28.910   7.525  13.829  0.00  0.00    +0.000 A 
ATOM      2  C   UNL     1      28.330   6.403  13.324  0.00  0.00    +0.000 A 
ATOM      3  C   UNL     1      27.700   5.527  14.177  0.00  0.00    +0.000 A 
ATOM      4  C   UNL     1      27.638   5.764  15.565  0.00  0.00    +0.000 A 
ATOM      5  C   UNL     1      28.218   6.889  16.072  0.00  0.00    +0.000 A 
ATOM      6  C   UNL     1      28.850   7.755  15.168  0.00  0.00    +0.000 A 
ATOM      7  C   UNL     1      28.175   7.174  17.511  0.00  0.00    +0.000 C 
ATOM      8  C   UNL     1      27.598   6.087  18.324  0.00  0.00    +0.000 C 
ATOM      9  C   UNL     1      26.172   5.669  17.592  0.00  0.00    +0.000 C 
ATOM     10  C   UNL     1      26.959   4.809  16.450  0.00  0.00    +0.000 C 
ENDROOT
BRANCH   1  12
ATOM     11  C   UNL     1      30.312   8.170  11.904  0.00  0.00    +0.000 C 
ATOM     12  O   UNL     1      29.574   8.476  13.043  0.00  0.00    +0.000 OA
ENDBRANCH   1  12
BRANCH   9  13
ATOM     13  N   UNL     1      25.968   4.437  18.523  0.00  0.00    +0.000 NA
BRANCH  13  14
ATOM     14  C   UNL     1      24.774   3.707  18.365  0.00  0.00    +0.000 A 
ATOM     15  C   UNL     1      24.951   2.353  18.165  0.00  0.00    +0.000 A 
ATOM     16  C   UNL     1      23.880   1.487  17.991  0.00  0.00    +0.000 A 
ATOM     17  C   UNL     1      22.599   1.984  18.017  0.00  0.00    +0.000 A 
ATOM     18  O   UNL     1      21.560   1.092  17.839  0.00  0.00    +0.000 OA
ATOM     19  C   UNL     1      22.436   3.334  18.216  0.00  0.00    +0.000 A 
ATOM     20  C   UNL     1      23.509   4.195  18.390  0.00  0.00    +0.000 A 
ENDBRANCH  13  14
ENDBRANCH   9  13
TORSDOF 3
ENDMDL
MODEL 9
REMARK VINA RESULT:      -5.9      2.609      3.173
REMARK  Name = 
REMARK  3 active torsions:
REMARK  status: ('A' for Active; 'I' for Inactive)
REMARK    1  A    between atoms: O_2  and  C_3
REMARK    2  A    between atoms: C_11  and  N_12
REMARK    3  A    between atoms: N_12  and  C_13
REMARK                            x       y       z     vdW  Elec       q    Type
REMARK                         _______ _______ _______ _____ _____    ______ ____
ROOT
ATOM      1  C   UNL     1      34.068   0.112  36.875  0.00  0.00    +0.000 A 
ATOM      2  C   UNL     1      35.319  -0.392  36.691  0.00  0.00    +0.000 A 
ATOM      3  C   UNL     1      35.477  -1.558  35.979  0.00  0.00    +0.000 A 
ATOM      4  C   UNL     1      34.375  -2.245  35.433  0.00  0.00    +0.000 A 
ATOM      5  C   UNL     1      33.122  -1.741  35.617  0.00  0.00    +0.000 A 
ATOM      6  C   UNL     1      33.004  -0.550  36.348  0.00  0.00    +0.000 A 
ATOM      7  C   UNL     1      31.947  -2.425  35.063  0.00  0.00    +0.000 C 
ATOM      8  C   UNL     1      32.245  -3.734  34.450  0.00  0.00    +0.000 C 
ATOM      9  C   UNL     1      33.526  -3.486  33.431  0.00  0.00    +0.000 C 
ATOM     10  C   UNL     1      34.577  -3.489  34.679  0.00  0.00    +0.000 C 
ENDROOT
BRANCH   1  12
ATOM     11  C   UNL     1      34.214   2.557  37.176  0.00  0.00    +0.000 C 
ATOM     12  O   UNL     1      33.804   1.291  37.584  0.00  0.00    +0.000 OA
ENDBRANCH   1  12
BRANCH   9  13
ATOM     13  N   UNL     1      33.697  -5.009  33.151  0.00  0.00    +0.000 NA
BRANCH  13  14
ATOM     14  C   UNL     1      33.450  -5.449  31.837  0.00  0.00    +0.000 A 
ATOM     15  C   UNL     1      34.544  -5.397  30.998  0.00  0.00    +0.000 A 
ATOM     16  C   UNL     1      34.476  -5.795  29.670  0.00  0.00    +0.000 A 
ATOM     17  C   UNL     1      33.284  -6.256  29.164  0.00  0.00    +0.000 A 
ATOM     18  O   UNL     1      33.254  -6.641  27.838  0.00  0.00    +0.000 OA
ATOM     19  C   UNL     1      32.201  -6.303  30.009  0.00  0.00    +0.000 A 
ATOM     20  C   UNL     1      32.274  -5.905  31.335  0.00  0.00    +0.000 A 
ENDBRANCH  13  14
ENDBRANCH   9  13
TORSDOF 3
ENDMDL
MODEL 10
REMARK VINA RESULT:      -5.9      2.391      2.922
REMARK  Name = 
REMARK  3 active torsions:
REMARK  status: ('A' for Active; 'I' for Inactive)
REMARK    1  A    between atoms: O_2  and  C_3
REMARK    2  A    between atoms: C_11  and  N_12
REMARK    3  A    between atoms: N_12  and  C_13
REMARK                            x       y       z     vdW  Elec       q    Type
REMARK                         _______ _______ _______ _____ _____    ______ ____
ROOT
ATOM      1  C   UNL     1      33.762   1.847  33.306  0.00  0.00    +0.000 A 
ATOM      2  C   UNL     1      34.127   0.869  32.434  0.00  0.00    +0.000 A 
ATOM      3  C   UNL     1      34.170  -0.437  32.865  0.00  0.00    +0.000 A 
ATOM      4  C   UNL     1      33.844  -0.787  34.191  0.00  0.00    +0.000 A 
ATOM      5  C   UNL     1      33.478   0.193  35.065  0.00  0.00    +0.000 A 
ATOM      6  C   UNL     1      33.447   1.510  34.585  0.00  0.00    +0.000 A 
ATOM      7  C   UNL     1      33.129  -0.130  36.454  0.00  0.00    +0.000 C 
ATOM      8  C   UNL     1      33.356  -1.542  36.820  0.00  0.00    +0.000 C 
ATOM      9  C   UNL     1      32.645  -2.448  35.630  0.00  0.00    +0.000 C 
ATOM     10  C   UNL     1      33.901  -2.190  34.621  0.00  0.00    +0.000 C 
ENDROOT
BRANCH   1  12
ATOM     11  C   UNL     1      33.260   4.207  33.828  0.00  0.00    +0.000 C 
ATOM     12  O   UNL     1      33.688   3.204  32.963  0.00  0.00    +0.000 OA
ENDBRANCH   1  12
BRANCH   9  13
ATOM     13  N   UNL     1      33.234  -3.779  36.187  0.00  0.00    +0.000 NA
BRANCH  13  14
ATOM     14  C   UNL     1      32.321  -4.813  36.470  0.00  0.00    +0.000 A 
ATOM     15  C   UNL     1      31.612  -5.268  35.378  0.00  0.00    +0.000 A 
ATOM     16  C   UNL     1      30.671  -6.284  35.480  0.00  0.00    +0.000 A 
ATOM     17  C   UNL     1      30.432  -6.861  36.704  0.00  0.00    +0.000 A 
ATOM     18  O   UNL     1      29.489  -7.868  36.767  0.00  0.00    +0.000 OA
ATOM     19  C   UNL     1      31.145  -6.399  37.784  0.00  0.00    +0.000 A 
ATOM     20  C   UNL     1      32.083  -5.384  37.677  0.00  0.00    +0.000 A 
ENDBRANCH  13  14
ENDBRANCH   9  13
TORSDOF 3
ENDMDL
