MODEL 1
REMARK VINA RESULT:      -5.6      0.000      0.000
REMARK  Name = 
REMARK  4 active torsions:
REMARK  status: ('A' for Active; 'I' for Inactive)
REMARK    1  A    between atoms: C_3  and  C_4
REMARK    2  A    between atoms: C_4  and  O_6
REMARK    3  A    between atoms: O_6  and  C_7
REMARK    4  A    between atoms: C_10  and  C_11
REMARK                            x       y       z     vdW  Elec       q    Type
REMARK                         _______ _______ _______ _____ _____    ______ ____
ROOT
ATOM      1  C   UNL     1      19.759  13.230  38.463  0.00  0.00    +0.000 C 
ATOM      2  C   UNL     1      19.017  11.975  37.966  0.00  0.00    +0.000 C 
ATOM      3  C   UNL     1      19.452  10.810  38.292  0.00  0.00    +0.000 C 
ATOM      4  C   UNL     1      18.741   9.518  37.883  0.00  0.00    +0.000 C 
ATOM      5  N   UNL     1      17.676   9.899  36.918  0.00  0.00    +0.000 NA
ATOM      6  C   UNL     1      17.235  11.160  36.599  0.00  0.00    +0.000 C 
ATOM      7  S   UNL     1      15.951  11.415  35.629  0.00  0.00    +0.000 S 
ATOM      8  N   UNL     1      17.914  12.287  37.129  0.00  0.00    +0.000 NA
ENDROOT
BRANCH   4   9
ATOM      9  C   UNL     1      17.894   9.206  39.162  0.00  0.00    +0.000 A 
ATOM     10  C   UNL     1      16.770   9.924  39.402  0.00  0.00    +0.000 A 
ATOM     11  C   UNL     1      15.973   9.691  40.525  0.00  0.00    +0.000 A 
ATOM     12  C   UNL     1      16.346   8.717  41.387  0.00  0.00    +0.000 A 
ATOM     13  C   UNL     1      17.463   7.980  41.176  0.00  0.00    +0.000 A 
ATOM     14  C   UNL     1      18.237   8.239  40.045  0.00  0.00    +0.000 A 
ATOM     15  O   UNL     1      19.372   7.483  39.841  0.00  0.00    +0.000 OA
ENDBRANCH   4   9
BRANCH   3  16
ATOM     16  C   UNL     1      20.660  10.695  39.134  0.00  0.00    +0.000 C 
ATOM     17  O   UNL     1      20.533  10.883  40.354  0.00  0.00    +0.000 OA
BRANCH  16  18
ATOM     18  O   UNL     1      21.910  10.392  38.652  0.00  0.00    +0.000 OA
BRANCH  18  19
ATOM     19  C   UNL     1      22.398  10.809  37.390  0.00  0.00    +0.000 C 
ATOM     20  C   UNL     1      23.701  11.544  37.572  0.00  0.00    +0.000 C 
ATOM     21  C   UNL     1      22.517   9.665  36.412  0.00  0.00    +0.000 C 
ENDBRANCH  18  19
ENDBRANCH  16  18
ENDBRANCH   3  16
TORSDOF 4
ENDMDL
MODEL 2
REMARK VINA RESULT:      -5.5     20.274     22.783
REMARK  Name = 
REMARK  4 active torsions:
REMARK  status: ('A' for Active; 'I' for Inactive)
REMARK    1  A    between atoms: C_3  and  C_4
REMARK    2  A    between atoms: C_4  and  O_6
REMARK    3  A    between atoms: O_6  and  C_7
REMARK    4  A    between atoms: C_10  and  C_11
REMARK                            x       y       z     vdW  Elec       q    Type
REMARK                         _______ _______ _______ _____ _____    ______ ____
ROOT
ATOM      1  C   UNL     1      29.482  24.158  27.801  0.00  0.00    +0.000 C 
ATOM      2  C   UNL     1      30.117  23.896  26.421  0.00  0.00    +0.000 C 
ATOM      3  C   UNL     1      29.419  23.335  25.500  0.00  0.00    +0.000 C 
ATOM      4  C   UNL     1      29.959  23.091  24.088  0.00  0.00    +0.000 C 
ATOM      5  N   UNL     1      31.411  23.411  24.121  0.00  0.00    +0.000 NA
ATOM      6  C   UNL     1      32.121  24.018  25.128  0.00  0.00    +0.000 C 
ATOM      7  S   UNL     1      33.686  24.439  24.959  0.00  0.00    +0.000 S 
ATOM      8  N   UNL     1      31.478  24.292  26.361  0.00  0.00    +0.000 NA
ENDROOT
BRANCH   4   9
ATOM      9  C   UNL     1      29.394  24.330  23.315  0.00  0.00    +0.000 A 
ATOM     10  C   UNL     1      29.858  25.566  23.619  0.00  0.00    +0.000 A 
ATOM     11  C   UNL     1      29.392  26.709  22.963  0.00  0.00    +0.000 A 
ATOM     12  C   UNL     1      28.453  26.560  22.000  0.00  0.00    +0.000 A 
ATOM     13  C   UNL     1      27.970  25.338  21.671  0.00  0.00    +0.000 A 
ATOM     14  C   UNL     1      28.455  24.217  22.346  0.00  0.00    +0.000 A 
ATOM     15  O   UNL     1      27.955  22.979  22.004  0.00  0.00    +0.000 OA
ENDBRANCH   4   9
BRANCH   3  16
ATOM     16  C   UNL     1      28.022  22.945  25.780  0.00  0.00    +0.000 C 
ATOM     17  O   UNL     1      27.834  21.928  26.465  0.00  0.00    +0.000 OA
BRANCH  16  18
ATOM     18  O   UNL     1      26.924  23.636  25.331  0.00  0.00    +0.000 OA
BRANCH  18  19
ATOM     19  C   UNL     1      26.454  24.841  25.906  0.00  0.00    +0.000 C 
ATOM     20  C   UNL     1      25.984  25.769  24.816  0.00  0.00    +0.000 C 
ATOM     21  C   UNL     1      25.393  24.604  26.954  0.00  0.00    +0.000 C 
ENDBRANCH  18  19
ENDBRANCH  16  18
ENDBRANCH   3  16
TORSDOF 4
ENDMDL
MODEL 3
REMARK VINA RESULT:      -5.4     19.309     21.946
REMARK  Name = 
REMARK  4 active torsions:
REMARK  status: ('A' for Active; 'I' for Inactive)
REMARK    1  A    between atoms: C_3  and  C_4
REMARK    2  A    between atoms: C_4  and  O_6
REMARK    3  A    between atoms: O_6  and  C_7
REMARK    4  A    between atoms: C_10  and  C_11
REMARK                            x       y       z     vdW  Elec       q    Type
REMARK                         _______ _______ _______ _____ _____    ______ ____
ROOT
ATOM      1  C   UNL     1      25.027  25.164  25.479  0.00  0.00    +0.000 C 
ATOM      2  C   UNL     1      26.136  24.187  25.913  0.00  0.00    +0.000 C 
ATOM      3  C   UNL     1      26.867  23.621  25.020  0.00  0.00    +0.000 C 
ATOM      4  C   UNL     1      28.023  22.681  25.372  0.00  0.00    +0.000 C 
ATOM      5  N   UNL     1      27.941  22.426  26.834  0.00  0.00    +0.000 NA
ATOM      6  C   UNL     1      27.146  23.058  27.760  0.00  0.00    +0.000 C 
ATOM      7  S   UNL     1      27.274  22.772  29.359  0.00  0.00    +0.000 S 
ATOM      8  N   UNL     1      26.178  23.995  27.318  0.00  0.00    +0.000 NA
ENDROOT
BRANCH   4   9
ATOM      9  C   UNL     1      29.251  23.650  25.302  0.00  0.00    +0.000 A 
ATOM     10  C   UNL     1      29.095  24.942  25.680  0.00  0.00    +0.000 A 
ATOM     11  C   UNL     1      30.153  25.854  25.640  0.00  0.00    +0.000 A 
ATOM     12  C   UNL     1      31.361  25.419  25.211  0.00  0.00    +0.000 A 
ATOM     13  C   UNL     1      31.550  24.133  24.828  0.00  0.00    +0.000 A 
ATOM     14  C   UNL     1      30.472  23.249  24.878  0.00  0.00    +0.000 A 
ATOM     15  O   UNL     1      30.676  21.943  24.485  0.00  0.00    +0.000 OA
ENDBRANCH   4   9
BRANCH   3  16
ATOM     16  C   UNL     1      26.628  23.913  23.592  0.00  0.00    +0.000 C 
ATOM     17  O   UNL     1      26.031  23.058  22.920  0.00  0.00    +0.000 OA
BRANCH  16  18
ATOM     18  O   UNL     1      27.024  25.069  22.965  0.00  0.00    +0.000 OA
BRANCH  18  19
ATOM     19  C   UNL     1      27.648  25.111  21.695  0.00  0.00    +0.000 C 
ATOM     20  C   UNL     1      27.595  26.516  21.154  0.00  0.00    +0.000 C 
ATOM     21  C   UNL     1      29.054  24.563  21.726  0.00  0.00    +0.000 C 
ENDBRANCH  18  19
ENDBRANCH  16  18
ENDBRANCH   3  16
TORSDOF 4
ENDMDL
MODEL 4
REMARK VINA RESULT:      -5.3     20.171     21.930
REMARK  Name = 
REMARK  4 active torsions:
REMARK  status: ('A' for Active; 'I' for Inactive)
REMARK    1  A    between atoms: C_3  and  C_4
REMARK    2  A    between atoms: C_4  and  O_6
REMARK    3  A    between atoms: O_6  and  C_7
REMARK    4  A    between atoms: C_10  and  C_11
REMARK                            x       y       z     vdW  Elec       q    Type
REMARK                         _______ _______ _______ _____ _____    ______ ____
ROOT
ATOM      1  C   UNL     1      27.438  25.995  27.867  0.00  0.00    +0.000 C 
ATOM      2  C   UNL     1      27.833  24.680  27.168  0.00  0.00    +0.000 C 
ATOM      3  C   UNL     1      27.035  24.154  26.310  0.00  0.00    +0.000 C 
ATOM      4  C   UNL     1      27.378  22.880  25.535  0.00  0.00    +0.000 C 
ATOM      5  N   UNL     1      28.624  22.333  26.134  0.00  0.00    +0.000 NA
ATOM      6  C   UNL     1      29.456  22.931  27.049  0.00  0.00    +0.000 C 
ATOM      7  S   UNL     1      30.872  22.267  27.504  0.00  0.00    +0.000 S 
ATOM      8  N   UNL     1      29.078  24.171  27.623  0.00  0.00    +0.000 NA
ENDROOT
BRANCH   4   9
ATOM      9  C   UNL     1      27.922  23.466  24.188  0.00  0.00    +0.000 A 
ATOM     10  C   UNL     1      29.166  24.004  24.157  0.00  0.00    +0.000 A 
ATOM     11  C   UNL     1      29.706  24.542  22.986  0.00  0.00    +0.000 A 
ATOM     12  C   UNL     1      28.955  24.516  21.861  0.00  0.00    +0.000 A 
ATOM     13  C   UNL     1      27.708  23.984  21.858  0.00  0.00    +0.000 A 
ATOM     14  C   UNL     1      27.199  23.457  23.044  0.00  0.00    +0.000 A 
ATOM     15  O   UNL     1      25.929  22.919  23.030  0.00  0.00    +0.000 OA
ENDBRANCH   4   9
BRANCH   3  16
ATOM     16  C   UNL     1      25.748  24.815  26.012  0.00  0.00    +0.000 C 
ATOM     17  O   UNL     1      24.805  24.622  26.794  0.00  0.00    +0.000 OA
BRANCH  16  18
ATOM     18  O   UNL     1      25.533  25.629  24.927  0.00  0.00    +0.000 OA
BRANCH  18  19
ATOM     19  C   UNL     1      25.936  26.985  24.858  0.00  0.00    +0.000 C 
ATOM     20  C   UNL     1      27.013  27.138  23.816  0.00  0.00    +0.000 C 
ATOM     21  C   UNL     1      24.774  27.919  24.622  0.00  0.00    +0.000 C 
ENDBRANCH  18  19
ENDBRANCH  16  18
ENDBRANCH   3  16
TORSDOF 4
ENDMDL
MODEL 5
REMARK VINA RESULT:      -5.3     21.316     22.844
REMARK  Name = 
REMARK  4 active torsions:
REMARK  status: ('A' for Active; 'I' for Inactive)
REMARK    1  A    between atoms: C_3  and  C_4
REMARK    2  A    between atoms: C_4  and  O_6
REMARK    3  A    between atoms: O_6  and  C_7
REMARK    4  A    between atoms: C_10  and  C_11
REMARK                            x       y       z     vdW  Elec       q    Type
REMARK                         _______ _______ _______ _____ _____    ______ ____
ROOT
ATOM      1  C   UNL     1      17.526 -11.817  26.754  0.00  0.00    +0.000 C 
ATOM      2  C   UNL     1      17.028 -10.411  26.367  0.00  0.00    +0.000 C 
ATOM      3  C   UNL     1      17.180  -9.436  27.190  0.00  0.00    +0.000 C 
ATOM      4  C   UNL     1      16.761  -8.002  26.859  0.00  0.00    +0.000 C 
ATOM      5  N   UNL     1      15.998  -8.059  25.584  0.00  0.00    +0.000 NA
ATOM      6  C   UNL     1      15.862  -9.124  24.727  0.00  0.00    +0.000 C 
ATOM      7  S   UNL     1      15.114  -8.992  23.285  0.00  0.00    +0.000 S 
ATOM      8  N   UNL     1      16.390 -10.386  25.100  0.00  0.00    +0.000 NA
ENDROOT
BRANCH   4   9
ATOM      9  C   UNL     1      18.114  -7.381  26.374  0.00  0.00    +0.000 A 
ATOM     10  C   UNL     1      19.033  -8.181  25.780  0.00  0.00    +0.000 A 
ATOM     11  C   UNL     1      20.258  -7.686  25.326  0.00  0.00    +0.000 A 
ATOM     12  C   UNL     1      20.518  -6.368  25.491  0.00  0.00    +0.000 A 
ATOM     13  C   UNL     1      19.621  -5.541  26.079  0.00  0.00    +0.000 A 
ATOM     14  C   UNL     1      18.408  -6.068  26.523  0.00  0.00    +0.000 A 
ATOM     15  O   UNL     1      17.503  -5.217  27.121  0.00  0.00    +0.000 OA
ENDBRANCH   4   9
BRANCH   3  16
ATOM     16  C   UNL     1      17.826  -9.681  28.496  0.00  0.00    +0.000 C 
ATOM     17  O   UNL     1      17.097  -9.991  29.451  0.00  0.00    +0.000 OA
BRANCH  16  18
ATOM     18  O   UNL     1      19.178  -9.587  28.716  0.00  0.00    +0.000 OA
BRANCH  18  19
ATOM     19  C   UNL     1      20.053 -10.699  28.773  0.00  0.00    +0.000 C 
ATOM     20  C   UNL     1      21.400 -10.306  28.223  0.00  0.00    +0.000 C 
ATOM     21  C   UNL     1      20.150 -11.286  30.159  0.00  0.00    +0.000 C 
ENDBRANCH  18  19
ENDBRANCH  16  18
ENDBRANCH   3  16
TORSDOF 4
ENDMDL
MODEL 6
REMARK VINA RESULT:      -5.3     21.386     23.051
REMARK  Name = 
REMARK  4 active torsions:
REMARK  status: ('A' for Active; 'I' for Inactive)
REMARK    1  A    between atoms: C_3  and  C_4
REMARK    2  A    between atoms: C_4  and  O_6
REMARK    3  A    between atoms: O_6  and  C_7
REMARK    4  A    between atoms: C_10  and  C_11
REMARK                            x       y       z     vdW  Elec       q    Type
REMARK                         _______ _______ _______ _____ _____    ______ ____
ROOT
ATOM      1  C   UNL     1      20.317 -11.264  27.612  0.00  0.00    +0.000 C 
ATOM      2  C   UNL     1      19.508 -10.490  26.554  0.00  0.00    +0.000 C 
ATOM      3  C   UNL     1      18.525  -9.751  26.925  0.00  0.00    +0.000 C 
ATOM      4  C   UNL     1      17.708  -8.909  25.942  0.00  0.00    +0.000 C 
ATOM      5  N   UNL     1      18.137  -9.305  24.574  0.00  0.00    +0.000 NA
ATOM      6  C   UNL     1      19.201 -10.098  24.218  0.00  0.00    +0.000 C 
ATOM      7  S   UNL     1      19.637 -10.324  22.665  0.00  0.00    +0.000 S 
ATOM      8  N   UNL     1      19.953 -10.745  25.231  0.00  0.00    +0.000 NA
ENDROOT
BRANCH   4   9
ATOM      9  C   UNL     1      18.394  -7.508  26.079  0.00  0.00    +0.000 A 
ATOM     10  C   UNL     1      19.636  -7.327  25.566  0.00  0.00    +0.000 A 
ATOM     11  C   UNL     1      20.298  -6.100  25.657  0.00  0.00    +0.000 A 
ATOM     12  C   UNL     1      19.670  -5.075  26.277  0.00  0.00    +0.000 A 
ATOM     13  C   UNL     1      18.428  -5.222  26.799  0.00  0.00    +0.000 A 
ATOM     14  C   UNL     1      17.795  -6.460  26.692  0.00  0.00    +0.000 A 
ATOM     15  O   UNL     1      16.532  -6.599  27.228  0.00  0.00    +0.000 OA
ENDBRANCH   4   9
BRANCH   3  16
ATOM     16  C   UNL     1      18.183  -9.660  28.359  0.00  0.00    +0.000 C 
ATOM     17  O   UNL     1      18.846  -8.882  29.062  0.00  0.00    +0.000 OA
BRANCH  16  18
ATOM     18  O   UNL     1      17.179 -10.379  28.959  0.00  0.00    +0.000 OA
BRANCH  18  19
ATOM     19  C   UNL     1      17.226 -10.849  30.294  0.00  0.00    +0.000 C 
ATOM     20  C   UNL     1      15.825 -11.096  30.789  0.00  0.00    +0.000 C 
ATOM     21  C   UNL     1      18.110 -12.063  30.447  0.00  0.00    +0.000 C 
ENDBRANCH  18  19
ENDBRANCH  16  18
ENDBRANCH   3  16
TORSDOF 4
ENDMDL
MODEL 7
REMARK VINA RESULT:      -5.2     17.550     19.520
REMARK  Name = 
REMARK  4 active torsions:
REMARK  status: ('A' for Active; 'I' for Inactive)
REMARK    1  A    between atoms: C_3  and  C_4
REMARK    2  A    between atoms: C_4  and  O_6
REMARK    3  A    between atoms: O_6  and  C_7
REMARK    4  A    between atoms: C_10  and  C_11
REMARK                            x       y       z     vdW  Elec       q    Type
REMARK                         _______ _______ _______ _____ _____    ______ ____
ROOT
ATOM      1  C   UNL     1      27.251  25.534  25.157  0.00  0.00    +0.000 C 
ATOM      2  C   UNL     1      26.658  25.328  26.565  0.00  0.00    +0.000 C 
ATOM      3  C   UNL     1      26.478  24.136  27.008  0.00  0.00    +0.000 C 
ATOM      4  C   UNL     1      25.946  23.849  28.414  0.00  0.00    +0.000 C 
ATOM      5  N   UNL     1      25.511  25.151  28.985  0.00  0.00    +0.000 NA
ATOM      6  C   UNL     1      25.729  26.410  28.480  0.00  0.00    +0.000 C 
ATOM      7  S   UNL     1      25.319  27.759  29.298  0.00  0.00    +0.000 S 
ATOM      8  N   UNL     1      26.331  26.552  27.205  0.00  0.00    +0.000 NA
ENDROOT
BRANCH   4   9
ATOM      9  C   UNL     1      27.272  23.597  29.208  0.00  0.00    +0.000 A 
ATOM     10  C   UNL     1      28.276  24.503  29.120  0.00  0.00    +0.000 A 
ATOM     11  C   UNL     1      29.482  24.334  29.805  0.00  0.00    +0.000 A 
ATOM     12  C   UNL     1      29.634  23.232  30.575  0.00  0.00    +0.000 A 
ATOM     13  C   UNL     1      28.649  22.308  30.687  0.00  0.00    +0.000 A 
ATOM     14  C   UNL     1      27.458  22.507  29.988  0.00  0.00    +0.000 A 
ATOM     15  O   UNL     1      26.462  21.560  30.108  0.00  0.00    +0.000 OA
ENDBRANCH   4   9
BRANCH   3  16
ATOM     16  C   UNL     1      26.836  22.981  26.158  0.00  0.00    +0.000 C 
ATOM     17  O   UNL     1      26.062  22.683  25.235  0.00  0.00    +0.000 OA
BRANCH  16  18
ATOM     18  O   UNL     1      27.967  22.223  26.326  0.00  0.00    +0.000 OA
BRANCH  18  19
ATOM     19  C   UNL     1      29.285  22.711  26.154  0.00  0.00    +0.000 C 
ATOM     20  C   UNL     1      30.225  21.951  27.054  0.00  0.00    +0.000 C 
ATOM     21  C   UNL     1      29.727  22.683  24.711  0.00  0.00    +0.000 C 
ENDBRANCH  18  19
ENDBRANCH  16  18
ENDBRANCH   3  16
TORSDOF 4
ENDMDL
MODEL 8
REMARK VINA RESULT:      -5.2     19.646     21.379
REMARK  Name = 
REMARK  4 active torsions:
REMARK  status: ('A' for Active; 'I' for Inactive)
REMARK    1  A    between atoms: C_3  and  C_4
REMARK    2  A    between atoms: C_4  and  O_6
REMARK    3  A    between atoms: O_6  and  C_7
REMARK    4  A    between atoms: C_10  and  C_11
REMARK                            x       y       z     vdW  Elec       q    Type
REMARK                         _______ _______ _______ _____ _____    ______ ____
ROOT
ATOM      1  C   UNL     1      27.590  26.240  27.809  0.00  0.00    +0.000 C 
ATOM      2  C   UNL     1      27.751  24.850  27.166  0.00  0.00    +0.000 C 
ATOM      3  C   UNL     1      26.803  24.373  26.441  0.00  0.00    +0.000 C 
ATOM      4  C   UNL     1      26.908  23.025  25.725  0.00  0.00    +0.000 C 
ATOM      5  N   UNL     1      28.147  22.370  26.220  0.00  0.00    +0.000 NA
ATOM      6  C   UNL     1      29.143  22.917  26.993  0.00  0.00    +0.000 C 
ATOM      7  S   UNL     1      30.520  22.116  27.334  0.00  0.00    +0.000 S 
ATOM      8  N   UNL     1      28.976  24.224  27.515  0.00  0.00    +0.000 NA
ENDROOT
BRANCH   4   9
ATOM      9  C   UNL     1      27.351  23.464  24.289  0.00  0.00    +0.000 A 
ATOM     10  C   UNL     1      28.639  23.830  24.077  0.00  0.00    +0.000 A 
ATOM     11  C   UNL     1      29.094  24.230  22.818  0.00  0.00    +0.000 A 
ATOM     12  C   UNL     1      28.212  24.247  21.792  0.00  0.00    +0.000 A 
ATOM     13  C   UNL     1      26.918  23.887  21.969  0.00  0.00    +0.000 A 
ATOM     14  C   UNL     1      26.496  23.493  23.239  0.00  0.00    +0.000 A 
ATOM     15  O   UNL     1      25.177  23.129  23.408  0.00  0.00    +0.000 OA
ENDBRANCH   4   9
BRANCH   3  16
ATOM     16  C   UNL     1      25.572  25.165  26.241  0.00  0.00    +0.000 C 
ATOM     17  O   UNL     1      25.541  25.951  25.282  0.00  0.00    +0.000 OA
BRANCH  16  18
ATOM     18  O   UNL     1      24.464  25.084  27.047  0.00  0.00    +0.000 OA
BRANCH  18  19
ATOM     19  C   UNL     1      23.796  26.205  27.597  0.00  0.00    +0.000 C 
ATOM     20  C   UNL     1      22.333  26.143  27.244  0.00  0.00    +0.000 C 
ATOM     21  C   UNL     1      24.021  26.337  29.084  0.00  0.00    +0.000 C 
ENDBRANCH  18  19
ENDBRANCH  16  18
ENDBRANCH   3  16
TORSDOF 4
ENDMDL
MODEL 9
REMARK VINA RESULT:      -5.1     21.942     23.467
REMARK  Name = 
REMARK  4 active torsions:
REMARK  status: ('A' for Active; 'I' for Inactive)
REMARK    1  A    between atoms: C_3  and  C_4
REMARK    2  A    between atoms: C_4  and  O_6
REMARK    3  A    between atoms: O_6  and  C_7
REMARK    4  A    between atoms: C_10  and  C_11
REMARK                            x       y       z     vdW  Elec       q    Type
REMARK                         _______ _______ _______ _____ _____    ______ ____
ROOT
ATOM      1  C   UNL     1      15.668 -10.474  27.070  0.00  0.00    +0.000 C 
ATOM      2  C   UNL     1      17.101 -10.069  27.467  0.00  0.00    +0.000 C 
ATOM      3  C   UNL     1      17.974  -9.849  26.550  0.00  0.00    +0.000 C 
ATOM      4  C   UNL     1      19.401  -9.391  26.861  0.00  0.00    +0.000 C 
ATOM      5  N   UNL     1      19.573  -9.488  28.335  0.00  0.00    +0.000 NA
ATOM      6  C   UNL     1      18.609  -9.722  29.286  0.00  0.00    +0.000 C 
ATOM      7  S   UNL     1      18.926  -9.653  30.883  0.00  0.00    +0.000 S 
ATOM      8  N   UNL     1      17.289 -10.034  28.873  0.00  0.00    +0.000 NA
ENDROOT
BRANCH   4   9
ATOM      9  C   UNL     1      19.283  -7.841  26.672  0.00  0.00    +0.000 A 
ATOM     10  C   UNL     1      18.304  -7.168  27.324  0.00  0.00    +0.000 A 
ATOM     11  C   UNL     1      18.149  -5.785  27.195  0.00  0.00    +0.000 A 
ATOM     12  C   UNL     1      19.010  -5.114  26.396  0.00  0.00    +0.000 A 
ATOM     13  C   UNL     1      20.001  -5.756  25.732  0.00  0.00    +0.000 A 
ATOM     14  C   UNL     1      20.127  -7.137  25.881  0.00  0.00    +0.000 A 
ATOM     15  O   UNL     1      21.139  -7.781  25.200  0.00  0.00    +0.000 OA
ENDBRANCH   4   9
BRANCH   3  16
ATOM     16  C   UNL     1      17.591  -9.993  25.131  0.00  0.00    +0.000 C 
ATOM     17  O   UNL     1      17.179  -8.983  24.539  0.00  0.00    +0.000 OA
BRANCH  16  18
ATOM     18  O   UNL     1      17.663 -11.170  24.429  0.00  0.00    +0.000 OA
BRANCH  18  19
ATOM     19  C   UNL     1      18.430 -12.291  24.832  0.00  0.00    +0.000 C 
ATOM     20  C   UNL     1      17.508 -13.396  25.278  0.00  0.00    +0.000 C 
ATOM     21  C   UNL     1      19.393 -12.745  23.763  0.00  0.00    +0.000 C 
ENDBRANCH  18  19
ENDBRANCH  16  18
ENDBRANCH   3  16
TORSDOF 4
ENDMDL
MODEL 10
REMARK VINA RESULT:      -5.1     18.838     21.321
REMARK  Name = 
REMARK  4 active torsions:
REMARK  status: ('A' for Active; 'I' for Inactive)
REMARK    1  A    between atoms: C_3  and  C_4
REMARK    2  A    between atoms: C_4  and  O_6
REMARK    3  A    between atoms: O_6  and  C_7
REMARK    4  A    between atoms: C_10  and  C_11
REMARK                            x       y       z     vdW  Elec       q    Type
REMARK                         _______ _______ _______ _____ _____    ______ ____
ROOT
ATOM      1  C   UNL     1      26.053  23.653  28.604  0.00  0.00    +0.000 C 
ATOM      2  C   UNL     1      25.825  24.711  27.508  0.00  0.00    +0.000 C 
ATOM      3  C   UNL     1      26.823  25.130  26.815  0.00  0.00    +0.000 C 
ATOM      4  C   UNL     1      26.671  26.139  25.674  0.00  0.00    +0.000 C 
ATOM      5  N   UNL     1      25.272  26.638  25.723  0.00  0.00    +0.000 NA
ATOM      6  C   UNL     1      24.228  26.158  26.477  0.00  0.00    +0.000 C 
ATOM      7  S   UNL     1      22.706  26.716  26.313  0.00  0.00    +0.000 S 
ATOM      8  N   UNL     1      24.475  25.141  27.434  0.00  0.00    +0.000 NA
ENDROOT
BRANCH   4   9
ATOM      9  C   UNL     1      26.613  25.196  24.425  0.00  0.00    +0.000 A 
ATOM     10  C   UNL     1      25.757  24.145  24.430  0.00  0.00    +0.000 A 
ATOM     11  C   UNL     1      25.659  23.270  23.345  0.00  0.00    +0.000 A 
ATOM     12  C   UNL     1      26.447  23.492  22.267  0.00  0.00    +0.000 A 
ATOM     13  C   UNL     1      27.312  24.534  22.229  0.00  0.00    +0.000 A 
ATOM     14  C   UNL     1      27.385  25.388  23.330  0.00  0.00    +0.000 A 
ATOM     15  O   UNL     1      28.269  26.445  23.281  0.00  0.00    +0.000 OA
ENDBRANCH   4   9
BRANCH   3  16
ATOM     16  C   UNL     1      28.173  24.594  27.085  0.00  0.00    +0.000 C 
ATOM     17  O   UNL     1      28.926  25.265  27.807  0.00  0.00    +0.000 OA
BRANCH  16  18
ATOM     18  O   UNL     1      28.642  23.403  26.589  0.00  0.00    +0.000 OA
BRANCH  18  19
ATOM     19  C   UNL     1      29.890  23.249  25.938  0.00  0.00    +0.000 C 
ATOM     20  C   UNL     1      30.791  22.382  26.778  0.00  0.00    +0.000 C 
ATOM     21  C   UNL     1      29.745  22.727  24.529  0.00  0.00    +0.000 C 
ENDBRANCH  18  19
ENDBRANCH  16  18
ENDBRANCH   3  16
TORSDOF 4
ENDMDL
