MODEL 1
REMARK VINA RESULT:      -5.9      0.000      0.000
REMARK  Name = 
REMARK  3 active torsions:
REMARK  status: ('A' for Active; 'I' for Inactive)
REMARK    1  A    between atoms: C_4  and  C_5
REMARK    2  A    between atoms: C_11  and  N_12
REMARK    3  A    between atoms: C_13  and  C_15
REMARK                            x       y       z     vdW  Elec       q    Type
REMARK                         _______ _______ _______ _____ _____    ______ ____
ROOT
ATOM      1  C   UNL     1      28.349  22.385  27.752  0.00  0.00    +0.000 C 
ATOM      2  C   UNL     1      28.716  22.653  26.326  0.00  0.00    +0.000 A 
ATOM      3  C   UNL     1      27.734  22.883  25.400  0.00  0.00    +0.000 A 
ATOM      4  C   UNL     1      28.043  23.130  24.083  0.00  0.00    +0.000 A 
ATOM      5  C   UNL     1      29.361  23.139  23.732  0.00  0.00    +0.000 A 
ATOM      6  C   UNL     1      30.372  22.903  24.686  0.00  0.00    +0.000 A 
ATOM      7  O   UNL     1      31.688  22.926  24.264  0.00  0.00    +0.000 OA
ATOM      8  C   UNL     1      30.088  22.654  25.999  0.00  0.00    +0.000 A 
ENDROOT
BRANCH   4   9
ATOM      9  C   UNL     1      27.000  23.383  23.058  0.00  0.00    +0.000 C 
ATOM     10  C   UNL     1      27.274  24.658  22.309  0.00  0.00    +0.000 C 
ATOM     11  C   UNL     1      25.635  23.383  23.689  0.00  0.00    +0.000 C 
ENDBRANCH   4   9
BRANCH   8  12
ATOM     12  N   UNL     1      30.947  22.403  27.061  0.00  0.00    +0.000 NA
ATOM     13  C   UNL     1      31.830  23.165  27.775  0.00  0.00    +0.000 C 
ATOM     14  O   UNL     1      31.964  24.365  27.482  0.00  0.00    +0.000 OA
BRANCH  13  15
ATOM     15  C   UNL     1      32.648  22.636  28.892  0.00  0.00    +0.000 A 
ATOM     16  C   UNL     1      32.419  21.521  29.628  0.00  0.00    +0.000 A 
ATOM     17  C   UNL     1      33.284  21.222  30.594  0.00  0.00    +0.000 A 
ATOM     18  C   UNL     1      34.346  22.060  30.779  0.00  0.00    +0.000 A 
ATOM     19  S   UNL     1      34.075  23.250  29.564  0.00  0.00    +0.000 S 
ENDBRANCH  13  15
ENDBRANCH   8  12
TORSDOF 3
ENDMDL
MODEL 2
REMARK VINA RESULT:      -5.9     15.907     18.516
REMARK  Name = 
REMARK  3 active torsions:
REMARK  status: ('A' for Active; 'I' for Inactive)
REMARK    1  A    between atoms: C_4  and  C_5
REMARK    2  A    between atoms: C_11  and  N_12
REMARK    3  A    between atoms: C_13  and  C_15
REMARK                            x       y       z     vdW  Elec       q    Type
REMARK                         _______ _______ _______ _____ _____    ______ ____
ROOT
ATOM      1  C   UNL     1      11.155  24.308  22.747  0.00  0.00    +0.000 C 
ATOM      2  C   UNL     1      11.477  23.118  21.899  0.00  0.00    +0.000 A 
ATOM      3  C   UNL     1      10.634  22.039  21.889  0.00  0.00    +0.000 A 
ATOM      4  C   UNL     1      10.906  20.932  21.119  0.00  0.00    +0.000 A 
ATOM      5  C   UNL     1      12.044  20.947  20.367  0.00  0.00    +0.000 A 
ATOM      6  C   UNL     1      12.912  22.058  20.379  0.00  0.00    +0.000 A 
ATOM      7  O   UNL     1      14.049  22.009  19.594  0.00  0.00    +0.000 OA
ATOM      8  C   UNL     1      12.662  23.168  21.135  0.00  0.00    +0.000 A 
ENDROOT
BRANCH   4   9
ATOM      9  C   UNL     1      10.011  19.749  21.087  0.00  0.00    +0.000 C 
ATOM     10  C   UNL     1      10.000  19.114  19.725  0.00  0.00    +0.000 C 
ATOM     11  C   UNL     1       8.628  20.126  21.543  0.00  0.00    +0.000 C 
ENDBRANCH   4   9
BRANCH   8  12
ATOM     12  N   UNL     1      13.398  24.338  21.266  0.00  0.00    +0.000 NA
ATOM     13  C   UNL     1      14.629  24.638  21.781  0.00  0.00    +0.000 C 
ATOM     14  O   UNL     1      15.318  23.726  22.266  0.00  0.00    +0.000 OA
BRANCH  13  15
ATOM     15  C   UNL     1      15.195  26.008  21.797  0.00  0.00    +0.000 A 
ATOM     16  C   UNL     1      16.460  26.383  21.485  0.00  0.00    +0.000 A 
ATOM     17  C   UNL     1      16.766  27.675  21.565  0.00  0.00    +0.000 A 
ATOM     18  C   UNL     1      15.783  28.538  21.957  0.00  0.00    +0.000 A 
ATOM     19  S   UNL     1      14.452  27.474  22.198  0.00  0.00    +0.000 S 
ENDBRANCH  13  15
ENDBRANCH   8  12
TORSDOF 3
ENDMDL
MODEL 3
REMARK VINA RESULT:      -5.7      4.490      7.851
REMARK  Name = 
REMARK  3 active torsions:
REMARK  status: ('A' for Active; 'I' for Inactive)
REMARK    1  A    between atoms: C_4  and  C_5
REMARK    2  A    between atoms: C_11  and  N_12
REMARK    3  A    between atoms: C_13  and  C_15
REMARK                            x       y       z     vdW  Elec       q    Type
REMARK                         _______ _______ _______ _____ _____    ______ ____
ROOT
ATOM      1  C   UNL     1      30.164  26.365  24.427  0.00  0.00    +0.000 C 
ATOM      2  C   UNL     1      29.268  25.167  24.416  0.00  0.00    +0.000 A 
ATOM      3  C   UNL     1      29.193  24.360  25.520  0.00  0.00    +0.000 A 
ATOM      4  C   UNL     1      28.378  23.253  25.537  0.00  0.00    +0.000 A 
ATOM      5  C   UNL     1      27.648  22.986  24.415  0.00  0.00    +0.000 A 
ATOM      6  C   UNL     1      27.726  23.817  23.279  0.00  0.00    +0.000 A 
ATOM      7  O   UNL     1      26.960  23.490  22.176  0.00  0.00    +0.000 OA
ATOM      8  C   UNL     1      28.528  24.922  23.240  0.00  0.00    +0.000 A 
ENDROOT
BRANCH   4   9
ATOM      9  C   UNL     1      28.276  22.361  26.718  0.00  0.00    +0.000 C 
ATOM     10  C   UNL     1      27.431  22.982  27.795  0.00  0.00    +0.000 C 
ATOM     11  C   UNL     1      29.647  21.996  27.219  0.00  0.00    +0.000 C 
ENDBRANCH   4   9
BRANCH   8  12
ATOM     12  N   UNL     1      28.725  25.840  22.218  0.00  0.00    +0.000 NA
ATOM     13  C   UNL     1      29.295  25.778  20.976  0.00  0.00    +0.000 C 
ATOM     14  O   UNL     1      29.771  24.700  20.585  0.00  0.00    +0.000 OA
BRANCH  13  15
ATOM     15  C   UNL     1      29.378  26.938  20.056  0.00  0.00    +0.000 A 
ATOM     16  C   UNL     1      30.159  27.066  18.956  0.00  0.00    +0.000 A 
ATOM     17  C   UNL     1      30.082  28.199  18.264  0.00  0.00    +0.000 A 
ATOM     18  C   UNL     1      29.219  29.159  18.710  0.00  0.00    +0.000 A 
ATOM     19  S   UNL     1      28.545  28.410  20.106  0.00  0.00    +0.000 S 
ENDBRANCH  13  15
ENDBRANCH   8  12
TORSDOF 3
ENDMDL
MODEL 4
REMARK VINA RESULT:      -5.6     19.721     21.400
REMARK  Name = 
REMARK  3 active torsions:
REMARK  status: ('A' for Active; 'I' for Inactive)
REMARK    1  A    between atoms: C_4  and  C_5
REMARK    2  A    between atoms: C_11  and  N_12
REMARK    3  A    between atoms: C_13  and  C_15
REMARK                            x       y       z     vdW  Elec       q    Type
REMARK                         _______ _______ _______ _____ _____    ______ ____
ROOT
ATOM      1  C   UNL     1      20.940   9.588  41.184  0.00  0.00    +0.000 C 
ATOM      2  C   UNL     1      19.556   9.598  40.615  0.00  0.00    +0.000 A 
ATOM      3  C   UNL     1      18.474   9.489  41.448  0.00  0.00    +0.000 A 
ATOM      4  C   UNL     1      17.192   9.494  40.953  0.00  0.00    +0.000 A 
ATOM      5  C   UNL     1      17.035   9.612  39.602  0.00  0.00    +0.000 A 
ATOM      6  C   UNL     1      18.148   9.725  38.745  0.00  0.00    +0.000 A 
ATOM      7  O   UNL     1      17.920   9.841  37.387  0.00  0.00    +0.000 OA
ATOM      8  C   UNL     1      19.431   9.722  39.216  0.00  0.00    +0.000 A 
ENDROOT
BRANCH   4   9
ATOM      9  C   UNL     1      16.001   9.378  41.830  0.00  0.00    +0.000 C 
ATOM     10  C   UNL     1      16.317   9.816  43.233  0.00  0.00    +0.000 C 
ATOM     11  C   UNL     1      15.456   7.976  41.788  0.00  0.00    +0.000 C 
ENDBRANCH   4   9
BRANCH   8  12
ATOM     12  N   UNL     1      20.630   9.822  38.523  0.00  0.00    +0.000 NA
ATOM     13  C   UNL     1      21.304  10.851  37.925  0.00  0.00    +0.000 C 
ATOM     14  O   UNL     1      20.812  11.990  37.954  0.00  0.00    +0.000 OA
BRANCH  13  15
ATOM     15  C   UNL     1      22.605  10.683  37.234  0.00  0.00    +0.000 A 
ATOM     16  C   UNL     1      22.901   9.822  36.229  0.00  0.00    +0.000 A 
ATOM     17  C   UNL     1      24.141   9.831  35.745  0.00  0.00    +0.000 A 
ATOM     18  C   UNL     1      25.032  10.708  36.295  0.00  0.00    +0.000 A 
ATOM     19  S   UNL     1      24.068  11.493  37.486  0.00  0.00    +0.000 S 
ENDBRANCH  13  15
ENDBRANCH   8  12
TORSDOF 3
ENDMDL
MODEL 5
REMARK VINA RESULT:      -5.6      1.765      2.333
REMARK  Name = 
REMARK  3 active torsions:
REMARK  status: ('A' for Active; 'I' for Inactive)
REMARK    1  A    between atoms: C_4  and  C_5
REMARK    2  A    between atoms: C_11  and  N_12
REMARK    3  A    between atoms: C_13  and  C_15
REMARK                            x       y       z     vdW  Elec       q    Type
REMARK                         _______ _______ _______ _____ _____    ______ ____
ROOT
ATOM      1  C   UNL     1      31.440  23.016  25.368  0.00  0.00    +0.000 C 
ATOM      2  C   UNL     1      29.964  22.879  25.574  0.00  0.00    +0.000 A 
ATOM      3  C   UNL     1      29.102  23.180  24.553  0.00  0.00    +0.000 A 
ATOM      4  C   UNL     1      27.742  23.064  24.715  0.00  0.00    +0.000 A 
ATOM      5  C   UNL     1      27.281  22.639  25.927  0.00  0.00    +0.000 A 
ATOM      6  C   UNL     1      28.169  22.329  26.977  0.00  0.00    +0.000 A 
ATOM      7  O   UNL     1      27.637  21.904  28.180  0.00  0.00    +0.000 OA
ATOM      8  C   UNL     1      29.524  22.437  26.839  0.00  0.00    +0.000 A 
ENDROOT
BRANCH   4   9
ATOM      9  C   UNL     1      26.783  23.383  23.627  0.00  0.00    +0.000 C 
ATOM     10  C   UNL     1      27.496  23.913  22.415  0.00  0.00    +0.000 C 
ATOM     11  C   UNL     1      25.729  24.335  24.122  0.00  0.00    +0.000 C 
ENDBRANCH   4   9
BRANCH   8  12
ATOM     12  N   UNL     1      30.533  22.178  27.756  0.00  0.00    +0.000 NA
ATOM     13  C   UNL     1      30.894  22.723  28.958  0.00  0.00    +0.000 C 
ATOM     14  O   UNL     1      30.231  23.669  29.413  0.00  0.00    +0.000 OA
BRANCH  13  15
ATOM     15  C   UNL     1      32.047  22.245  29.758  0.00  0.00    +0.000 A 
ATOM     16  C   UNL     1      33.364  22.446  29.511  0.00  0.00    +0.000 A 
ATOM     17  C   UNL     1      34.246  21.926  30.361  0.00  0.00    +0.000 A 
ATOM     18  C   UNL     1      33.762  21.224  31.428  0.00  0.00    +0.000 A 
ATOM     19  S   UNL     1      32.061  21.330  31.181  0.00  0.00    +0.000 S 
ENDBRANCH  13  15
ENDBRANCH   8  12
TORSDOF 3
ENDMDL
MODEL 6
REMARK VINA RESULT:      -5.5     31.702     32.420
REMARK  Name = 
REMARK  3 active torsions:
REMARK  status: ('A' for Active; 'I' for Inactive)
REMARK    1  A    between atoms: C_4  and  C_5
REMARK    2  A    between atoms: C_11  and  N_12
REMARK    3  A    between atoms: C_13  and  C_15
REMARK                            x       y       z     vdW  Elec       q    Type
REMARK                         _______ _______ _______ _____ _____    ______ ____
ROOT
ATOM      1  C   UNL     1      22.162 -10.071  26.261  0.00  0.00    +0.000 C 
ATOM      2  C   UNL     1      21.219  -8.910  26.222  0.00  0.00    +0.000 A 
ATOM      3  C   UNL     1      20.049  -8.957  26.934  0.00  0.00    +0.000 A 
ATOM      4  C   UNL     1      19.164  -7.906  26.916  0.00  0.00    +0.000 A 
ATOM      5  C   UNL     1      19.490  -6.814  26.165  0.00  0.00    +0.000 A 
ATOM      6  C   UNL     1      20.694  -6.767  25.433  0.00  0.00    +0.000 A 
ATOM      7  O   UNL     1      20.965  -5.632  24.692  0.00  0.00    +0.000 OA
ATOM      8  C   UNL     1      21.589  -7.800  25.436  0.00  0.00    +0.000 A 
ENDROOT
BRANCH   4   9
ATOM      9  C   UNL     1      17.890  -7.928  27.677  0.00  0.00    +0.000 C 
ATOM     10  C   UNL     1      17.644  -9.281  28.284  0.00  0.00    +0.000 C 
ATOM     11  C   UNL     1      16.749  -7.489  26.800  0.00  0.00    +0.000 C 
ENDBRANCH   4   9
BRANCH   8  12
ATOM     12  N   UNL     1      22.807  -7.921  24.781  0.00  0.00    +0.000 NA
ATOM     13  C   UNL     1      23.181  -7.999  23.468  0.00  0.00    +0.000 C 
ATOM     14  O   UNL     1      22.305  -7.962  22.589  0.00  0.00    +0.000 OA
BRANCH  13  15
ATOM     15  C   UNL     1      24.590  -8.127  23.027  0.00  0.00    +0.000 A 
ATOM     16  C   UNL     1      25.614  -7.274  23.273  0.00  0.00    +0.000 A 
ATOM     17  C   UNL     1      26.812  -7.578  22.780  0.00  0.00    +0.000 A 
ATOM     18  C   UNL     1      26.930  -8.731  22.059  0.00  0.00    +0.000 A 
ATOM     19  S   UNL     1      25.322  -9.345  22.108  0.00  0.00    +0.000 S 
ENDBRANCH  13  15
ENDBRANCH   8  12
TORSDOF 3
ENDMDL
MODEL 7
REMARK VINA RESULT:      -5.3      5.182      8.060
REMARK  Name = 
REMARK  3 active torsions:
REMARK  status: ('A' for Active; 'I' for Inactive)
REMARK    1  A    between atoms: C_4  and  C_5
REMARK    2  A    between atoms: C_11  and  N_12
REMARK    3  A    between atoms: C_13  and  C_15
REMARK                            x       y       z     vdW  Elec       q    Type
REMARK                         _______ _______ _______ _____ _____    ______ ____
ROOT
ATOM      1  C   UNL     1      26.020  24.573  24.499  0.00  0.00    +0.000 C 
ATOM      2  C   UNL     1      26.707  23.917  25.655  0.00  0.00    +0.000 A 
ATOM      3  C   UNL     1      27.926  23.318  25.476  0.00  0.00    +0.000 A 
ATOM      4  C   UNL     1      28.578  22.707  26.520  0.00  0.00    +0.000 A 
ATOM      5  C   UNL     1      27.970  22.720  27.742  0.00  0.00    +0.000 A 
ATOM      6  C   UNL     1      26.716  23.337  27.926  0.00  0.00    +0.000 A 
ATOM      7  O   UNL     1      26.154  23.314  29.189  0.00  0.00    +0.000 OA
ATOM      8  C   UNL     1      26.049  23.949  26.903  0.00  0.00    +0.000 A 
ENDROOT
BRANCH   4   9
ATOM      9  C   UNL     1      29.899  22.050  26.356  0.00  0.00    +0.000 C 
ATOM     10  C   UNL     1      30.822  22.398  27.491  0.00  0.00    +0.000 C 
ATOM     11  C   UNL     1      30.494  22.399  25.019  0.00  0.00    +0.000 C 
ENDBRANCH   4   9
BRANCH   8  12
ATOM     12  N   UNL     1      24.822  24.598  26.905  0.00  0.00    +0.000 NA
ATOM     13  C   UNL     1      24.367  25.777  27.427  0.00  0.00    +0.000 C 
ATOM     14  O   UNL     1      25.155  26.500  28.058  0.00  0.00    +0.000 OA
BRANCH  13  15
ATOM     15  C   UNL     1      22.969  26.249  27.282  0.00  0.00    +0.000 A 
ATOM     16  C   UNL     1      22.062  26.460  28.267  0.00  0.00    +0.000 A 
ATOM     17  C   UNL     1      20.851  26.888  27.920  0.00  0.00    +0.000 A 
ATOM     18  C   UNL     1      20.604  27.085  26.592  0.00  0.00    +0.000 A 
ATOM     19  S   UNL     1      22.111  26.654  25.881  0.00  0.00    +0.000 S 
ENDBRANCH  13  15
ENDBRANCH   8  12
TORSDOF 3
ENDMDL
MODEL 8
REMARK VINA RESULT:      -5.3      2.982      3.554
REMARK  Name = 
REMARK  3 active torsions:
REMARK  status: ('A' for Active; 'I' for Inactive)
REMARK    1  A    between atoms: C_4  and  C_5
REMARK    2  A    between atoms: C_11  and  N_12
REMARK    3  A    between atoms: C_13  and  C_15
REMARK                            x       y       z     vdW  Elec       q    Type
REMARK                         _______ _______ _______ _____ _____    ______ ____
ROOT
ATOM      1  C   UNL     1      30.709  22.099  27.457  0.00  0.00    +0.000 C 
ATOM      2  C   UNL     1      29.327  22.529  27.082  0.00  0.00    +0.000 A 
ATOM      3  C   UNL     1      28.986  22.655  25.761  0.00  0.00    +0.000 A 
ATOM      4  C   UNL     1      27.723  23.050  25.387  0.00  0.00    +0.000 A 
ATOM      5  C   UNL     1      26.821  23.311  26.378  0.00  0.00    +0.000 A 
ATOM      6  C   UNL     1      27.173  23.182  27.737  0.00  0.00    +0.000 A 
ATOM      7  O   UNL     1      26.213  23.463  28.691  0.00  0.00    +0.000 OA
ATOM      8  C   UNL     1      28.422  22.791  28.131  0.00  0.00    +0.000 A 
ENDROOT
BRANCH   4   9
ATOM      9  C   UNL     1      27.324  23.194  23.965  0.00  0.00    +0.000 C 
ATOM     10  C   UNL     1      28.529  23.304  23.073  0.00  0.00    +0.000 C 
ATOM     11  C   UNL     1      26.393  24.364  23.800  0.00  0.00    +0.000 C 
ENDBRANCH   4   9
BRANCH   8  12
ATOM     12  N   UNL     1      28.934  22.614  29.409  0.00  0.00    +0.000 NA
ATOM     13  C   UNL     1      29.298  23.463  30.418  0.00  0.00    +0.000 C 
ATOM     14  O   UNL     1      29.180  24.687  30.246  0.00  0.00    +0.000 OA
BRANCH  13  15
ATOM     15  C   UNL     1      29.832  23.001  31.721  0.00  0.00    +0.000 A 
ATOM     16  C   UNL     1      30.128  21.730  32.089  0.00  0.00    +0.000 A 
ATOM     17  C   UNL     1      30.600  21.529  33.317  0.00  0.00    +0.000 A 
ATOM     18  C   UNL     1      30.754  22.619  34.125  0.00  0.00    +0.000 A 
ATOM     19  S   UNL     1      30.220  23.897  33.102  0.00  0.00    +0.000 S 
ENDBRANCH  13  15
ENDBRANCH   8  12
TORSDOF 3
ENDMDL
MODEL 9
REMARK VINA RESULT:      -5.3     26.917     27.997
REMARK  Name = 
REMARK  3 active torsions:
REMARK  status: ('A' for Active; 'I' for Inactive)
REMARK    1  A    between atoms: C_4  and  C_5
REMARK    2  A    between atoms: C_11  and  N_12
REMARK    3  A    between atoms: C_13  and  C_15
REMARK                            x       y       z     vdW  Elec       q    Type
REMARK                         _______ _______ _______ _____ _____    ______ ____
ROOT
ATOM      1  C   UNL     1      10.467  10.987  10.182  0.00  0.00    +0.000 C 
ATOM      2  C   UNL     1      10.392  10.279  11.498  0.00  0.00    +0.000 A 
ATOM      3  C   UNL     1      10.956   9.038  11.638  0.00  0.00    +0.000 A 
ATOM      4  C   UNL     1      10.901   8.364  12.835  0.00  0.00    +0.000 A 
ATOM      5  C   UNL     1      10.265   8.974  13.878  0.00  0.00    +0.000 A 
ATOM      6  C   UNL     1       9.685  10.250  13.732  0.00  0.00    +0.000 A 
ATOM      7  O   UNL     1       9.055  10.812  14.827  0.00  0.00    +0.000 OA
ATOM      8  C   UNL     1       9.727  10.938  12.552  0.00  0.00    +0.000 A 
ENDROOT
BRANCH   4   9
ATOM      9  C   UNL     1      11.502   7.020  13.018  0.00  0.00    +0.000 C 
ATOM     10  C   UNL     1      11.332   6.537  14.431  0.00  0.00    +0.000 C 
ATOM     11  C   UNL     1      12.947   7.032  12.598  0.00  0.00    +0.000 C 
ENDBRANCH   4   9
BRANCH   8  12
ATOM     12  N   UNL     1       9.215  12.189  12.236  0.00  0.00    +0.000 NA
ATOM     13  C   UNL     1       9.409  13.452  12.724  0.00  0.00    +0.000 C 
ATOM     14  O   UNL     1      10.204  13.618  13.664  0.00  0.00    +0.000 OA
BRANCH  13  15
ATOM     15  C   UNL     1       8.716  14.649  12.191  0.00  0.00    +0.000 A 
ATOM     16  C   UNL     1       9.280  15.769  11.677  0.00  0.00    +0.000 A 
ATOM     17  C   UNL     1       8.471  16.736  11.250  0.00  0.00    +0.000 A 
ATOM     18  C   UNL     1       7.126  16.533  11.360  0.00  0.00    +0.000 A 
ATOM     19  S   UNL     1       7.059  14.966  12.070  0.00  0.00    +0.000 S 
ENDBRANCH  13  15
ENDBRANCH   8  12
TORSDOF 3
ENDMDL
MODEL 10
REMARK VINA RESULT:      -5.3      1.905      2.188
REMARK  Name = 
REMARK  3 active torsions:
REMARK  status: ('A' for Active; 'I' for Inactive)
REMARK    1  A    between atoms: C_4  and  C_5
REMARK    2  A    between atoms: C_11  and  N_12
REMARK    3  A    between atoms: C_13  and  C_15
REMARK                            x       y       z     vdW  Elec       q    Type
REMARK                         _______ _______ _______ _____ _____    ______ ____
ROOT
ATOM      1  C   UNL     1      26.754  23.058  28.307  0.00  0.00    +0.000 C 
ATOM      2  C   UNL     1      27.482  23.091  27.000  0.00  0.00    +0.000 A 
ATOM      3  C   UNL     1      26.818  23.452  25.857  0.00  0.00    +0.000 A 
ATOM      4  C   UNL     1      27.462  23.490  24.644  0.00  0.00    +0.000 A 
ATOM      5  C   UNL     1      28.785  23.157  24.617  0.00  0.00    +0.000 A 
ATOM      6  C   UNL     1      29.468  22.787  25.794  0.00  0.00    +0.000 A 
ATOM      7  O   UNL     1      30.808  22.461  25.698  0.00  0.00    +0.000 OA
ATOM      8  C   UNL     1      28.848  22.741  27.010  0.00  0.00    +0.000 A 
ENDROOT
BRANCH   4   9
ATOM      9  C   UNL     1      26.770  23.877  23.389  0.00  0.00    +0.000 C 
ATOM     10  C   UNL     1      25.474  23.131  23.234  0.00  0.00    +0.000 C 
ATOM     11  C   UNL     1      27.679  23.677  22.207  0.00  0.00    +0.000 C 
ENDBRANCH   4   9
BRANCH   8  12
ATOM     12  N   UNL     1      29.360  22.402  28.255  0.00  0.00    +0.000 NA
ATOM     13  C   UNL     1      30.186  23.026  29.150  0.00  0.00    +0.000 C 
ATOM     14  O   UNL     1      30.630  24.153  28.874  0.00  0.00    +0.000 OA
BRANCH  13  15
ATOM     15  C   UNL     1      30.589  22.427  30.444  0.00  0.00    +0.000 A 
ATOM     16  C   UNL     1      29.824  22.257  31.550  0.00  0.00    +0.000 A 
ATOM     17  C   UNL     1      30.384  21.694  32.617  0.00  0.00    +0.000 A 
ATOM     18  C   UNL     1      31.695  21.325  32.526  0.00  0.00    +0.000 A 
ATOM     19  S   UNL     1      32.086  21.794  30.916  0.00  0.00    +0.000 S 
ENDBRANCH  13  15
ENDBRANCH   8  12
TORSDOF 3
ENDMDL
