MODEL 1
REMARK VINA RESULT:      -6.7      0.000      0.000
REMARK  Name = 
REMARK  4 active torsions:
REMARK  status: ('A' for Active; 'I' for Inactive)
REMARK    1  A    between atoms: C_2  and  C_3
REMARK    2  A    between atoms: C_6  and  C_7
REMARK    3  A    between atoms: N_8  and  N_9
REMARK    4  A    between atoms: C_10  and  C_12
REMARK                            x       y       z     vdW  Elec       q    Type
REMARK                         _______ _______ _______ _____ _____    ______ ____
ROOT
ATOM      1  C   UNL     1      17.348   9.755  34.681  0.00  0.00    +0.000 C 
ATOM      2  N   UNL     1      17.591  10.112  35.871  0.00  0.00    +0.000 NA
ENDROOT
BRANCH   1   6
ATOM      3  C   UNL     1      15.020  12.155  31.989  0.00  0.00    +0.000 A 
ATOM      4  C   UNL     1      14.878  12.277  33.356  0.00  0.00    +0.000 A 
ATOM      5  C   UNL     1      15.637  11.494  34.206  0.00  0.00    +0.000 A 
ATOM      6  C   UNL     1      16.555  10.574  33.742  0.00  0.00    +0.000 A 
ATOM      7  C   UNL     1      16.691  10.459  32.374  0.00  0.00    +0.000 A 
ATOM      8  C   UNL     1      15.936  11.236  31.518  0.00  0.00    +0.000 A 
BRANCH   3  10
ATOM      9  C   UNL     1      13.790  14.274  31.788  0.00  0.00    +0.000 C 
ATOM     10  C   UNL     1      14.204  12.996  31.068  0.00  0.00    +0.000 C 
ENDBRANCH   3  10
ENDBRANCH   1   6
BRANCH   2  11
ATOM     11  N   UNL     1      18.340   9.363  36.791  0.00  0.00    +0.000 NA
ATOM     12  C   UNL     1      18.177   9.449  38.182  0.00  0.00    +0.000 C 
ATOM     13  O   UNL     1      17.312  10.241  38.637  0.00  0.00    +0.000 OA
BRANCH  12  14
ATOM     14  C   UNL     1      18.978   8.648  39.127  0.00  0.00    +0.000 A 
ATOM     15  C   UNL     1      18.662   7.475  39.731  0.00  0.00    +0.000 A 
ATOM     16  C   UNL     1      19.720   7.100  40.533  0.00  0.00    +0.000 A 
ATOM     17  C   UNL     1      19.868   5.899  41.398  0.00  0.00    +0.000 C 
ATOM     18  N   UNL     1      20.641   8.067  40.384  0.00  0.00    +0.000 NA
ATOM     19  N   UNL     1      20.209   8.992  39.551  0.00  0.00    +0.000 NA
ENDBRANCH  12  14
ENDBRANCH   2  11
TORSDOF 4
ENDMDL
MODEL 2
REMARK VINA RESULT:      -6.1     22.804     25.533
REMARK  Name = 
REMARK  4 active torsions:
REMARK  status: ('A' for Active; 'I' for Inactive)
REMARK    1  A    between atoms: C_2  and  C_3
REMARK    2  A    between atoms: C_6  and  C_7
REMARK    3  A    between atoms: N_8  and  N_9
REMARK    4  A    between atoms: C_10  and  C_12
REMARK                            x       y       z     vdW  Elec       q    Type
REMARK                         _______ _______ _______ _____ _____    ______ ____
ROOT
ATOM      1  C   UNL     1      28.747  23.964  21.818  0.00  0.00    +0.000 C 
ATOM      2  N   UNL     1      29.526  24.919  21.527  0.00  0.00    +0.000 NA
ENDROOT
BRANCH   1   6
ATOM      3  C   UNL     1      28.135  22.615  25.846  0.00  0.00    +0.000 A 
ATOM      4  C   UNL     1      29.395  22.627  25.282  0.00  0.00    +0.000 A 
ATOM      5  C   UNL     1      29.570  23.064  23.983  0.00  0.00    +0.000 A 
ATOM      6  C   UNL     1      28.521  23.503  23.202  0.00  0.00    +0.000 A 
ATOM      7  C   UNL     1      27.265  23.490  23.774  0.00  0.00    +0.000 A 
ATOM      8  C   UNL     1      27.081  23.053  25.071  0.00  0.00    +0.000 A 
BRANCH   3  10
ATOM      9  C   UNL     1      29.102  22.628  28.106  0.00  0.00    +0.000 C 
ATOM     10  C   UNL     1      27.940  22.144  27.246  0.00  0.00    +0.000 C 
ENDBRANCH   3  10
ENDBRANCH   1   6
BRANCH   2  11
ATOM     11  N   UNL     1      29.767  25.385  20.226  0.00  0.00    +0.000 NA
ATOM     12  C   UNL     1      29.825  26.744  19.883  0.00  0.00    +0.000 C 
ATOM     13  O   UNL     1      29.653  27.599  20.789  0.00  0.00    +0.000 OA
BRANCH  12  14
ATOM     14  C   UNL     1      30.080  27.206  18.506  0.00  0.00    +0.000 A 
ATOM     15  C   UNL     1      29.209  27.729  17.607  0.00  0.00    +0.000 A 
ATOM     16  C   UNL     1      29.901  28.016  16.447  0.00  0.00    +0.000 A 
ATOM     17  C   UNL     1      29.404  28.600  15.173  0.00  0.00    +0.000 C 
ATOM     18  N   UNL     1      31.171  27.652  16.691  0.00  0.00    +0.000 NA
ATOM     19  N   UNL     1      31.288  27.168  17.911  0.00  0.00    +0.000 NA
ENDBRANCH  12  14
ENDBRANCH   2  11
TORSDOF 4
ENDMDL
MODEL 3
REMARK VINA RESULT:      -6.1     23.829     25.774
REMARK  Name = 
REMARK  4 active torsions:
REMARK  status: ('A' for Active; 'I' for Inactive)
REMARK    1  A    between atoms: C_2  and  C_3
REMARK    2  A    between atoms: C_6  and  C_7
REMARK    3  A    between atoms: N_8  and  N_9
REMARK    4  A    between atoms: C_10  and  C_12
REMARK                            x       y       z     vdW  Elec       q    Type
REMARK                         _______ _______ _______ _____ _____    ______ ____
ROOT
ATOM      1  C   UNL     1      29.936  26.822  19.638  0.00  0.00    +0.000 C 
ATOM      2  N   UNL     1      29.767  25.575  19.773  0.00  0.00    +0.000 NA
ENDROOT
BRANCH   1   6
ATOM      3  C   UNL     1      29.975  28.765  15.811  0.00  0.00    +0.000 A 
ATOM      4  C   UNL     1      31.038  27.990  16.227  0.00  0.00    +0.000 A 
ATOM      5  C   UNL     1      31.006  27.373  17.464  0.00  0.00    +0.000 A 
ATOM      6  C   UNL     1      29.935  27.497  18.325  0.00  0.00    +0.000 A 
ATOM      7  C   UNL     1      28.876  28.272  17.900  0.00  0.00    +0.000 A 
ATOM      8  C   UNL     1      28.900  28.892  16.666  0.00  0.00    +0.000 A 
BRANCH   3  10
ATOM      9  C   UNL     1      28.940  30.523  14.440  0.00  0.00    +0.000 C 
ATOM     10  C   UNL     1      30.005  29.432  14.479  0.00  0.00    +0.000 C 
ENDBRANCH   3  10
ENDBRANCH   1   6
BRANCH   2  11
ATOM     11  N   UNL     1      29.762  24.899  21.003  0.00  0.00    +0.000 NA
ATOM     12  C   UNL     1      28.604  24.668  21.760  0.00  0.00    +0.000 C 
ATOM     13  O   UNL     1      27.504  25.087  21.317  0.00  0.00    +0.000 OA
BRANCH  12  14
ATOM     14  C   UNL     1      28.628  23.953  23.050  0.00  0.00    +0.000 A 
ATOM     15  C   UNL     1      29.695  23.493  23.751  0.00  0.00    +0.000 A 
ATOM     16  C   UNL     1      29.231  22.888  24.901  0.00  0.00    +0.000 A 
ATOM     17  C   UNL     1      29.996  22.231  25.995  0.00  0.00    +0.000 C 
ATOM     18  N   UNL     1      27.894  23.005  24.852  0.00  0.00    +0.000 NA
ATOM     19  N   UNL     1      27.525  23.636  23.755  0.00  0.00    +0.000 NA
ENDBRANCH  12  14
ENDBRANCH   2  11
TORSDOF 4
ENDMDL
MODEL 4
REMARK VINA RESULT:      -6.1      2.614      8.760
REMARK  Name = 
REMARK  4 active torsions:
REMARK  status: ('A' for Active; 'I' for Inactive)
REMARK    1  A    between atoms: C_2  and  C_3
REMARK    2  A    between atoms: C_6  and  C_7
REMARK    3  A    between atoms: N_8  and  N_9
REMARK    4  A    between atoms: C_10  and  C_12
REMARK                            x       y       z     vdW  Elec       q    Type
REMARK                         _______ _______ _______ _____ _____    ______ ____
ROOT
ATOM      1  C   UNL     1      17.399  10.660  37.557  0.00  0.00    +0.000 C 
ATOM      2  N   UNL     1      16.943   9.933  36.626  0.00  0.00    +0.000 NA
ENDROOT
BRANCH   1   6
ATOM      3  C   UNL     1      17.682   9.321  41.625  0.00  0.00    +0.000 A 
ATOM      4  C   UNL     1      16.457   9.492  41.015  0.00  0.00    +0.000 A 
ATOM      5  C   UNL     1      16.387   9.925  39.704  0.00  0.00    +0.000 A 
ATOM      6  C   UNL     1      17.513  10.200  38.955  0.00  0.00    +0.000 A 
ATOM      7  C   UNL     1      18.734  10.026  39.572  0.00  0.00    +0.000 A 
ATOM      8  C   UNL     1      18.813   9.594  40.882  0.00  0.00    +0.000 A 
BRANCH   3  10
ATOM      9  C   UNL     1      16.354   8.632  43.575  0.00  0.00    +0.000 C 
ATOM     10  C   UNL     1      17.763   8.856  43.038  0.00  0.00    +0.000 C 
ENDBRANCH   3  10
ENDBRANCH   1   6
BRANCH   2  11
ATOM     11  N   UNL     1      16.820  10.334  35.287  0.00  0.00    +0.000 NA
ATOM     12  C   UNL     1      15.785  11.152  34.811  0.00  0.00    +0.000 C 
ATOM     13  O   UNL     1      14.915  11.553  35.626  0.00  0.00    +0.000 OA
BRANCH  12  14
ATOM     14  C   UNL     1      15.680  11.560  33.398  0.00  0.00    +0.000 A 
ATOM     15  C   UNL     1      14.806  12.424  32.823  0.00  0.00    +0.000 A 
ATOM     16  C   UNL     1      15.087  12.492  31.473  0.00  0.00    +0.000 A 
ATOM     17  C   UNL     1      14.420  13.292  30.411  0.00  0.00    +0.000 C 
ATOM     18  N   UNL     1      16.126  11.661  31.283  0.00  0.00    +0.000 NA
ATOM     19  N   UNL     1      16.485  11.102  32.420  0.00  0.00    +0.000 NA
ENDBRANCH  12  14
ENDBRANCH   2  11
TORSDOF 4
ENDMDL
MODEL 5
REMARK VINA RESULT:      -6.0     21.504     22.913
REMARK  Name = 
REMARK  4 active torsions:
REMARK  status: ('A' for Active; 'I' for Inactive)
REMARK    1  A    between atoms: C_2  and  C_3
REMARK    2  A    between atoms: C_6  and  C_7
REMARK    3  A    between atoms: N_8  and  N_9
REMARK    4  A    between atoms: C_10  and  C_12
REMARK                            x       y       z     vdW  Elec       q    Type
REMARK                         _______ _______ _______ _____ _____    ______ ____
ROOT
ATOM      1  C   UNL     1      24.048  -8.506  24.232  0.00  0.00    +0.000 C 
ATOM      2  N   UNL     1      23.613  -7.457  24.792  0.00  0.00    +0.000 NA
ENDROOT
BRANCH   1   6
ATOM      3  C   UNL     1      27.963  -8.728  22.486  0.00  0.00    +0.000 A 
ATOM      4  C   UNL     1      27.286  -7.528  22.567  0.00  0.00    +0.000 A 
ATOM      5  C   UNL     1      26.026  -7.478  23.133  0.00  0.00    +0.000 A 
ATOM      6  C   UNL     1      25.395  -8.598  23.635  0.00  0.00    +0.000 A 
ATOM      7  C   UNL     1      26.079  -9.794  23.550  0.00  0.00    +0.000 A 
ATOM      8  C   UNL     1      27.339  -9.852  22.986  0.00  0.00    +0.000 A 
BRANCH   3  10
ATOM      9  C   UNL     1      29.948  -7.398  21.907  0.00  0.00    +0.000 C 
ATOM     10  C   UNL     1      29.321  -8.788  21.876  0.00  0.00    +0.000 C 
ENDBRANCH   3  10
ENDBRANCH   1   6
BRANCH   2  11
ATOM     11  N   UNL     1      22.340  -7.331  25.370  0.00  0.00    +0.000 NA
ATOM     12  C   UNL     1      21.410  -6.349  24.999  0.00  0.00    +0.000 C 
ATOM     13  O   UNL     1      21.727  -5.533  24.097  0.00  0.00    +0.000 OA
BRANCH  12  14
ATOM     14  C   UNL     1      20.078  -6.240  25.624  0.00  0.00    +0.000 A 
ATOM     15  C   UNL     1      19.254  -7.229  26.052  0.00  0.00    +0.000 A 
ATOM     16  C   UNL     1      18.112  -6.651  26.568  0.00  0.00    +0.000 A 
ATOM     17  C   UNL     1      16.911  -7.299  27.160  0.00  0.00    +0.000 C 
ATOM     18  N   UNL     1      18.290  -5.326  26.429  0.00  0.00    +0.000 NA
ATOM     19  N   UNL     1      19.455  -5.072  25.869  0.00  0.00    +0.000 NA
ENDBRANCH  12  14
ENDBRANCH   2  11
TORSDOF 4
ENDMDL
MODEL 6
REMARK VINA RESULT:      -5.9     20.570     21.560
REMARK  Name = 
REMARK  4 active torsions:
REMARK  status: ('A' for Active; 'I' for Inactive)
REMARK    1  A    between atoms: C_2  and  C_3
REMARK    2  A    between atoms: C_6  and  C_7
REMARK    3  A    between atoms: N_8  and  N_9
REMARK    4  A    between atoms: C_10  and  C_12
REMARK                            x       y       z     vdW  Elec       q    Type
REMARK                         _______ _______ _______ _____ _____    ______ ____
ROOT
ATOM      1  C   UNL     1      14.160  -8.981  25.433  0.00  0.00    +0.000 C 
ATOM      2  N   UNL     1      14.910  -8.069  25.891  0.00  0.00    +0.000 NA
ENDROOT
BRANCH   1   6
ATOM      3  C   UNL     1       9.986  -9.303  26.381  0.00  0.00    +0.000 A 
ATOM      4  C   UNL     1      10.419  -9.280  25.071  0.00  0.00    +0.000 A 
ATOM      5  C   UNL     1      11.768  -9.175  24.787  0.00  0.00    +0.000 A 
ATOM      6  C   UNL     1      12.728  -9.091  25.775  0.00  0.00    +0.000 A 
ATOM      7  C   UNL     1      12.286  -9.115  27.082  0.00  0.00    +0.000 A 
ATOM      8  C   UNL     1      10.940  -9.219  27.375  0.00  0.00    +0.000 A 
BRANCH   3  10
ATOM      9  C   UNL     1       7.729  -8.735  25.590  0.00  0.00    +0.000 C 
ATOM     10  C   UNL     1       8.533  -9.414  26.693  0.00  0.00    +0.000 C 
ENDBRANCH   3  10
ENDBRANCH   1   6
BRANCH   2  11
ATOM     11  N   UNL     1      16.274  -7.932  25.589  0.00  0.00    +0.000 NA
ATOM     12  C   UNL     1      17.152  -7.109  26.309  0.00  0.00    +0.000 C 
ATOM     13  O   UNL     1      16.698  -6.454  27.283  0.00  0.00    +0.000 OA
BRANCH  12  14
ATOM     14  C   UNL     1      18.581  -6.983  25.971  0.00  0.00    +0.000 A 
ATOM     15  C   UNL     1      19.497  -7.963  25.761  0.00  0.00    +0.000 A 
ATOM     16  C   UNL     1      20.709  -7.370  25.471  0.00  0.00    +0.000 A 
ATOM     17  C   UNL     1      22.020  -8.005  25.167  0.00  0.00    +0.000 C 
ATOM     18  N   UNL     1      20.480  -6.047  25.519  0.00  0.00    +0.000 NA
ATOM     19  N   UNL     1      19.219  -5.807  25.815  0.00  0.00    +0.000 NA
ENDBRANCH  12  14
ENDBRANCH   2  11
TORSDOF 4
ENDMDL
MODEL 7
REMARK VINA RESULT:      -5.8     20.516     21.926
REMARK  Name = 
REMARK  4 active torsions:
REMARK  status: ('A' for Active; 'I' for Inactive)
REMARK    1  A    between atoms: C_2  and  C_3
REMARK    2  A    between atoms: C_6  and  C_7
REMARK    3  A    between atoms: N_8  and  N_9
REMARK    4  A    between atoms: C_10  and  C_12
REMARK                            x       y       z     vdW  Elec       q    Type
REMARK                         _______ _______ _______ _____ _____    ______ ____
ROOT
ATOM      1  C   UNL     1      16.714  -7.344  26.594  0.00  0.00    +0.000 C 
ATOM      2  N   UNL     1      15.818  -7.808  25.830  0.00  0.00    +0.000 NA
ENDROOT
BRANCH   1   6
ATOM      3  C   UNL     1      20.828  -6.949  25.437  0.00  0.00    +0.000 A 
ATOM      4  C   UNL     1      20.087  -5.850  25.818  0.00  0.00    +0.000 A 
ATOM      5  C   UNL     1      18.763  -5.998  26.187  0.00  0.00    +0.000 A 
ATOM      6  C   UNL     1      18.130  -7.224  26.194  0.00  0.00    +0.000 A 
ATOM      7  C   UNL     1      18.878  -8.318  25.812  0.00  0.00    +0.000 A 
ATOM      8  C   UNL     1      20.202  -8.179  25.442  0.00  0.00    +0.000 A 
BRANCH   3  10
ATOM      9  C   UNL     1      22.324  -6.278  23.606  0.00  0.00    +0.000 C 
ATOM     10  C   UNL     1      22.256  -6.795  25.039  0.00  0.00    +0.000 C 
ENDBRANCH   3  10
ENDBRANCH   1   6
BRANCH   2  11
ATOM     11  N   UNL     1      14.463  -7.937  26.174  0.00  0.00    +0.000 NA
ATOM     12  C   UNL     1      13.753  -9.144  26.105  0.00  0.00    +0.000 C 
ATOM     13  O   UNL     1      14.359 -10.175  25.714  0.00  0.00    +0.000 OA
BRANCH  12  14
ATOM     14  C   UNL     1      12.330  -9.251  26.474  0.00  0.00    +0.000 A 
ATOM     15  C   UNL     1      11.232  -9.070  25.698  0.00  0.00    +0.000 A 
ATOM     16  C   UNL     1      10.110  -9.275  26.476  0.00  0.00    +0.000 A 
ATOM     17  C   UNL     1       8.674  -9.196  26.099  0.00  0.00    +0.000 C 
ATOM     18  N   UNL     1      10.576  -9.573  27.701  0.00  0.00    +0.000 NA
ATOM     19  N   UNL     1      11.893  -9.561  27.711  0.00  0.00    +0.000 NA
ENDBRANCH  12  14
ENDBRANCH   2  11
TORSDOF 4
ENDMDL
MODEL 8
REMARK VINA RESULT:      -5.7     17.604     19.391
REMARK  Name = 
REMARK  4 active torsions:
REMARK  status: ('A' for Active; 'I' for Inactive)
REMARK    1  A    between atoms: C_2  and  C_3
REMARK    2  A    between atoms: C_6  and  C_7
REMARK    3  A    between atoms: N_8  and  N_9
REMARK    4  A    between atoms: C_10  and  C_12
REMARK                            x       y       z     vdW  Elec       q    Type
REMARK                         _______ _______ _______ _____ _____    ______ ____
ROOT
ATOM      1  C   UNL     1      33.761   3.388  34.046  0.00  0.00    +0.000 C 
ATOM      2  N   UNL     1      34.233   3.952  35.077  0.00  0.00    +0.000 NA
ENDROOT
BRANCH   1   6
ATOM      3  C   UNL     1      33.779  -0.873  33.531  0.00  0.00    +0.000 A 
ATOM      4  C   UNL     1      33.435  -0.303  34.739  0.00  0.00    +0.000 A 
ATOM      5  C   UNL     1      33.436   1.072  34.884  0.00  0.00    +0.000 A 
ATOM      6  C   UNL     1      33.772   1.925  33.853  0.00  0.00    +0.000 A 
ATOM      7  C   UNL     1      34.114   1.347  32.648  0.00  0.00    +0.000 A 
ATOM      8  C   UNL     1      34.117  -0.026  32.494  0.00  0.00    +0.000 A 
BRANCH   3  10
ATOM      9  C   UNL     1      32.744  -2.963  34.305  0.00  0.00    +0.000 C 
ATOM     10  C   UNL     1      33.781  -2.354  33.368  0.00  0.00    +0.000 C 
ENDBRANCH   3  10
ENDBRANCH   1   6
BRANCH   2  11
ATOM     11  N   UNL     1      34.240   5.338  35.296  0.00  0.00    +0.000 NA
ATOM     12  C   UNL     1      35.388   6.065  35.642  0.00  0.00    +0.000 C 
ATOM     13  O   UNL     1      36.477   5.447  35.763  0.00  0.00    +0.000 OA
BRANCH  12  14
ATOM     14  C   UNL     1      35.368   7.523  35.865  0.00  0.00    +0.000 A 
ATOM     15  C   UNL     1      34.314   8.326  36.159  0.00  0.00    +0.000 A 
ATOM     16  C   UNL     1      34.775   9.621  36.279  0.00  0.00    +0.000 A 
ATOM     17  C   UNL     1      34.020  10.865  36.589  0.00  0.00    +0.000 C 
ATOM     18  N   UNL     1      36.097   9.552  36.051  0.00  0.00    +0.000 NA
ATOM     19  N   UNL     1      36.460   8.310  35.804  0.00  0.00    +0.000 NA
ENDBRANCH  12  14
ENDBRANCH   2  11
TORSDOF 4
ENDMDL
MODEL 9
REMARK VINA RESULT:      -5.7      7.064      9.105
REMARK  Name = 
REMARK  4 active torsions:
REMARK  status: ('A' for Active; 'I' for Inactive)
REMARK    1  A    between atoms: C_2  and  C_3
REMARK    2  A    between atoms: C_6  and  C_7
REMARK    3  A    between atoms: N_8  and  N_9
REMARK    4  A    between atoms: C_10  and  C_12
REMARK                            x       y       z     vdW  Elec       q    Type
REMARK                         _______ _______ _______ _____ _____    ______ ____
ROOT
ATOM      1  C   UNL     1      19.374   4.716  40.165  0.00  0.00    +0.000 C 
ATOM      2  N   UNL     1      19.456   3.763  40.995  0.00  0.00    +0.000 NA
ENDROOT
BRANCH   1   6
ATOM      3  C   UNL     1      17.003   8.217  40.907  0.00  0.00    +0.000 A 
ATOM      4  C   UNL     1      16.652   6.993  41.438  0.00  0.00    +0.000 A 
ATOM      5  C   UNL     1      17.429   5.878  41.187  0.00  0.00    +0.000 A 
ATOM      6  C   UNL     1      18.569   5.929  40.411  0.00  0.00    +0.000 A 
ATOM      7  C   UNL     1      18.914   7.157  39.885  0.00  0.00    +0.000 A 
ATOM      8  C   UNL     1      18.143   8.277  40.130  0.00  0.00    +0.000 A 
BRANCH   3  10
ATOM      9  C   UNL     1      16.342   9.840  42.630  0.00  0.00    +0.000 C 
ATOM     10  C   UNL     1      16.170   9.423  41.174  0.00  0.00    +0.000 C 
ENDBRANCH   3  10
ENDBRANCH   1   6
BRANCH   2  11
ATOM     11  N   UNL     1      20.210   2.596  40.797  0.00  0.00    +0.000 NA
ATOM     12  C   UNL     1      21.514   2.419  41.283  0.00  0.00    +0.000 C 
ATOM     13  O   UNL     1      22.043   3.355  41.934  0.00  0.00    +0.000 OA
BRANCH  12  14
ATOM     14  C   UNL     1      22.283   1.181  41.060  0.00  0.00    +0.000 A 
ATOM     15  C   UNL     1      23.600   0.943  41.287  0.00  0.00    +0.000 A 
ATOM     16  C   UNL     1      23.874  -0.362  40.929  0.00  0.00    +0.000 A 
ATOM     17  C   UNL     1      25.162  -1.104  40.985  0.00  0.00    +0.000 C 
ATOM     18  N   UNL     1      22.706  -0.865  40.496  0.00  0.00    +0.000 NA
ATOM     19  N   UNL     1      21.754   0.043  40.569  0.00  0.00    +0.000 NA
ENDBRANCH  12  14
ENDBRANCH   2  11
TORSDOF 4
ENDMDL
MODEL 10
REMARK VINA RESULT:      -5.7     17.770     19.087
REMARK  Name = 
REMARK  4 active torsions:
REMARK  status: ('A' for Active; 'I' for Inactive)
REMARK    1  A    between atoms: C_2  and  C_3
REMARK    2  A    between atoms: C_6  and  C_7
REMARK    3  A    between atoms: N_8  and  N_9
REMARK    4  A    between atoms: C_10  and  C_12
REMARK                            x       y       z     vdW  Elec       q    Type
REMARK                         _______ _______ _______ _____ _____    ______ ____
ROOT
ATOM      1  C   UNL     1      34.985   4.029  35.947  0.00  0.00    +0.000 C 
ATOM      2  N   UNL     1      33.918   3.484  35.540  0.00  0.00    +0.000 NA
ENDROOT
BRANCH   1   6
ATOM      3  C   UNL     1      35.578   8.278  36.094  0.00  0.00    +0.000 A 
ATOM      4  C   UNL     1      36.629   7.405  36.284  0.00  0.00    +0.000 A 
ATOM      5  C   UNL     1      36.417   6.040  36.234  0.00  0.00    +0.000 A 
ATOM      6  C   UNL     1      35.173   5.493  35.994  0.00  0.00    +0.000 A 
ATOM      7  C   UNL     1      34.128   6.373  35.804  0.00  0.00    +0.000 A 
ATOM      8  C   UNL     1      34.331   7.738  35.854  0.00  0.00    +0.000 A 
BRANCH   3  10
ATOM      9  C   UNL     1      34.495  10.468  35.825  0.00  0.00    +0.000 C 
ATOM     10  C   UNL     1      35.800   9.750  36.149  0.00  0.00    +0.000 C 
ENDBRANCH   3  10
ENDBRANCH   1   6
BRANCH   2  11
ATOM     11  N   UNL     1      33.702   2.098  35.480  0.00  0.00    +0.000 NA
ATOM     12  C   UNL     1      33.453   1.399  34.290  0.00  0.00    +0.000 C 
ATOM     13  O   UNL     1      33.419   2.044  33.211  0.00  0.00    +0.000 OA
BRANCH  12  14
ATOM     14  C   UNL     1      33.231  -0.058  34.256  0.00  0.00    +0.000 A 
ATOM     15  C   UNL     1      33.859  -0.999  33.507  0.00  0.00    +0.000 A 
ATOM     16  C   UNL     1      33.316  -2.231  33.812  0.00  0.00    +0.000 A 
ATOM     17  C   UNL     1      33.657  -3.572  33.266  0.00  0.00    +0.000 C 
ATOM     18  N   UNL     1      32.374  -1.986  34.739  0.00  0.00    +0.000 NA
ATOM     19  N   UNL     1      32.315  -0.698  35.009  0.00  0.00    +0.000 NA
ENDBRANCH  12  14
ENDBRANCH   2  11
TORSDOF 4
ENDMDL
