MODEL 1
REMARK VINA RESULT:      -5.9      0.000      0.000
REMARK  Name = 
REMARK  4 active torsions:
REMARK  status: ('A' for Active; 'I' for Inactive)
REMARK    1  A    between atoms: C_2  and  C_3
REMARK    2  A    between atoms: C_3  and  C_4
REMARK    3  A    between atoms: C_7  and  C_8
REMARK    4  A    between atoms: C_8  and  N_9
REMARK                            x       y       z     vdW  Elec       q    Type
REMARK                         _______ _______ _______ _____ _____    ______ ____
ROOT
ATOM      1  C   UNL     1      29.334  23.124  13.046  0.00  0.00    +0.000 A 
ATOM      2  N   UNL     1      29.412  23.626  11.804  0.00  0.00    +0.000 NA
ATOM      3  C   UNL     1      30.121  23.086  10.799  0.00  0.00    +0.000 A 
ATOM      4  C   UNL     1      30.823  21.923  11.074  0.00  0.00    +0.000 A 
ATOM      5  C   UNL     1      30.743  21.408  12.352  0.00  0.00    +0.000 A 
ATOM      6  N   UNL     1      31.486  20.215  12.594  0.00  0.00    +0.000 NA
ATOM      7  N   UNL     1      30.007  22.006  13.317  0.00  0.00    +0.000 NA
ENDROOT
BRANCH   1   8
ATOM      8  C   UNL     1      28.500  23.849  14.043  0.00  0.00    +0.000 C 
BRANCH   8  10
ATOM      9  C   UNL     1      26.371  22.872  13.290  0.00  0.00    +0.000 C 
ATOM     10  C   UNL     1      27.133  24.161  13.440  0.00  0.00    +0.000 C 
ENDBRANCH   8  10
ENDBRANCH   1   8
BRANCH   4  11
ATOM     11  C   UNL     1      31.634  21.252   9.999  0.00  0.00    +0.000 C 
BRANCH  11  12
ATOM     12  N   UNL     1      32.680  22.173   9.584  0.00  0.00    +0.000 N 
ATOM     13  C   UNL     1      33.616  22.584  10.445  0.00  0.00    +0.000 A 
ATOM     14  C   UNL     1      34.605  23.445  10.080  0.00  0.00    +0.000 A 
ATOM     15  C   UNL     1      34.681  23.929   8.806  0.00  0.00    +0.000 A 
ATOM     16  C   UNL     1      33.709  23.500   7.919  0.00  0.00    +0.000 A 
ATOM     17  C   UNL     1      32.735  22.640   8.314  0.00  0.00    +0.000 A 
ATOM     18  C   UNL     1      31.685  22.186   7.334  0.00  0.00    +0.000 C 
ENDBRANCH  11  12
ENDBRANCH   4  11
TORSDOF 4
ENDMDL
MODEL 2
REMARK VINA RESULT:      -5.6      2.024      6.209
REMARK  Name = 
REMARK  4 active torsions:
REMARK  status: ('A' for Active; 'I' for Inactive)
REMARK    1  A    between atoms: C_2  and  C_3
REMARK    2  A    between atoms: C_3  and  C_4
REMARK    3  A    between atoms: C_7  and  C_8
REMARK    4  A    between atoms: C_8  and  N_9
REMARK                            x       y       z     vdW  Elec       q    Type
REMARK                         _______ _______ _______ _____ _____    ______ ____
ROOT
ATOM      1  C   UNL     1      31.460  21.370   8.566  0.00  0.00    +0.000 A 
ATOM      2  N   UNL     1      30.983  22.600   8.810  0.00  0.00    +0.000 NA
ATOM      3  C   UNL     1      30.536  23.029  10.001  0.00  0.00    +0.000 A 
ATOM      4  C   UNL     1      30.573  22.128  11.054  0.00  0.00    +0.000 A 
ATOM      5  C   UNL     1      31.063  20.862  10.802  0.00  0.00    +0.000 A 
ATOM      6  N   UNL     1      31.077  19.964  11.909  0.00  0.00    +0.000 NA
ATOM      7  N   UNL     1      31.499  20.498   9.573  0.00  0.00    +0.000 NA
ENDROOT
BRANCH   1   8
ATOM      8  C   UNL     1      31.917  21.057   7.184  0.00  0.00    +0.000 C 
BRANCH   8  10
ATOM      9  C   UNL     1      30.511  21.771   5.296  0.00  0.00    +0.000 C 
ATOM     10  C   UNL     1      30.715  20.687   6.318  0.00  0.00    +0.000 C 
ENDBRANCH   8  10
ENDBRANCH   1   8
BRANCH   4  11
ATOM     11  C   UNL     1      30.099  22.535  12.421  0.00  0.00    +0.000 C 
BRANCH  11  12
ATOM     12  N   UNL     1      28.666  22.775  12.348  0.00  0.00    +0.000 N 
ATOM     13  C   UNL     1      27.910  22.152  11.440  0.00  0.00    +0.000 A 
ATOM     14  C   UNL     1      26.568  22.360  11.351  0.00  0.00    +0.000 A 
ATOM     15  C   UNL     1      25.934  23.225  12.197  0.00  0.00    +0.000 A 
ATOM     16  C   UNL     1      26.722  23.868  13.136  0.00  0.00    +0.000 A 
ATOM     17  C   UNL     1      28.059  23.638  13.197  0.00  0.00    +0.000 A 
ATOM     18  C   UNL     1      28.901  24.348  14.226  0.00  0.00    +0.000 C 
ENDBRANCH  11  12
ENDBRANCH   4  11
TORSDOF 4
ENDMDL
MODEL 3
REMARK VINA RESULT:      -5.6      1.257      2.586
REMARK  Name = 
REMARK  4 active torsions:
REMARK  status: ('A' for Active; 'I' for Inactive)
REMARK    1  A    between atoms: C_2  and  C_3
REMARK    2  A    between atoms: C_3  and  C_4
REMARK    3  A    between atoms: C_7  and  C_8
REMARK    4  A    between atoms: C_8  and  N_9
REMARK                            x       y       z     vdW  Elec       q    Type
REMARK                         _______ _______ _______ _____ _____    ______ ____
ROOT
ATOM      1  C   UNL     1      29.249  23.065  12.470  0.00  0.00    +0.000 A 
ATOM      2  N   UNL     1      29.617  23.560  11.279  0.00  0.00    +0.000 NA
ATOM      3  C   UNL     1      30.531  23.008  10.465  0.00  0.00    +0.000 A 
ATOM      4  C   UNL     1      31.137  21.838  10.895  0.00  0.00    +0.000 A 
ATOM      5  C   UNL     1      30.759  21.330  12.121  0.00  0.00    +0.000 A 
ATOM      6  N   UNL     1      31.413  20.130  12.530  0.00  0.00    +0.000 NA
ATOM      7  N   UNL     1      29.828  21.940  12.890  0.00  0.00    +0.000 NA
ENDROOT
BRANCH   1   8
ATOM      8  C   UNL     1      28.217  23.803  13.248  0.00  0.00    +0.000 C 
BRANCH   8  10
ATOM      9  C   UNL     1      26.078  23.832  12.032  0.00  0.00    +0.000 C 
ATOM     10  C   UNL     1      26.865  23.111  13.093  0.00  0.00    +0.000 C 
ENDBRANCH   8  10
ENDBRANCH   1   8
BRANCH   4  11
ATOM     11  C   UNL     1      32.165  21.154  10.037  0.00  0.00    +0.000 C 
BRANCH  11  12
ATOM     12  N   UNL     1      31.599  20.976   8.710  0.00  0.00    +0.000 N 
ATOM     13  C   UNL     1      30.603  20.110   8.498  0.00  0.00    +0.000 A 
ATOM     14  C   UNL     1      30.057  19.924   7.265  0.00  0.00    +0.000 A 
ATOM     15  C   UNL     1      30.510  20.624   6.184  0.00  0.00    +0.000 A 
ATOM     16  C   UNL     1      31.541  21.520   6.409  0.00  0.00    +0.000 A 
ATOM     17  C   UNL     1      32.064  21.681   7.652  0.00  0.00    +0.000 A 
ATOM     18  C   UNL     1      33.187  22.660   7.877  0.00  0.00    +0.000 C 
ENDBRANCH  11  12
ENDBRANCH   4  11
TORSDOF 4
ENDMDL
MODEL 4
REMARK VINA RESULT:      -5.3     26.123     28.570
REMARK  Name = 
REMARK  4 active torsions:
REMARK  status: ('A' for Active; 'I' for Inactive)
REMARK    1  A    between atoms: C_2  and  C_3
REMARK    2  A    between atoms: C_3  and  C_4
REMARK    3  A    between atoms: C_7  and  C_8
REMARK    4  A    between atoms: C_8  and  N_9
REMARK                            x       y       z     vdW  Elec       q    Type
REMARK                         _______ _______ _______ _____ _____    ______ ____
ROOT
ATOM      1  C   UNL     1      20.460  19.290  38.470  0.00  0.00    +0.000 A 
ATOM      2  N   UNL     1      19.144  19.488  38.300  0.00  0.00    +0.000 NA
ATOM      3  C   UNL     1      18.603  20.452  37.538  0.00  0.00    +0.000 A 
ATOM      4  C   UNL     1      19.477  21.305  36.881  0.00  0.00    +0.000 A 
ATOM      5  C   UNL     1      20.830  21.102  37.058  0.00  0.00    +0.000 A 
ATOM      6  N   UNL     1      21.694  22.005  36.371  0.00  0.00    +0.000 NA
ATOM      7  N   UNL     1      21.306  20.106  37.842  0.00  0.00    +0.000 NA
ENDROOT
BRANCH   1   8
ATOM      8  C   UNL     1      20.892  18.171  39.351  0.00  0.00    +0.000 C 
BRANCH   8  10
ATOM      9  C   UNL     1      20.096  15.843  39.307  0.00  0.00    +0.000 C 
ATOM     10  C   UNL     1      19.704  17.257  39.640  0.00  0.00    +0.000 C 
ENDBRANCH   8  10
ENDBRANCH   1   8
BRANCH   4  11
ATOM     11  C   UNL     1      18.949  22.405  36.003  0.00  0.00    +0.000 C 
BRANCH  11  12
ATOM     12  N   UNL     1      18.224  21.793  34.901  0.00  0.00    +0.000 N 
ATOM     13  C   UNL     1      18.833  20.957  34.056  0.00  0.00    +0.000 A 
ATOM     14  C   UNL     1      18.176  20.373  33.016  0.00  0.00    +0.000 A 
ATOM     15  C   UNL     1      16.852  20.621  32.795  0.00  0.00    +0.000 A 
ATOM     16  C   UNL     1      16.225  21.488  33.673  0.00  0.00    +0.000 A 
ATOM     17  C   UNL     1      16.910  22.054  34.700  0.00  0.00    +0.000 A 
ATOM     18  C   UNL     1      16.210  22.997  35.645  0.00  0.00    +0.000 C 
ENDBRANCH  11  12
ENDBRANCH   4  11
TORSDOF 4
ENDMDL
MODEL 5
REMARK VINA RESULT:      -5.3      9.764     13.429
REMARK  Name = 
REMARK  4 active torsions:
REMARK  status: ('A' for Active; 'I' for Inactive)
REMARK    1  A    between atoms: C_2  and  C_3
REMARK    2  A    between atoms: C_3  and  C_4
REMARK    3  A    between atoms: C_7  and  C_8
REMARK    4  A    between atoms: C_8  and  N_9
REMARK                            x       y       z     vdW  Elec       q    Type
REMARK                         _______ _______ _______ _____ _____    ______ ____
ROOT
ATOM      1  C   UNL     1      29.164  26.596  20.927  0.00  0.00    +0.000 A 
ATOM      2  N   UNL     1      29.463  25.314  20.664  0.00  0.00    +0.000 NA
ATOM      3  C   UNL     1      29.002  24.259  21.355  0.00  0.00    +0.000 A 
ATOM      4  C   UNL     1      28.155  24.522  22.421  0.00  0.00    +0.000 A 
ATOM      5  C   UNL     1      27.849  25.841  22.692  0.00  0.00    +0.000 A 
ATOM      6  N   UNL     1      26.982  26.068  23.800  0.00  0.00    +0.000 NA
ATOM      7  N   UNL     1      28.351  26.856  21.950  0.00  0.00    +0.000 NA
ENDROOT
BRANCH   1   8
ATOM      8  C   UNL     1      29.762  27.646  20.059  0.00  0.00    +0.000 C 
BRANCH   8  10
ATOM      9  C   UNL     1      31.328  27.831  18.170  0.00  0.00    +0.000 C 
ATOM     10  C   UNL     1      30.178  27.034  18.724  0.00  0.00    +0.000 C 
ENDBRANCH   8  10
ENDBRANCH   1   8
BRANCH   4  11
ATOM     11  C   UNL     1      27.589  23.395  23.239  0.00  0.00    +0.000 C 
BRANCH  11  12
ATOM     12  N   UNL     1      28.550  23.068  24.281  0.00  0.00    +0.000 N 
ATOM     13  C   UNL     1      29.854  22.967  24.007  0.00  0.00    +0.000 A 
ATOM     14  C   UNL     1      30.773  22.662  24.964  0.00  0.00    +0.000 A 
ATOM     15  C   UNL     1      30.393  22.444  26.257  0.00  0.00    +0.000 A 
ATOM     16  C   UNL     1      29.041  22.550  26.536  0.00  0.00    +0.000 A 
ATOM     17  C   UNL     1      28.151  22.856  25.558  0.00  0.00    +0.000 A 
ATOM     18  C   UNL     1      26.683  22.965  25.880  0.00  0.00    +0.000 C 
ENDBRANCH  11  12
ENDBRANCH   4  11
TORSDOF 4
ENDMDL
MODEL 6
REMARK VINA RESULT:      -5.3     34.279     36.796
REMARK  Name = 
REMARK  4 active torsions:
REMARK  status: ('A' for Active; 'I' for Inactive)
REMARK    1  A    between atoms: C_2  and  C_3
REMARK    2  A    between atoms: C_3  and  C_4
REMARK    3  A    between atoms: C_7  and  C_8
REMARK    4  A    between atoms: C_8  and  N_9
REMARK                            x       y       z     vdW  Elec       q    Type
REMARK                         _______ _______ _______ _____ _____    ______ ____
ROOT
ATOM      1  C   UNL     1      21.188  -6.813  25.137  0.00  0.00    +0.000 A 
ATOM      2  N   UNL     1      20.631  -8.031  25.069  0.00  0.00    +0.000 NA
ATOM      3  C   UNL     1      19.378  -8.326  25.453  0.00  0.00    +0.000 A 
ATOM      4  C   UNL     1      18.609  -7.288  25.957  0.00  0.00    +0.000 A 
ATOM      5  C   UNL     1      19.184  -6.036  26.028  0.00  0.00    +0.000 A 
ATOM      6  N   UNL     1      18.363  -4.999  26.559  0.00  0.00    +0.000 NA
ATOM      7  N   UNL     1      20.456  -5.810  25.621  0.00  0.00    +0.000 NA
ENDROOT
BRANCH   1   8
ATOM      8  C   UNL     1      22.592  -6.658  24.668  0.00  0.00    +0.000 C 
BRANCH   8  10
ATOM      9  C   UNL     1      24.076  -7.526  22.907  0.00  0.00    +0.000 C 
ATOM     10  C   UNL     1      22.683  -7.030  23.190  0.00  0.00    +0.000 C 
ENDBRANCH   8  10
ENDBRANCH   1   8
BRANCH   4  11
ATOM     11  C   UNL     1      17.194  -7.535  26.400  0.00  0.00    +0.000 C 
BRANCH  11  12
ATOM     12  N   UNL     1      17.204  -8.642  27.344  0.00  0.00    +0.000 N 
ATOM     13  C   UNL     1      17.939  -8.588  28.458  0.00  0.00    +0.000 A 
ATOM     14  C   UNL     1      17.965  -9.611  29.357  0.00  0.00    +0.000 A 
ATOM     15  C   UNL     1      17.233 -10.744  29.151  0.00  0.00    +0.000 A 
ATOM     16  C   UNL     1      16.473 -10.795  27.995  0.00  0.00    +0.000 A 
ATOM     17  C   UNL     1      16.469  -9.757  27.119  0.00  0.00    +0.000 A 
ATOM     18  C   UNL     1      15.637  -9.831  25.865  0.00  0.00    +0.000 C 
ENDBRANCH  11  12
ENDBRANCH   4  11
TORSDOF 4
ENDMDL
MODEL 7
REMARK VINA RESULT:      -5.3     34.133     36.675
REMARK  Name = 
REMARK  4 active torsions:
REMARK  status: ('A' for Active; 'I' for Inactive)
REMARK    1  A    between atoms: C_2  and  C_3
REMARK    2  A    between atoms: C_3  and  C_4
REMARK    3  A    between atoms: C_7  and  C_8
REMARK    4  A    between atoms: C_8  and  N_9
REMARK                            x       y       z     vdW  Elec       q    Type
REMARK                         _______ _______ _______ _____ _____    ______ ____
ROOT
ATOM      1  C   UNL     1      21.247  -6.810  25.309  0.00  0.00    +0.000 A 
ATOM      2  N   UNL     1      20.984  -8.012  25.845  0.00  0.00    +0.000 NA
ATOM      3  C   UNL     1      19.895  -8.308  26.572  0.00  0.00    +0.000 A 
ATOM      4  C   UNL     1      18.978  -7.290  26.782  0.00  0.00    +0.000 A 
ATOM      5  C   UNL     1      19.250  -6.054  26.231  0.00  0.00    +0.000 A 
ATOM      6  N   UNL     1      18.285  -5.033  26.477  0.00  0.00    +0.000 NA
ATOM      7  N   UNL     1      20.370  -5.826  25.507  0.00  0.00    +0.000 NA
ENDROOT
BRANCH   1   8
ATOM      8  C   UNL     1      22.504  -6.652  24.527  0.00  0.00    +0.000 C 
BRANCH   8  10
ATOM      9  C   UNL     1      23.293  -8.425  23.014  0.00  0.00    +0.000 C 
ATOM     10  C   UNL     1      22.330  -7.275  23.145  0.00  0.00    +0.000 C 
ENDBRANCH   8  10
ENDBRANCH   1   8
BRANCH   4  11
ATOM     11  C   UNL     1      17.728  -7.544  27.578  0.00  0.00    +0.000 C 
BRANCH  11  12
ATOM     12  N   UNL     1      16.858  -8.402  26.791  0.00  0.00    +0.000 N 
ATOM     13  C   UNL     1      16.298  -7.962  25.660  0.00  0.00    +0.000 A 
ATOM     14  C   UNL     1      15.479  -8.745  24.906  0.00  0.00    +0.000 A 
ATOM     15  C   UNL     1      15.194 -10.027  25.280  0.00  0.00    +0.000 A 
ATOM     16  C   UNL     1      15.776 -10.478  26.452  0.00  0.00    +0.000 A 
ATOM     17  C   UNL     1      16.588  -9.670  27.181  0.00  0.00    +0.000 A 
ATOM     18  C   UNL     1      17.212 -10.179  28.456  0.00  0.00    +0.000 C 
ENDBRANCH  11  12
ENDBRANCH   4  11
TORSDOF 4
ENDMDL
MODEL 8
REMARK VINA RESULT:      -5.2     11.220     15.320
REMARK  Name = 
REMARK  4 active torsions:
REMARK  status: ('A' for Active; 'I' for Inactive)
REMARK    1  A    between atoms: C_2  and  C_3
REMARK    2  A    between atoms: C_3  and  C_4
REMARK    3  A    between atoms: C_7  and  C_8
REMARK    4  A    between atoms: C_8  and  N_9
REMARK                            x       y       z     vdW  Elec       q    Type
REMARK                         _______ _______ _______ _____ _____    ______ ____
ROOT
ATOM      1  C   UNL     1      28.429  24.676  22.092  0.00  0.00    +0.000 A 
ATOM      2  N   UNL     1      28.866  24.656  23.361  0.00  0.00    +0.000 NA
ATOM      3  C   UNL     1      28.219  24.082  24.388  0.00  0.00    +0.000 A 
ATOM      4  C   UNL     1      27.009  23.466  24.109  0.00  0.00    +0.000 A 
ATOM      5  C   UNL     1      26.560  23.488  22.805  0.00  0.00    +0.000 A 
ATOM      6  N   UNL     1      25.307  22.851  22.563  0.00  0.00    +0.000 NA
ATOM      7  N   UNL     1      27.266  24.086  21.817  0.00  0.00    +0.000 NA
ENDROOT
BRANCH   1   8
ATOM      8  C   UNL     1      29.272  25.356  21.072  0.00  0.00    +0.000 C 
BRANCH   8  10
ATOM      9  C   UNL     1      29.679  27.470  19.880  0.00  0.00    +0.000 C 
ATOM     10  C   UNL     1      28.891  26.832  20.993  0.00  0.00    +0.000 C 
ENDBRANCH   8  10
ENDBRANCH   1   8
BRANCH   4  11
ATOM     11  C   UNL     1      26.227  22.794  25.204  0.00  0.00    +0.000 C 
BRANCH  11  12
ATOM     12  N   UNL     1      25.879  23.801  26.193  0.00  0.00    +0.000 N 
ATOM     13  C   UNL     1      25.018  24.781  25.903  0.00  0.00    +0.000 A 
ATOM     14  C   UNL     1      24.676  25.736  26.811  0.00  0.00    +0.000 A 
ATOM     15  C   UNL     1      25.206  25.730  28.069  0.00  0.00    +0.000 A 
ATOM     16  C   UNL     1      26.098  24.713  28.365  0.00  0.00    +0.000 A 
ATOM     17  C   UNL     1      26.417  23.776  27.436  0.00  0.00    +0.000 A 
ATOM     18  C   UNL     1      27.391  22.677  27.776  0.00  0.00    +0.000 C 
ENDBRANCH  11  12
ENDBRANCH   4  11
TORSDOF 4
ENDMDL
MODEL 9
REMARK VINA RESULT:      -5.2     11.163     15.151
REMARK  Name = 
REMARK  4 active torsions:
REMARK  status: ('A' for Active; 'I' for Inactive)
REMARK    1  A    between atoms: C_2  and  C_3
REMARK    2  A    between atoms: C_3  and  C_4
REMARK    3  A    between atoms: C_7  and  C_8
REMARK    4  A    between atoms: C_8  and  N_9
REMARK                            x       y       z     vdW  Elec       q    Type
REMARK                         _______ _______ _______ _____ _____    ______ ____
ROOT
ATOM      1  C   UNL     1      28.261  26.306  22.424  0.00  0.00    +0.000 A 
ATOM      2  N   UNL     1      27.892  26.700  23.653  0.00  0.00    +0.000 NA
ATOM      3  C   UNL     1      27.040  26.035  24.450  0.00  0.00    +0.000 A 
ATOM      4  C   UNL     1      26.504  24.855  23.958  0.00  0.00    +0.000 A 
ATOM      5  C   UNL     1      26.883  24.452  22.694  0.00  0.00    +0.000 A 
ATOM      6  N   UNL     1      26.303  23.237  22.224  0.00  0.00    +0.000 NA
ATOM      7  N   UNL     1      27.750  25.173  21.945  0.00  0.00    +0.000 NA
ENDROOT
BRANCH   1   8
ATOM      8  C   UNL     1      29.220  27.163  21.673  0.00  0.00    +0.000 C 
BRANCH   8  10
ATOM      9  C   UNL     1      29.798  27.528  19.310  0.00  0.00    +0.000 C 
ATOM     10  C   UNL     1      29.608  26.475  20.367  0.00  0.00    +0.000 C 
ENDBRANCH   8  10
ENDBRANCH   1   8
BRANCH   4  11
ATOM     11  C   UNL     1      25.548  24.048  24.793  0.00  0.00    +0.000 C 
BRANCH  11  12
ATOM     12  N   UNL     1      26.267  23.564  25.960  0.00  0.00    +0.000 N 
ATOM     13  C   UNL     1      27.271  22.691  25.837  0.00  0.00    +0.000 A 
ATOM     14  C   UNL     1      27.959  22.222  26.914  0.00  0.00    +0.000 A 
ATOM     15  C   UNL     1      27.646  22.630  28.178  0.00  0.00    +0.000 A 
ATOM     16  C   UNL     1      26.605  23.535  28.301  0.00  0.00    +0.000 A 
ATOM     17  C   UNL     1      25.939  23.983  27.206  0.00  0.00    +0.000 A 
ATOM     18  C   UNL     1      24.808  24.966  27.360  0.00  0.00    +0.000 C 
ENDBRANCH  11  12
ENDBRANCH   4  11
TORSDOF 4
ENDMDL
MODEL 10
REMARK VINA RESULT:      -5.2     11.425     13.874
REMARK  Name = 
REMARK  4 active torsions:
REMARK  status: ('A' for Active; 'I' for Inactive)
REMARK    1  A    between atoms: C_2  and  C_3
REMARK    2  A    between atoms: C_3  and  C_4
REMARK    3  A    between atoms: C_7  and  C_8
REMARK    4  A    between atoms: C_8  and  N_9
REMARK                            x       y       z     vdW  Elec       q    Type
REMARK                         _______ _______ _______ _____ _____    ______ ____
ROOT
ATOM      1  C   UNL     1      28.973  27.554  22.474  0.00  0.00    +0.000 A 
ATOM      2  N   UNL     1      28.159  27.175  23.471  0.00  0.00    +0.000 NA
ATOM      3  C   UNL     1      27.793  25.908  23.726  0.00  0.00    +0.000 A 
ATOM      4  C   UNL     1      28.298  24.923  22.891  0.00  0.00    +0.000 A 
ATOM      5  C   UNL     1      29.135  25.314  21.865  0.00  0.00    +0.000 A 
ATOM      6  N   UNL     1      29.626  24.272  21.026  0.00  0.00    +0.000 NA
ATOM      7  N   UNL     1      29.462  26.613  21.668  0.00  0.00    +0.000 NA
ENDROOT
BRANCH   1   8
ATOM      8  C   UNL     1      29.278  29.004  22.332  0.00  0.00    +0.000 C 
BRANCH   8  10
ATOM      9  C   UNL     1      29.944  29.743  20.082  0.00  0.00    +0.000 C 
ATOM     10  C   UNL     1      28.765  29.507  20.986  0.00  0.00    +0.000 C 
ENDBRANCH   8  10
ENDBRANCH   1   8
BRANCH   4  11
ATOM     11  C   UNL     1      27.943  23.480  23.116  0.00  0.00    +0.000 C 
BRANCH  11  12
ATOM     12  N   UNL     1      28.583  23.044  24.347  0.00  0.00    +0.000 N 
ATOM     13  C   UNL     1      29.910  22.906  24.420  0.00  0.00    +0.000 A 
ATOM     14  C   UNL     1      30.532  22.498  25.561  0.00  0.00    +0.000 A 
ATOM     15  C   UNL     1      29.816  22.212  26.687  0.00  0.00    +0.000 A 
ATOM     16  C   UNL     1      28.442  22.357  26.606  0.00  0.00    +0.000 A 
ATOM     17  C   UNL     1      27.852  22.765  25.453  0.00  0.00    +0.000 A 
ATOM     18  C   UNL     1      26.354  22.916  25.383  0.00  0.00    +0.000 C 
ENDBRANCH  11  12
ENDBRANCH   4  11
TORSDOF 4
ENDMDL
