MODEL 1
REMARK VINA RESULT:      -8.2      0.000      0.000
REMARK  Name = 
REMARK  7 active torsions:
REMARK  status: ('A' for Active; 'I' for Inactive)
REMARK    1  A    between atoms: C_5  and  S_6
REMARK    2  A    between atoms: S_6  and  N_9
REMARK    3  A    between atoms: N_9  and  C_10
REMARK    4  A    between atoms: C_10  and  C_11
REMARK    5  A    between atoms: N_16  and  C_17
REMARK    6  A    between atoms: C_17  and  C_18
REMARK    7  A    between atoms: C_24  and  N_25
REMARK                            x       y       z     vdW  Elec       q    Type
REMARK                         _______ _______ _______ _____ _____    ______ ____
ROOT
ATOM      1  C   UNL     1      39.184   1.415  14.432  0.00  0.00    +0.000 A 
ATOM      2  C   UNL     1      40.082   0.241  14.322  0.00  0.00    +0.000 A 
ATOM      3  C   UNL     1      41.493   0.319  13.919  0.00  0.00    +0.000 C 
ATOM      4  C   UNL     1      39.304  -0.818  14.645  0.00  0.00    +0.000 A 
ATOM      5  C   UNL     1      39.784  -2.242  14.687  0.00  0.00    +0.000 C 
ATOM      6  N   UNL     1      38.060  -0.449  14.930  0.00  0.00    +0.000 N 
ATOM      7  C   UNL     1      38.017   0.906  14.801  0.00  0.00    +0.000 A 
ENDROOT
BRANCH   7   8
ATOM      8  N   UNL     1      36.782   1.583  15.108  0.00  0.00    +0.000 N 
ATOM      9  C   UNL     1      36.507   2.187  16.240  0.00  0.00    +0.000 A 
ATOM     10  C   UNL     1      35.261   2.823  16.094  0.00  0.00    +0.000 A 
ATOM     11  C   UNL     1      34.829   2.542  14.817  0.00  0.00    +0.000 A 
ATOM     12  C   UNL     1      35.815   1.751  14.204  0.00  0.00    +0.000 A 
ENDBRANCH   7   8
BRANCH   1  13
ATOM     13  C   UNL     1      39.926   2.669  14.207  0.00  0.00    +0.000 C 
BRANCH  13  14
ATOM     14  N   UNL     1      39.299   3.737  13.528  0.00  0.00    +0.000 NA
BRANCH  14  15
ATOM     15  S   UNL     1      38.814   4.958  14.558  0.00  0.00    +0.000 S 
ATOM     16  O   UNL     1      39.391   6.316  13.905  0.00  0.00    +0.000 OA
ATOM     17  O   UNL     1      37.288   5.183  14.467  0.00  0.00    +0.000 OA
BRANCH  15  22
ATOM     18  C   UNL     1      40.579   6.516  20.073  0.00  0.00    +0.000 C 
ATOM     19  C   UNL     1      40.161   5.999  18.723  0.00  0.00    +0.000 A 
ATOM     20  C   UNL     1      40.819   6.331  17.596  0.00  0.00    +0.000 A 
ATOM     21  C   UNL     1      40.453   5.948  16.381  0.00  0.00    +0.000 A 
ATOM     22  C   UNL     1      39.304   5.132  16.203  0.00  0.00    +0.000 A 
ATOM     23  C   UNL     1      38.614   4.751  17.302  0.00  0.00    +0.000 A 
ATOM     24  C   UNL     1      39.014   5.172  18.592  0.00  0.00    +0.000 A 
ENDBRANCH  15  22
ENDBRANCH  14  15
ENDBRANCH  13  14
ENDBRANCH   1  13
BRANCH   6  25
ATOM     25  C   UNL     1      36.950  -1.379  15.251  0.00  0.00    +0.000 C 
BRANCH  25  26
ATOM     26  C   UNL     1      36.836  -1.273  16.778  0.00  0.00    +0.000 A 
ATOM     27  C   UNL     1      37.825  -1.573  17.627  0.00  0.00    +0.000 A 
ATOM     28  C   UNL     1      37.655  -1.503  19.037  0.00  0.00    +0.000 A 
ATOM     29  C   UNL     1      36.425  -1.107  19.567  0.00  0.00    +0.000 A 
ATOM     30  C   UNL     1      35.409  -0.796  18.704  0.00  0.00    +0.000 A 
ATOM     31  C   UNL     1      35.585  -0.870  17.284  0.00  0.00    +0.000 A 
ENDBRANCH  25  26
ENDBRANCH   6  25
TORSDOF 7
ENDMDL
MODEL 2
REMARK VINA RESULT:      -8.1      1.505      3.741
REMARK  Name = 
REMARK  7 active torsions:
REMARK  status: ('A' for Active; 'I' for Inactive)
REMARK    1  A    between atoms: C_5  and  S_6
REMARK    2  A    between atoms: S_6  and  N_9
REMARK    3  A    between atoms: N_9  and  C_10
REMARK    4  A    between atoms: C_10  and  C_11
REMARK    5  A    between atoms: N_16  and  C_17
REMARK    6  A    between atoms: C_17  and  C_18
REMARK    7  A    between atoms: C_24  and  N_25
REMARK                            x       y       z     vdW  Elec       q    Type
REMARK                         _______ _______ _______ _____ _____    ______ ____
ROOT
ATOM      1  C   UNL     1      36.863   0.514  15.517  0.00  0.00    +0.000 A 
ATOM      2  C   UNL     1      35.569   0.541  16.239  0.00  0.00    +0.000 A 
ATOM      3  C   UNL     1      34.837   1.772  16.570  0.00  0.00    +0.000 C 
ATOM      4  C   UNL     1      35.293  -0.758  16.499  0.00  0.00    +0.000 A 
ATOM      5  C   UNL     1      34.059  -1.236  17.214  0.00  0.00    +0.000 C 
ATOM      6  N   UNL     1      36.241  -1.566  16.040  0.00  0.00    +0.000 N 
ATOM      7  C   UNL     1      37.174  -0.773  15.444  0.00  0.00    +0.000 A 
ENDROOT
BRANCH   7   8
ATOM      8  N   UNL     1      38.301  -1.405  14.806  0.00  0.00    +0.000 N 
ATOM      9  C   UNL     1      38.327  -1.844  13.570  0.00  0.00    +0.000 A 
ATOM     10  C   UNL     1      39.638  -2.275  13.296  0.00  0.00    +0.000 A 
ATOM     11  C   UNL     1      40.363  -2.068  14.449  0.00  0.00    +0.000 A 
ATOM     12  C   UNL     1      39.492  -1.510  15.399  0.00  0.00    +0.000 A 
ENDBRANCH   7   8
BRANCH   1  13
ATOM     13  C   UNL     1      37.246   1.865  15.072  0.00  0.00    +0.000 C 
BRANCH  13  14
ATOM     14  N   UNL     1      38.572   2.313  15.267  0.00  0.00    +0.000 NA
BRANCH  14  15
ATOM     15  S   UNL     1      38.710   3.974  15.180  0.00  0.00    +0.000 S 
ATOM     16  O   UNL     1      39.805   4.248  14.028  0.00  0.00    +0.000 OA
ATOM     17  O   UNL     1      37.438   4.602  14.568  0.00  0.00    +0.000 OA
BRANCH  15  22
ATOM     18  C   UNL     1      40.692   6.719  20.129  0.00  0.00    +0.000 C 
ATOM     19  C   UNL     1      40.172   6.151  18.837  0.00  0.00    +0.000 A 
ATOM     20  C   UNL     1      39.059   5.394  18.785  0.00  0.00    +0.000 A 
ATOM     21  C   UNL     1      38.598   4.825  17.681  0.00  0.00    +0.000 A 
ATOM     22  C   UNL     1      39.281   4.996  16.447  0.00  0.00    +0.000 A 
ATOM     23  C   UNL     1      40.395   5.764  16.435  0.00  0.00    +0.000 A 
ATOM     24  C   UNL     1      40.878   6.360  17.623  0.00  0.00    +0.000 A 
ENDBRANCH  15  22
ENDBRANCH  14  15
ENDBRANCH  13  14
ENDBRANCH   1  13
BRANCH   6  25
ATOM     25  C   UNL     1      36.268  -3.037  16.227  0.00  0.00    +0.000 C 
BRANCH  25  26
ATOM     26  C   UNL     1      37.135  -3.213  17.482  0.00  0.00    +0.000 A 
ATOM     27  C   UNL     1      37.151  -2.357  18.509  0.00  0.00    +0.000 A 
ATOM     28  C   UNL     1      38.005  -2.540  19.631  0.00  0.00    +0.000 A 
ATOM     29  C   UNL     1      38.858  -3.646  19.678  0.00  0.00    +0.000 A 
ATOM     30  C   UNL     1      38.846  -4.527  18.631  0.00  0.00    +0.000 A 
ATOM     31  C   UNL     1      37.984  -4.337  17.502  0.00  0.00    +0.000 A 
ENDBRANCH  25  26
ENDBRANCH   6  25
TORSDOF 7
ENDMDL
MODEL 3
REMARK VINA RESULT:      -7.8      1.757      3.900
REMARK  Name = 
REMARK  7 active torsions:
REMARK  status: ('A' for Active; 'I' for Inactive)
REMARK    1  A    between atoms: C_5  and  S_6
REMARK    2  A    between atoms: S_6  and  N_9
REMARK    3  A    between atoms: N_9  and  C_10
REMARK    4  A    between atoms: C_10  and  C_11
REMARK    5  A    between atoms: N_16  and  C_17
REMARK    6  A    between atoms: C_17  and  C_18
REMARK    7  A    between atoms: C_24  and  N_25
REMARK                            x       y       z     vdW  Elec       q    Type
REMARK                         _______ _______ _______ _____ _____    ______ ____
ROOT
ATOM      1  C   UNL     1      37.228   0.701  15.552  0.00  0.00    +0.000 A 
ATOM      2  C   UNL     1      36.238   1.066  16.594  0.00  0.00    +0.000 A 
ATOM      3  C   UNL     1      35.625   2.395  16.716  0.00  0.00    +0.000 C 
ATOM      4  C   UNL     1      36.093  -0.055  17.337  0.00  0.00    +0.000 A 
ATOM      5  C   UNL     1      35.170  -0.175  18.518  0.00  0.00    +0.000 C 
ATOM      6  N   UNL     1      36.859  -1.045  16.894  0.00  0.00    +0.000 N 
ATOM      7  C   UNL     1      37.529  -0.565  15.811  0.00  0.00    +0.000 A 
ENDROOT
BRANCH   7   8
ATOM      8  N   UNL     1      38.402  -1.460  15.094  0.00  0.00    +0.000 N 
ATOM      9  C   UNL     1      38.158  -1.977  13.913  0.00  0.00    +0.000 A 
ATOM     10  C   UNL     1      39.302  -2.691  13.513  0.00  0.00    +0.000 A 
ATOM     11  C   UNL     1      40.216  -2.562  14.536  0.00  0.00    +0.000 A 
ATOM     12  C   UNL     1      39.623  -1.771  15.534  0.00  0.00    +0.000 A 
ENDBRANCH   7   8
BRANCH   1  13
ATOM     13  C   UNL     1      37.414   1.804  14.592  0.00  0.00    +0.000 C 
BRANCH  13  14
ATOM     14  N   UNL     1      38.660   2.466  14.525  0.00  0.00    +0.000 NA
BRANCH  14  15
ATOM     15  S   UNL     1      38.526   4.115  14.745  0.00  0.00    +0.000 S 
ATOM     16  O   UNL     1      39.389   4.772  13.551  0.00  0.00    +0.000 OA
ATOM     17  O   UNL     1      37.097   4.601  14.413  0.00  0.00    +0.000 OA
BRANCH  15  22
ATOM     18  C   UNL     1      40.584   6.292  19.939  0.00  0.00    +0.000 C 
ATOM     19  C   UNL     1      40.040   5.871  18.601  0.00  0.00    +0.000 A 
ATOM     20  C   UNL     1      38.948   5.092  18.487  0.00  0.00    +0.000 A 
ATOM     21  C   UNL     1      38.468   4.649  17.334  0.00  0.00    +0.000 A 
ATOM     22  C   UNL     1      39.107   4.991  16.112  0.00  0.00    +0.000 A 
ATOM     23  C   UNL     1      40.199   5.789  16.164  0.00  0.00    +0.000 A 
ATOM     24  C   UNL     1      40.702   6.250  17.403  0.00  0.00    +0.000 A 
ENDBRANCH  15  22
ENDBRANCH  14  15
ENDBRANCH  13  14
ENDBRANCH   1  13
BRANCH   6  25
ATOM     25  C   UNL     1      36.980  -2.378  17.534  0.00  0.00    +0.000 C 
BRANCH  25  26
ATOM     26  C   UNL     1      36.149  -3.284  16.616  0.00  0.00    +0.000 A 
ATOM     27  C   UNL     1      36.619  -4.391  16.030  0.00  0.00    +0.000 A 
ATOM     28  C   UNL     1      35.822  -5.175  15.151  0.00  0.00    +0.000 A 
ATOM     29  C   UNL     1      34.506  -4.791  14.882  0.00  0.00    +0.000 A 
ATOM     30  C   UNL     1      34.018  -3.661  15.480  0.00  0.00    +0.000 A 
ATOM     31  C   UNL     1      34.825  -2.874  16.364  0.00  0.00    +0.000 A 
ENDBRANCH  25  26
ENDBRANCH   6  25
TORSDOF 7
ENDMDL
MODEL 4
REMARK VINA RESULT:      -7.6      1.800      2.532
REMARK  Name = 
REMARK  7 active torsions:
REMARK  status: ('A' for Active; 'I' for Inactive)
REMARK    1  A    between atoms: C_5  and  S_6
REMARK    2  A    between atoms: S_6  and  N_9
REMARK    3  A    between atoms: N_9  and  C_10
REMARK    4  A    between atoms: C_10  and  C_11
REMARK    5  A    between atoms: N_16  and  C_17
REMARK    6  A    between atoms: C_17  and  C_18
REMARK    7  A    between atoms: C_24  and  N_25
REMARK                            x       y       z     vdW  Elec       q    Type
REMARK                         _______ _______ _______ _____ _____    ______ ____
ROOT
ATOM      1  C   UNL     1      38.764   0.222  14.853  0.00  0.00    +0.000 A 
ATOM      2  C   UNL     1      39.834  -0.785  14.654  0.00  0.00    +0.000 A 
ATOM      3  C   UNL     1      40.960  -0.615  13.726  0.00  0.00    +0.000 C 
ATOM      4  C   UNL     1      39.498  -1.809  15.472  0.00  0.00    +0.000 A 
ATOM      5  C   UNL     1      40.302  -3.071  15.624  0.00  0.00    +0.000 C 
ATOM      6  N   UNL     1      38.373  -1.565  16.134  0.00  0.00    +0.000 N 
ATOM      7  C   UNL     1      37.954  -0.328  15.748  0.00  0.00    +0.000 A 
ENDROOT
BRANCH   7   8
ATOM      8  N   UNL     1      36.768   0.214  16.361  0.00  0.00    +0.000 N 
ATOM      9  C   UNL     1      35.673   0.559  15.725  0.00  0.00    +0.000 A 
ATOM     10  C   UNL     1      34.715   0.922  16.689  0.00  0.00    +0.000 A 
ATOM     11  C   UNL     1      35.324   0.776  17.916  0.00  0.00    +0.000 A 
ATOM     12  C   UNL     1      36.633   0.322  17.684  0.00  0.00    +0.000 A 
ENDBRANCH   7   8
BRANCH   1  13
ATOM     13  C   UNL     1      39.051   1.453  14.096  0.00  0.00    +0.000 C 
BRANCH  13  14
ATOM     14  N   UNL     1      37.990   2.162  13.490  0.00  0.00    +0.000 NA
BRANCH  14  15
ATOM     15  S   UNL     1      37.627   3.583  14.285  0.00  0.00    +0.000 S 
ATOM     16  O   UNL     1      38.197   4.757  13.337  0.00  0.00    +0.000 OA
ATOM     17  O   UNL     1      36.106   3.858  14.257  0.00  0.00    +0.000 OA
BRANCH  15  22
ATOM     18  C   UNL     1      39.737   6.129  19.288  0.00  0.00    +0.000 C 
ATOM     19  C   UNL     1      39.247   5.373  18.082  0.00  0.00    +0.000 A 
ATOM     20  C   UNL     1      39.765   5.573  16.855  0.00  0.00    +0.000 A 
ATOM     21  C   UNL     1      39.326   4.974  15.757  0.00  0.00    +0.000 A 
ATOM     22  C   UNL     1      38.247   4.053  15.825  0.00  0.00    +0.000 A 
ATOM     23  C   UNL     1      37.699   3.799  17.036  0.00  0.00    +0.000 A 
ATOM     24  C   UNL     1      38.175   4.450  18.198  0.00  0.00    +0.000 A 
ENDBRANCH  15  22
ENDBRANCH  14  15
ENDBRANCH  13  14
ENDBRANCH   1  13
BRANCH   6  25
ATOM     25  C   UNL     1      37.704  -2.518  17.052  0.00  0.00    +0.000 C 
BRANCH  25  26
ATOM     26  C   UNL     1      36.617  -3.149  16.170  0.00  0.00    +0.000 A 
ATOM     27  C   UNL     1      36.866  -3.839  15.051  0.00  0.00    +0.000 A 
ATOM     28  C   UNL     1      35.823  -4.367  14.243  0.00  0.00    +0.000 A 
ATOM     29  C   UNL     1      34.491  -4.170  14.616  0.00  0.00    +0.000 A 
ATOM     30  C   UNL     1      34.229  -3.466  15.760  0.00  0.00    +0.000 A 
ATOM     31  C   UNL     1      35.284  -2.935  16.571  0.00  0.00    +0.000 A 
ENDBRANCH  25  26
ENDBRANCH   6  25
TORSDOF 7
ENDMDL
MODEL 5
REMARK VINA RESULT:      -7.4      1.744      3.477
REMARK  Name = 
REMARK  7 active torsions:
REMARK  status: ('A' for Active; 'I' for Inactive)
REMARK    1  A    between atoms: C_5  and  S_6
REMARK    2  A    between atoms: S_6  and  N_9
REMARK    3  A    between atoms: N_9  and  C_10
REMARK    4  A    between atoms: C_10  and  C_11
REMARK    5  A    between atoms: N_16  and  C_17
REMARK    6  A    between atoms: C_17  and  C_18
REMARK    7  A    between atoms: C_24  and  N_25
REMARK                            x       y       z     vdW  Elec       q    Type
REMARK                         _______ _______ _______ _____ _____    ______ ____
ROOT
ATOM      1  C   UNL     1      36.407   2.061  15.511  0.00  0.00    +0.000 A 
ATOM      2  C   UNL     1      36.767   2.097  14.074  0.00  0.00    +0.000 A 
ATOM      3  C   UNL     1      37.030   3.332  13.322  0.00  0.00    +0.000 C 
ATOM      4  C   UNL     1      36.761   0.801  13.685  0.00  0.00    +0.000 A 
ATOM      5  C   UNL     1      37.082   0.332  12.293  0.00  0.00    +0.000 C 
ATOM      6  N   UNL     1      36.444  -0.013  14.685  0.00  0.00    +0.000 N 
ATOM      7  C   UNL     1      36.243   0.773  15.779  0.00  0.00    +0.000 A 
ENDROOT
BRANCH   7   8
ATOM      8  N   UNL     1      35.935   0.133  17.033  0.00  0.00    +0.000 N 
ATOM      9  C   UNL     1      34.869  -0.595  17.273  0.00  0.00    +0.000 A 
ATOM     10  C   UNL     1      35.003  -1.135  18.565  0.00  0.00    +0.000 A 
ATOM     11  C   UNL     1      36.202  -0.669  19.058  0.00  0.00    +0.000 A 
ATOM     12  C   UNL     1      36.781   0.137  18.064  0.00  0.00    +0.000 A 
ENDBRANCH   7   8
BRANCH   1  13
ATOM     13  C   UNL     1      36.475   3.408  16.105  0.00  0.00    +0.000 C 
BRANCH  13  14
ATOM     14  N   UNL     1      37.483   3.703  17.050  0.00  0.00    +0.000 NA
BRANCH  14  15
ATOM     15  S   UNL     1      38.528   4.894  16.526  0.00  0.00    +0.000 S 
ATOM     16  O   UNL     1      39.481   4.173  15.442  0.00  0.00    +0.000 OA
ATOM     17  O   UNL     1      37.787   5.935  15.657  0.00  0.00    +0.000 OA
BRANCH  15  22
ATOM     18  C   UNL     1      42.447   6.983  20.555  0.00  0.00    +0.000 C 
ATOM     19  C   UNL     1      41.466   6.580  19.488  0.00  0.00    +0.000 A 
ATOM     20  C   UNL     1      40.205   6.208  19.781  0.00  0.00    +0.000 A 
ATOM     21  C   UNL     1      39.325   5.789  18.882  0.00  0.00    +0.000 A 
ATOM     22  C   UNL     1      39.684   5.713  17.509  0.00  0.00    +0.000 A 
ATOM     23  C   UNL     1      40.933   6.093  17.154  0.00  0.00    +0.000 A 
ATOM     24  C   UNL     1      41.862   6.533  18.125  0.00  0.00    +0.000 A 
ENDBRANCH  15  22
ENDBRANCH  14  15
ENDBRANCH  13  14
ENDBRANCH   1  13
BRANCH   6  25
ATOM     25  C   UNL     1      36.283  -1.482  14.566  0.00  0.00    +0.000 C 
BRANCH  25  26
ATOM     26  C   UNL     1      37.645  -2.022  15.023  0.00  0.00    +0.000 A 
ATOM     27  C   UNL     1      37.853  -2.644  16.189  0.00  0.00    +0.000 A 
ATOM     28  C   UNL     1      39.144  -3.087  16.588  0.00  0.00    +0.000 A 
ATOM     29  C   UNL     1      40.239  -2.876  15.746  0.00  0.00    +0.000 A 
ATOM     30  C   UNL     1      40.033  -2.242  14.551  0.00  0.00    +0.000 A 
ATOM     31  C   UNL     1      38.731  -1.796  14.154  0.00  0.00    +0.000 A 
ENDBRANCH  25  26
ENDBRANCH   6  25
TORSDOF 7
ENDMDL
MODEL 6
REMARK VINA RESULT:      -7.4      1.634      2.348
REMARK  Name = 
REMARK  7 active torsions:
REMARK  status: ('A' for Active; 'I' for Inactive)
REMARK    1  A    between atoms: C_5  and  S_6
REMARK    2  A    between atoms: S_6  and  N_9
REMARK    3  A    between atoms: N_9  and  C_10
REMARK    4  A    between atoms: C_10  and  C_11
REMARK    5  A    between atoms: N_16  and  C_17
REMARK    6  A    between atoms: C_17  and  C_18
REMARK    7  A    between atoms: C_24  and  N_25
REMARK                            x       y       z     vdW  Elec       q    Type
REMARK                         _______ _______ _______ _____ _____    ______ ____
ROOT
ATOM      1  C   UNL     1      38.801   1.236  14.379  0.00  0.00    +0.000 A 
ATOM      2  C   UNL     1      39.655   0.583  13.359  0.00  0.00    +0.000 A 
ATOM      3  C   UNL     1      40.837   1.209  12.752  0.00  0.00    +0.000 C 
ATOM      4  C   UNL     1      39.080  -0.624  13.152  0.00  0.00    +0.000 A 
ATOM      5  C   UNL     1      39.605  -1.661  12.198  0.00  0.00    +0.000 C 
ATOM      6  N   UNL     1      37.996  -0.790  13.900  0.00  0.00    +0.000 N 
ATOM      7  C   UNL     1      37.854   0.346  14.638  0.00  0.00    +0.000 A 
ENDROOT
BRANCH   7   8
ATOM      8  N   UNL     1      36.772   0.413  15.588  0.00  0.00    +0.000 N 
ATOM      9  C   UNL     1      36.813  -0.036  16.820  0.00  0.00    +0.000 A 
ATOM     10  C   UNL     1      35.609   0.330  17.450  0.00  0.00    +0.000 A 
ATOM     11  C   UNL     1      34.869   1.009  16.506  0.00  0.00    +0.000 A 
ATOM     12  C   UNL     1      35.630   1.052  15.326  0.00  0.00    +0.000 A 
ENDBRANCH   7   8
BRANCH   1  13
ATOM     13  C   UNL     1      39.368   2.534  14.787  0.00  0.00    +0.000 C 
BRANCH  13  14
ATOM     14  N   UNL     1      38.616   3.714  14.594  0.00  0.00    +0.000 NA
BRANCH  14  15
ATOM     15  S   UNL     1      38.235   4.478  16.028  0.00  0.00    +0.000 S 
ATOM     16  O   UNL     1      37.143   5.598  15.634  0.00  0.00    +0.000 OA
ATOM     17  O   UNL     1      37.418   3.545  16.950  0.00  0.00    +0.000 OA
BRANCH  15  22
ATOM     18  C   UNL     1      42.032   6.889  19.994  0.00  0.00    +0.000 C 
ATOM     19  C   UNL     1      41.069   6.405  18.944  0.00  0.00    +0.000 A 
ATOM     20  C   UNL     1      39.855   5.915  19.260  0.00  0.00    +0.000 A 
ATOM     21  C   UNL     1      38.998   5.424  18.376  0.00  0.00    +0.000 A 
ATOM     22  C   UNL     1      39.332   5.393  16.995  0.00  0.00    +0.000 A 
ATOM     23  C   UNL     1      40.532   5.890  16.617  0.00  0.00    +0.000 A 
ATOM     24  C   UNL     1      41.438   6.406  17.573  0.00  0.00    +0.000 A 
ENDBRANCH  15  22
ENDBRANCH  14  15
ENDBRANCH  13  14
ENDBRANCH   1  13
BRANCH   6  25
ATOM     25  C   UNL     1      37.103  -1.974  13.853  0.00  0.00    +0.000 C 
BRANCH  25  26
ATOM     26  C   UNL     1      37.598  -2.833  15.024  0.00  0.00    +0.000 A 
ATOM     27  C   UNL     1      38.853  -2.819  15.487  0.00  0.00    +0.000 A 
ATOM     28  C   UNL     1      39.275  -3.668  16.547  0.00  0.00    +0.000 A 
ATOM     29  C   UNL     1      38.362  -4.546  17.136  0.00  0.00    +0.000 A 
ATOM     30  C   UNL     1      37.076  -4.564  16.668  0.00  0.00    +0.000 A 
ATOM     31  C   UNL     1      36.656  -3.708  15.599  0.00  0.00    +0.000 A 
ENDBRANCH  25  26
ENDBRANCH   6  25
TORSDOF 7
ENDMDL
MODEL 7
REMARK VINA RESULT:      -7.0      3.685      5.777
REMARK  Name = 
REMARK  7 active torsions:
REMARK  status: ('A' for Active; 'I' for Inactive)
REMARK    1  A    between atoms: C_5  and  S_6
REMARK    2  A    between atoms: S_6  and  N_9
REMARK    3  A    between atoms: N_9  and  C_10
REMARK    4  A    between atoms: C_10  and  C_11
REMARK    5  A    between atoms: N_16  and  C_17
REMARK    6  A    between atoms: C_17  and  C_18
REMARK    7  A    between atoms: C_24  and  N_25
REMARK                            x       y       z     vdW  Elec       q    Type
REMARK                         _______ _______ _______ _____ _____    ______ ____
ROOT
ATOM      1  C   UNL     1      37.018   0.883  14.303  0.00  0.00    +0.000 A 
ATOM      2  C   UNL     1      35.874   1.448  15.057  0.00  0.00    +0.000 A 
ATOM      3  C   UNL     1      35.142   2.658  14.657  0.00  0.00    +0.000 C 
ATOM      4  C   UNL     1      35.727   0.628  16.123  0.00  0.00    +0.000 A 
ATOM      5  C   UNL     1      34.672   0.794  17.181  0.00  0.00    +0.000 C 
ATOM      6  N   UNL     1      36.624  -0.350  16.122  0.00  0.00    +0.000 N 
ATOM      7  C   UNL     1      37.387  -0.178  15.007  0.00  0.00    +0.000 A 
ENDROOT
BRANCH   7   8
ATOM      8  N   UNL     1      38.418  -1.145  14.727  0.00  0.00    +0.000 N 
ATOM      9  C   UNL     1      39.517  -1.308  15.426  0.00  0.00    +0.000 A 
ATOM     10  C   UNL     1      40.194  -2.426  14.904  0.00  0.00    +0.000 A 
ATOM     11  C   UNL     1      39.426  -2.892  13.860  0.00  0.00    +0.000 A 
ATOM     12  C   UNL     1      38.296  -2.062  13.765  0.00  0.00    +0.000 A 
ENDBRANCH   7   8
BRANCH   1  13
ATOM     13  C   UNL     1      37.235   1.619  13.044  0.00  0.00    +0.000 C 
BRANCH  13  14
ATOM     14  N   UNL     1      37.619   0.914  11.882  0.00  0.00    +0.000 NA
BRANCH  14  15
ATOM     15  S   UNL     1      39.219   1.163  11.477  0.00  0.00    +0.000 S 
ATOM     16  O   UNL     1      39.364   0.611   9.968  0.00  0.00    +0.000 OA
ATOM     17  O   UNL     1      39.514   2.670  11.296  0.00  0.00    +0.000 OA
BRANCH  15  22
ATOM     18  C   UNL     1      44.338  -1.396  13.268  0.00  0.00    +0.000 C 
ATOM     19  C   UNL     1      43.001  -0.790  12.936  0.00  0.00    +0.000 A 
ATOM     20  C   UNL     1      42.250  -1.237  11.910  0.00  0.00    +0.000 A 
ATOM     21  C   UNL     1      41.096  -0.697  11.544  0.00  0.00    +0.000 A 
ATOM     22  C   UNL     1      40.573   0.421  12.247  0.00  0.00    +0.000 A 
ATOM     23  C   UNL     1      41.275   0.900  13.299  0.00  0.00    +0.000 A 
ATOM     24  C   UNL     1      42.508   0.317  13.674  0.00  0.00    +0.000 A 
ENDBRANCH  15  22
ENDBRANCH  14  15
ENDBRANCH  13  14
ENDBRANCH   1  13
BRANCH   6  25
ATOM     25  C   UNL     1      36.772  -1.369  17.189  0.00  0.00    +0.000 C 
BRANCH  25  26
ATOM     26  C   UNL     1      36.185  -2.635  16.549  0.00  0.00    +0.000 A 
ATOM     27  C   UNL     1      35.009  -2.677  15.913  0.00  0.00    +0.000 A 
ATOM     28  C   UNL     1      34.486  -3.885  15.375  0.00  0.00    +0.000 A 
ATOM     29  C   UNL     1      35.212  -5.072  15.504  0.00  0.00    +0.000 A 
ATOM     30  C   UNL     1      36.417  -5.035  16.152  0.00  0.00    +0.000 A 
ATOM     31  C   UNL     1      36.939  -3.816  16.694  0.00  0.00    +0.000 A 
ENDBRANCH  25  26
ENDBRANCH   6  25
TORSDOF 7
ENDMDL
MODEL 8
REMARK VINA RESULT:      -7.0      5.090      8.367
REMARK  Name = 
REMARK  7 active torsions:
REMARK  status: ('A' for Active; 'I' for Inactive)
REMARK    1  A    between atoms: C_5  and  S_6
REMARK    2  A    between atoms: S_6  and  N_9
REMARK    3  A    between atoms: N_9  and  C_10
REMARK    4  A    between atoms: C_10  and  C_11
REMARK    5  A    between atoms: N_16  and  C_17
REMARK    6  A    between atoms: C_17  and  C_18
REMARK    7  A    between atoms: C_24  and  N_25
REMARK                            x       y       z     vdW  Elec       q    Type
REMARK                         _______ _______ _______ _____ _____    ______ ____
ROOT
ATOM      1  C   UNL     1      37.781   8.283  16.605  0.00  0.00    +0.000 A 
ATOM      2  C   UNL     1      37.782   7.076  15.745  0.00  0.00    +0.000 A 
ATOM      3  C   UNL     1      37.298   7.054  14.358  0.00  0.00    +0.000 C 
ATOM      4  C   UNL     1      38.284   6.095  16.531  0.00  0.00    +0.000 A 
ATOM      5  C   UNL     1      38.490   4.673  16.085  0.00  0.00    +0.000 C 
ATOM      6  N   UNL     1      38.582   6.538  17.746  0.00  0.00    +0.000 N 
ATOM      7  C   UNL     1      38.276   7.865  17.762  0.00  0.00    +0.000 A 
ENDROOT
BRANCH   7   8
ATOM      8  N   UNL     1      38.554   8.616  18.961  0.00  0.00    +0.000 N 
ATOM      9  C   UNL     1      39.588   9.405  19.140  0.00  0.00    +0.000 A 
ATOM     10  C   UNL     1      39.429  10.042  20.385  0.00  0.00    +0.000 A 
ATOM     11  C   UNL     1      38.249   9.568  20.915  0.00  0.00    +0.000 A 
ATOM     12  C   UNL     1      37.706   8.661  19.989  0.00  0.00    +0.000 A 
ENDBRANCH   7   8
BRANCH   1  13
ATOM     13  C   UNL     1      37.352   9.471  15.846  0.00  0.00    +0.000 C 
BRANCH  13  14
ATOM     14  N   UNL     1      36.508  10.422  16.460  0.00  0.00    +0.000 NA
BRANCH  14  15
ATOM     15  S   UNL     1      34.912  10.260  15.998  0.00  0.00    +0.000 S 
ATOM     16  O   UNL     1      34.185   9.529  17.239  0.00  0.00    +0.000 OA
ATOM     17  O   UNL     1      34.202  11.632  15.975  0.00  0.00    +0.000 OA
BRANCH  15  22
ATOM     18  C   UNL     1      33.855   7.094  11.016  0.00  0.00    +0.000 C 
ATOM     19  C   UNL     1      33.988   7.891  12.285  0.00  0.00    +0.000 A 
ATOM     20  C   UNL     1      34.503   9.136  12.296  0.00  0.00    +0.000 A 
ATOM     21  C   UNL     1      34.693   9.852  13.395  0.00  0.00    +0.000 A 
ATOM     22  C   UNL     1      34.347   9.320  14.666  0.00  0.00    +0.000 A 
ATOM     23  C   UNL     1      33.808   8.080  14.715  0.00  0.00    +0.000 A 
ATOM     24  C   UNL     1      33.615   7.326  13.533  0.00  0.00    +0.000 A 
ENDBRANCH  15  22
ENDBRANCH  14  15
ENDBRANCH  13  14
ENDBRANCH   1  13
BRANCH   6  25
ATOM     25  C   UNL     1      39.082   5.696  18.859  0.00  0.00    +0.000 C 
BRANCH  25  26
ATOM     26  C   UNL     1      40.553   6.116  18.983  0.00  0.00    +0.000 A 
ATOM     27  C   UNL     1      41.163   6.381  20.143  0.00  0.00    +0.000 A 
ATOM     28  C   UNL     1      42.517   6.811  20.203  0.00  0.00    +0.000 A 
ATOM     29  C   UNL     1      43.247   6.963  19.021  0.00  0.00    +0.000 A 
ATOM     30  C   UNL     1      42.630   6.691  17.831  0.00  0.00    +0.000 A 
ATOM     31  C   UNL     1      41.265   6.260  17.776  0.00  0.00    +0.000 A 
ENDBRANCH  25  26
ENDBRANCH   6  25
TORSDOF 7
ENDMDL
MODEL 9
REMARK VINA RESULT:      -6.9      2.579      6.357
REMARK  Name = 
REMARK  7 active torsions:
REMARK  status: ('A' for Active; 'I' for Inactive)
REMARK    1  A    between atoms: C_5  and  S_6
REMARK    2  A    between atoms: S_6  and  N_9
REMARK    3  A    between atoms: N_9  and  C_10
REMARK    4  A    between atoms: C_10  and  C_11
REMARK    5  A    between atoms: N_16  and  C_17
REMARK    6  A    between atoms: C_17  and  C_18
REMARK    7  A    between atoms: C_24  and  N_25
REMARK                            x       y       z     vdW  Elec       q    Type
REMARK                         _______ _______ _______ _____ _____    ______ ____
ROOT
ATOM      1  C   UNL     1      39.188   2.832  14.088  0.00  0.00    +0.000 A 
ATOM      2  C   UNL     1      40.147   3.911  13.749  0.00  0.00    +0.000 A 
ATOM      3  C   UNL     1      41.441   3.684  13.091  0.00  0.00    +0.000 C 
ATOM      4  C   UNL     1      39.559   5.045  14.195  0.00  0.00    +0.000 A 
ATOM      5  C   UNL     1      40.157   6.419  14.061  0.00  0.00    +0.000 C 
ATOM      6  N   UNL     1      38.382   4.804  14.759  0.00  0.00    +0.000 N 
ATOM      7  C   UNL     1      38.178   3.460  14.675  0.00  0.00    +0.000 A 
ENDROOT
BRANCH   7   8
ATOM      8  N   UNL     1      36.936   2.925  15.171  0.00  0.00    +0.000 N 
ATOM      9  C   UNL     1      36.726   2.500  16.395  0.00  0.00    +0.000 A 
ATOM     10  C   UNL     1      35.361   2.176  16.507  0.00  0.00    +0.000 A 
ATOM     11  C   UNL     1      34.800   2.429  15.275  0.00  0.00    +0.000 A 
ATOM     12  C   UNL     1      35.821   2.908  14.438  0.00  0.00    +0.000 A 
ENDBRANCH   7   8
BRANCH   1  13
ATOM     13  C   UNL     1      39.650   1.534  13.566  0.00  0.00    +0.000 C 
BRANCH  13  14
ATOM     14  N   UNL     1      40.385   0.667  14.405  0.00  0.00    +0.000 NA
BRANCH  14  15
ATOM     15  S   UNL     1      39.595  -0.775  14.692  0.00  0.00    +0.000 S 
ATOM     16  O   UNL     1      39.144  -1.307  13.238  0.00  0.00    +0.000 OA
ATOM     17  O   UNL     1      40.590  -1.870  15.139  0.00  0.00    +0.000 OA
BRANCH  15  22
ATOM     18  C   UNL     1      34.251  -2.014  17.114  0.00  0.00    +0.000 C 
ATOM     19  C   UNL     1      35.600  -1.601  16.592  0.00  0.00    +0.000 A 
ATOM     20  C   UNL     1      35.778  -1.181  15.324  0.00  0.00    +0.000 A 
ATOM     21  C   UNL     1      36.955  -0.864  14.804  0.00  0.00    +0.000 A 
ATOM     22  C   UNL     1      38.134  -0.953  15.592  0.00  0.00    +0.000 A 
ATOM     23  C   UNL     1      38.014  -1.352  16.879  0.00  0.00    +0.000 A 
ATOM     24  C   UNL     1      36.751  -1.692  17.419  0.00  0.00    +0.000 A 
ENDBRANCH  15  22
ENDBRANCH  14  15
ENDBRANCH  13  14
ENDBRANCH   1  13
BRANCH   6  25
ATOM     25  C   UNL     1      37.525   5.826  15.407  0.00  0.00    +0.000 C 
BRANCH  25  26
ATOM     26  C   UNL     1      38.201   6.038  16.769  0.00  0.00    +0.000 A 
ATOM     27  C   UNL     1      38.668   5.047  17.537  0.00  0.00    +0.000 A 
ATOM     28  C   UNL     1      39.247   5.291  18.812  0.00  0.00    +0.000 A 
ATOM     29  C   UNL     1      39.340   6.600  19.291  0.00  0.00    +0.000 A 
ATOM     30  C   UNL     1      38.866   7.619  18.510  0.00  0.00    +0.000 A 
ATOM     31  C   UNL     1      38.282   7.368  17.226  0.00  0.00    +0.000 A 
ENDBRANCH  25  26
ENDBRANCH   6  25
TORSDOF 7
ENDMDL
MODEL 10
REMARK VINA RESULT:      -6.9      2.215      3.058
REMARK  Name = 
REMARK  7 active torsions:
REMARK  status: ('A' for Active; 'I' for Inactive)
REMARK    1  A    between atoms: C_5  and  S_6
REMARK    2  A    between atoms: S_6  and  N_9
REMARK    3  A    between atoms: N_9  and  C_10
REMARK    4  A    between atoms: C_10  and  C_11
REMARK    5  A    between atoms: N_16  and  C_17
REMARK    6  A    between atoms: C_17  and  C_18
REMARK    7  A    between atoms: C_24  and  N_25
REMARK                            x       y       z     vdW  Elec       q    Type
REMARK                         _______ _______ _______ _____ _____    ______ ____
ROOT
ATOM      1  C   UNL     1      39.347   1.279  14.368  0.00  0.00    +0.000 A 
ATOM      2  C   UNL     1      40.175   0.050  14.320  0.00  0.00    +0.000 A 
ATOM      3  C   UNL     1      41.593   0.028  13.938  0.00  0.00    +0.000 C 
ATOM      4  C   UNL     1      39.329  -0.947  14.670  0.00  0.00    +0.000 A 
ATOM      5  C   UNL     1      39.723  -2.395  14.775  0.00  0.00    +0.000 C 
ATOM      6  N   UNL     1      38.107  -0.494  14.919  0.00  0.00    +0.000 N 
ATOM      7  C   UNL     1      38.146   0.855  14.737  0.00  0.00    +0.000 A 
ENDROOT
BRANCH   7   8
ATOM      8  N   UNL     1      36.950   1.615  14.996  0.00  0.00    +0.000 N 
ATOM      9  C   UNL     1      36.777   2.440  16.002  0.00  0.00    +0.000 A 
ATOM     10  C   UNL     1      35.531   3.071  15.829  0.00  0.00    +0.000 A 
ATOM     11  C   UNL     1      34.993   2.555  14.670  0.00  0.00    +0.000 A 
ATOM     12  C   UNL     1      35.915   1.629  14.154  0.00  0.00    +0.000 A 
ENDBRANCH   7   8
BRANCH   1  13
ATOM     13  C   UNL     1      40.166   2.476  14.108  0.00  0.00    +0.000 C 
BRANCH  13  14
ATOM     14  N   UNL     1      39.858   3.305  13.006  0.00  0.00    +0.000 NA
BRANCH  14  15
ATOM     15  S   UNL     1      39.251   4.790  13.467  0.00  0.00    +0.000 S 
ATOM     16  O   UNL     1      39.637   4.940  15.026  0.00  0.00    +0.000 OA
ATOM     17  O   UNL     1      40.059   5.940  12.825  0.00  0.00    +0.000 OA
BRANCH  15  22
ATOM     18  C   UNL     1      33.770   7.214  13.684  0.00  0.00    +0.000 C 
ATOM     19  C   UNL     1      35.086   6.486  13.638  0.00  0.00    +0.000 A 
ATOM     20  C   UNL     1      36.018   6.634  14.601  0.00  0.00    +0.000 A 
ATOM     21  C   UNL     1      37.212   6.060  14.573  0.00  0.00    +0.000 A 
ATOM     22  C   UNL     1      37.582   5.226  13.484  0.00  0.00    +0.000 A 
ATOM     23  C   UNL     1      36.678   5.026  12.497  0.00  0.00    +0.000 A 
ATOM     24  C   UNL     1      35.409   5.649  12.538  0.00  0.00    +0.000 A 
ENDBRANCH  15  22
ENDBRANCH  14  15
ENDBRANCH  13  14
ENDBRANCH   1  13
BRANCH   6  25
ATOM     25  C   UNL     1      36.938  -1.343  15.257  0.00  0.00    +0.000 C 
BRANCH  25  26
ATOM     26  C   UNL     1      36.848  -1.222  16.784  0.00  0.00    +0.000 A 
ATOM     27  C   UNL     1      37.792  -1.652  17.628  0.00  0.00    +0.000 A 
ATOM     28  C   UNL     1      37.642  -1.558  19.039  0.00  0.00    +0.000 A 
ATOM     29  C   UNL     1      36.479  -1.000  19.575  0.00  0.00    +0.000 A 
ATOM     30  C   UNL     1      35.509  -0.557  18.718  0.00  0.00    +0.000 A 
ATOM     31  C   UNL     1      35.665  -0.655  17.297  0.00  0.00    +0.000 A 
ENDBRANCH  25  26
ENDBRANCH   6  25
TORSDOF 7
ENDMDL
