MODEL 1
REMARK VINA RESULT:      -6.8      0.000      0.000
REMARK  Name = 
REMARK  3 active torsions:
REMARK  status: ('A' for Active; 'I' for Inactive)
REMARK    1  A    between atoms: O_2  and  C_3
REMARK    2  A    between atoms: C_6  and  C_7
REMARK    3  A    between atoms: C_7  and  C_9
REMARK                            x       y       z     vdW  Elec       q    Type
REMARK                         _______ _______ _______ _____ _____    ______ ____
ROOT
ATOM      1  C   UNL     1      33.895  -4.895  33.413  0.00  0.00    +0.000 A 
ATOM      2  C   UNL     1      35.035  -5.295  34.095  0.00  0.00    +0.000 A 
ATOM      3  N   UNL     1      35.525  -4.926  35.392  0.00  0.00    +0.000 NA
ATOM      4  S   UNL     1      35.821  -6.375  33.050  0.00  0.00    +0.000 S 
ATOM      5  C   UNL     1      34.723  -6.324  31.769  0.00  0.00    +0.000 A 
ATOM      6  C   UNL     1      33.761  -5.457  32.189  0.00  0.00    +0.000 A 
ATOM      7  C   UNL     1      32.634  -5.259  31.224  0.00  0.00    +0.000 C 
ATOM      8  C   UNL     1      32.846  -5.776  29.893  0.00  0.00    +0.000 C 
ATOM      9  C   UNL     1      34.433  -5.706  29.495  0.00  0.00    +0.000 C 
ATOM     10  C   UNL     1      34.242  -6.643  28.146  0.00  0.00    +0.000 C 
ATOM     11  C   UNL     1      34.748  -7.039  30.449  0.00  0.00    +0.000 C 
ENDROOT
BRANCH   1  12
ATOM     12  C   UNL     1      33.006  -3.972  34.115  0.00  0.00    +0.000 C 
ATOM     13  O   UNL     1      32.061  -4.448  34.849  0.00  0.00    +0.000 OA
BRANCH  12  17
ATOM     14  C   UNL     1      33.159   0.318  34.058  0.00  0.00    +0.000 A 
ATOM     15  C   UNL     1      34.014  -0.419  33.250  0.00  0.00    +0.000 A 
ATOM     16  C   UNL     1      33.967  -1.787  33.266  0.00  0.00    +0.000 A 
ATOM     17  C   UNL     1      33.128  -2.533  34.032  0.00  0.00    +0.000 A 
ATOM     18  C   UNL     1      32.253  -1.779  34.858  0.00  0.00    +0.000 A 
ATOM     19  C   UNL     1      32.294  -0.407  34.847  0.00  0.00    +0.000 A 
BRANCH  14  21
ATOM     20  C   UNL     1      33.717   2.505  33.085  0.00  0.00    +0.000 C 
ATOM     21  O   UNL     1      33.163   1.707  34.082  0.00  0.00    +0.000 OA
ENDBRANCH  14  21
ENDBRANCH  12  17
ENDBRANCH   1  12
TORSDOF 3
ENDMDL
MODEL 2
REMARK VINA RESULT:      -6.8     20.479     22.843
REMARK  Name = 
REMARK  3 active torsions:
REMARK  status: ('A' for Active; 'I' for Inactive)
REMARK    1  A    between atoms: O_2  and  C_3
REMARK    2  A    between atoms: C_6  and  C_7
REMARK    3  A    between atoms: C_7  and  C_9
REMARK                            x       y       z     vdW  Elec       q    Type
REMARK                         _______ _______ _______ _____ _____    ______ ____
ROOT
ATOM      1  C   UNL     1      16.214  11.040  35.729  0.00  0.00    +0.000 A 
ATOM      2  C   UNL     1      15.282  11.416  36.686  0.00  0.00    +0.000 A 
ATOM      3  N   UNL     1      15.177  11.070  38.074  0.00  0.00    +0.000 NA
ATOM      4  S   UNL     1      14.194  12.432  35.871  0.00  0.00    +0.000 S 
ATOM      5  C   UNL     1      14.908  12.383  34.342  0.00  0.00    +0.000 A 
ATOM      6  C   UNL     1      15.987  11.569  34.504  0.00  0.00    +0.000 A 
ATOM      7  C   UNL     1      16.821  11.385  33.274  0.00  0.00    +0.000 C 
ATOM      8  C   UNL     1      16.234  11.851  32.040  0.00  0.00    +0.000 C 
ATOM      9  C   UNL     1      14.604  11.706  32.087  0.00  0.00    +0.000 C 
ATOM     10  C   UNL     1      14.381  12.606  30.718  0.00  0.00    +0.000 C 
ATOM     11  C   UNL     1      14.496  13.055  33.065  0.00  0.00    +0.000 C 
ENDROOT
BRANCH   1  12
ATOM     12  C   UNL     1      17.301  10.176  36.183  0.00  0.00    +0.000 C 
ATOM     13  O   UNL     1      17.238   8.912  35.945  0.00  0.00    +0.000 OA
BRANCH  12  17
ATOM     14  C   UNL     1      20.884  11.397  38.208  0.00  0.00    +0.000 A 
ATOM     15  C   UNL     1      19.748  12.194  38.263  0.00  0.00    +0.000 A 
ATOM     16  C   UNL     1      18.604  11.807  37.617  0.00  0.00    +0.000 A 
ATOM     17  C   UNL     1      18.462  10.667  36.893  0.00  0.00    +0.000 A 
ATOM     18  C   UNL     1      19.623   9.851  36.838  0.00  0.00    +0.000 A 
ATOM     19  C   UNL     1      20.774  10.232  37.482  0.00  0.00    +0.000 A 
BRANCH  14  21
ATOM     20  C   UNL     1      22.727  12.956  38.672  0.00  0.00    +0.000 C 
ATOM     21  O   UNL     1      22.071  11.741  38.844  0.00  0.00    +0.000 OA
ENDBRANCH  14  21
ENDBRANCH  12  17
ENDBRANCH   1  12
TORSDOF 3
ENDMDL
MODEL 3
REMARK VINA RESULT:      -6.5     20.353     22.701
REMARK  Name = 
REMARK  3 active torsions:
REMARK  status: ('A' for Active; 'I' for Inactive)
REMARK    1  A    between atoms: O_2  and  C_3
REMARK    2  A    between atoms: C_6  and  C_7
REMARK    3  A    between atoms: C_7  and  C_9
REMARK                            x       y       z     vdW  Elec       q    Type
REMARK                         _______ _______ _______ _____ _____    ______ ____
ROOT
ATOM      1  C   UNL     1      17.789  10.430  37.333  0.00  0.00    +0.000 A 
ATOM      2  C   UNL     1      18.610  10.019  36.293  0.00  0.00    +0.000 A 
ATOM      3  N   UNL     1      19.922   9.439  36.311  0.00  0.00    +0.000 NA
ATOM      4  S   UNL     1      17.733  10.350  34.878  0.00  0.00    +0.000 S 
ATOM      5  C   UNL     1      16.348  10.998  35.592  0.00  0.00    +0.000 A 
ATOM      6  C   UNL     1      16.603  10.942  36.928  0.00  0.00    +0.000 A 
ATOM      7  C   UNL     1      15.492  11.440  37.799  0.00  0.00    +0.000 C 
ATOM      8  C   UNL     1      14.437  12.159  37.124  0.00  0.00    +0.000 C 
ATOM      9  C   UNL     1      15.028  12.959  35.823  0.00  0.00    +0.000 C 
ATOM     10  C   UNL     1      13.526  13.315  35.231  0.00  0.00    +0.000 C 
ATOM     11  C   UNL     1      15.096  11.532  34.958  0.00  0.00    +0.000 C 
ENDROOT
BRANCH   1  12
ATOM     12  C   UNL     1      18.300  10.223  38.687  0.00  0.00    +0.000 C 
ATOM     13  O   UNL     1      19.132  11.073  39.180  0.00  0.00    +0.000 OA
BRANCH  12  17
ATOM     14  C   UNL     1      17.384   6.751  41.040  0.00  0.00    +0.000 A 
ATOM     15  C   UNL     1      16.582   7.881  41.127  0.00  0.00    +0.000 A 
ATOM     16  C   UNL     1      16.872   8.990  40.377  0.00  0.00    +0.000 A 
ATOM     17  C   UNL     1      17.917   9.102  39.516  0.00  0.00    +0.000 A 
ATOM     18  C   UNL     1      18.737   7.945  39.426  0.00  0.00    +0.000 A 
ATOM     19  C   UNL     1      18.453   6.830  40.175  0.00  0.00    +0.000 A 
BRANCH  14  21
ATOM     20  C   UNL     1      17.170   5.537  43.166  0.00  0.00    +0.000 C 
ATOM     21  O   UNL     1      17.137   5.599  41.777  0.00  0.00    +0.000 OA
ENDBRANCH  14  21
ENDBRANCH  12  17
ENDBRANCH   1  12
TORSDOF 3
ENDMDL
MODEL 4
REMARK VINA RESULT:      -6.4     20.824     22.298
REMARK  Name = 
REMARK  3 active torsions:
REMARK  status: ('A' for Active; 'I' for Inactive)
REMARK    1  A    between atoms: O_2  and  C_3
REMARK    2  A    between atoms: C_6  and  C_7
REMARK    3  A    between atoms: C_7  and  C_9
REMARK                            x       y       z     vdW  Elec       q    Type
REMARK                         _______ _______ _______ _____ _____    ______ ____
ROOT
ATOM      1  C   UNL     1      18.736  10.606  38.500  0.00  0.00    +0.000 A 
ATOM      2  C   UNL     1      19.266   9.445  39.047  0.00  0.00    +0.000 A 
ATOM      3  N   UNL     1      18.692   8.140  39.203  0.00  0.00    +0.000 NA
ATOM      4  S   UNL     1      20.831   9.865  39.548  0.00  0.00    +0.000 S 
ATOM      5  C   UNL     1      20.817  11.485  39.072  0.00  0.00    +0.000 A 
ATOM      6  C   UNL     1      19.582  11.662  38.529  0.00  0.00    +0.000 A 
ATOM      7  C   UNL     1      19.326  13.036  37.993  0.00  0.00    +0.000 C 
ATOM      8  C   UNL     1      20.289  14.046  38.364  0.00  0.00    +0.000 C 
ATOM      9  C   UNL     1      20.914  13.728  39.844  0.00  0.00    +0.000 C 
ATOM     10  C   UNL     1      22.109  14.861  39.696  0.00  0.00    +0.000 C 
ATOM     11  C   UNL     1      21.884  12.534  39.194  0.00  0.00    +0.000 C 
ENDROOT
BRANCH   1  12
ATOM     12  C   UNL     1      17.385  10.510  37.952  0.00  0.00    +0.000 C 
ATOM     13  O   UNL     1      16.394  10.335  38.755  0.00  0.00    +0.000 OA
BRANCH  12  17
ATOM     14  C   UNL     1      16.726  10.595  33.711  0.00  0.00    +0.000 A 
ATOM     15  C   UNL     1      15.965  11.399  34.549  0.00  0.00    +0.000 A 
ATOM     16  C   UNL     1      16.174  11.374  35.902  0.00  0.00    +0.000 A 
ATOM     17  C   UNL     1      17.093  10.603  36.539  0.00  0.00    +0.000 A 
ATOM     18  C   UNL     1      17.872   9.781  35.681  0.00  0.00    +0.000 A 
ATOM     19  C   UNL     1      17.669   9.800  34.324  0.00  0.00    +0.000 A 
BRANCH  14  21
ATOM     20  C   UNL     1      15.910  11.579  31.613  0.00  0.00    +0.000 C 
ATOM     21  O   UNL     1      16.558  10.580  32.332  0.00  0.00    +0.000 OA
ENDBRANCH  14  21
ENDBRANCH  12  17
ENDBRANCH   1  12
TORSDOF 3
ENDMDL
MODEL 5
REMARK VINA RESULT:      -6.4     27.496     30.373
REMARK  Name = 
REMARK  3 active torsions:
REMARK  status: ('A' for Active; 'I' for Inactive)
REMARK    1  A    between atoms: O_2  and  C_3
REMARK    2  A    between atoms: C_6  and  C_7
REMARK    3  A    between atoms: C_7  and  C_9
REMARK                            x       y       z     vdW  Elec       q    Type
REMARK                         _______ _______ _______ _____ _____    ______ ____
ROOT
ATOM      1  C   UNL     1      27.115  23.809  24.456  0.00  0.00    +0.000 A 
ATOM      2  C   UNL     1      26.069  24.281  25.237  0.00  0.00    +0.000 A 
ATOM      3  N   UNL     1      24.858  24.955  24.867  0.00  0.00    +0.000 NA
ATOM      4  S   UNL     1      26.502  23.904  26.833  0.00  0.00    +0.000 S 
ATOM      5  C   UNL     1      27.983  23.158  26.519  0.00  0.00    +0.000 A 
ATOM      6  C   UNL     1      28.108  23.222  25.165  0.00  0.00    +0.000 A 
ATOM      7  C   UNL     1      29.350  22.588  24.621  0.00  0.00    +0.000 C 
ATOM      8  C   UNL     1      30.363  22.252  25.593  0.00  0.00    +0.000 C 
ATOM      9  C   UNL     1      30.330  23.306  26.845  0.00  0.00    +0.000 C 
ATOM     10  C   UNL     1      31.342  22.390  27.777  0.00  0.00    +0.000 C 
ATOM     11  C   UNL     1      28.977  22.551  27.466  0.00  0.00    +0.000 C 
ENDROOT
BRANCH   1  12
ATOM     12  C   UNL     1      26.978  23.979  23.011  0.00  0.00    +0.000 C 
ATOM     13  O   UNL     1      26.211  23.179  22.356  0.00  0.00    +0.000 OA
BRANCH  12  17
ATOM     14  C   UNL     1      29.196  26.840  20.703  0.00  0.00    +0.000 A 
ATOM     15  C   UNL     1      28.108  27.251  21.460  0.00  0.00    +0.000 A 
ATOM     16  C   UNL     1      27.399  26.341  22.197  0.00  0.00    +0.000 A 
ATOM     17  C   UNL     1      27.665  25.010  22.265  0.00  0.00    +0.000 A 
ATOM     18  C   UNL     1      28.779  24.589  21.491  0.00  0.00    +0.000 A 
ATOM     19  C   UNL     1      29.495  25.496  20.750  0.00  0.00    +0.000 A 
BRANCH  14  21
ATOM     20  C   UNL     1      30.383  27.456  18.641  0.00  0.00    +0.000 C 
ATOM     21  O   UNL     1      29.952  27.720  19.937  0.00  0.00    +0.000 OA
ENDBRANCH  14  21
ENDBRANCH  12  17
ENDBRANCH   1  12
TORSDOF 3
ENDMDL
MODEL 6
REMARK VINA RESULT:      -6.2     17.959     21.034
REMARK  Name = 
REMARK  3 active torsions:
REMARK  status: ('A' for Active; 'I' for Inactive)
REMARK    1  A    between atoms: O_2  and  C_3
REMARK    2  A    between atoms: C_6  and  C_7
REMARK    3  A    between atoms: C_7  and  C_9
REMARK                            x       y       z     vdW  Elec       q    Type
REMARK                         _______ _______ _______ _____ _____    ______ ____
ROOT
ATOM      1  C   UNL     1      20.349  11.575  38.134  0.00  0.00    +0.000 A 
ATOM      2  C   UNL     1      20.353  12.925  38.456  0.00  0.00    +0.000 A 
ATOM      3  N   UNL     1      19.270  13.823  38.734  0.00  0.00    +0.000 NA
ATOM      4  S   UNL     1      21.989  13.375  38.456  0.00  0.00    +0.000 S 
ATOM      5  C   UNL     1      22.658  11.878  38.058  0.00  0.00    +0.000 A 
ATOM      6  C   UNL     1      21.581  11.054  37.931  0.00  0.00    +0.000 A 
ATOM      7  C   UNL     1      21.917   9.632  37.605  0.00  0.00    +0.000 C 
ATOM      8  C   UNL     1      23.279   9.384  37.197  0.00  0.00    +0.000 C 
ATOM      9  C   UNL     1      23.892  10.686  36.415  0.00  0.00    +0.000 C 
ATOM     10  C   UNL     1      25.440  10.107  36.449  0.00  0.00    +0.000 C 
ATOM     11  C   UNL     1      24.094  11.484  37.869  0.00  0.00    +0.000 C 
ENDROOT
BRANCH   1  12
ATOM     12  C   UNL     1      19.044  10.918  38.098  0.00  0.00    +0.000 C 
ATOM     13  O   UNL     1      18.508  10.528  39.202  0.00  0.00    +0.000 OA
BRANCH  12  17
ATOM     14  C   UNL     1      16.706  10.440  34.530  0.00  0.00    +0.000 A 
ATOM     15  C   UNL     1      17.710   9.530  34.830  0.00  0.00    +0.000 A 
ATOM     16  C   UNL     1      18.457   9.680  35.968  0.00  0.00    +0.000 A 
ATOM     17  C   UNL     1      18.309  10.679  36.876  0.00  0.00    +0.000 A 
ATOM     18  C   UNL     1      17.281  11.610  36.569  0.00  0.00    +0.000 A 
ATOM     19  C   UNL     1      16.527  11.466  35.430  0.00  0.00    +0.000 A 
BRANCH  14  21
ATOM     20  C   UNL     1      16.325  10.728  32.119  0.00  0.00    +0.000 C 
ATOM     21  O   UNL     1      15.918  10.336  33.390  0.00  0.00    +0.000 OA
ENDBRANCH  14  21
ENDBRANCH  12  17
ENDBRANCH   1  12
TORSDOF 3
ENDMDL
MODEL 7
REMARK VINA RESULT:      -6.1     15.614     17.538
REMARK  Name = 
REMARK  3 active torsions:
REMARK  status: ('A' for Active; 'I' for Inactive)
REMARK    1  A    between atoms: O_2  and  C_3
REMARK    2  A    between atoms: C_6  and  C_7
REMARK    3  A    between atoms: C_7  and  C_9
REMARK                            x       y       z     vdW  Elec       q    Type
REMARK                         _______ _______ _______ _____ _____    ______ ____
ROOT
ATOM      1  C   UNL     1      17.374  -8.450  27.243  0.00  0.00    +0.000 A 
ATOM      2  C   UNL     1      16.365  -8.942  26.426  0.00  0.00    +0.000 A 
ATOM      3  N   UNL     1      15.812  -8.423  25.209  0.00  0.00    +0.000 NA
ATOM      4  S   UNL     1      15.847 -10.374  27.175  0.00  0.00    +0.000 S 
ATOM      5  C   UNL     1      16.892 -10.353  28.500  0.00  0.00    +0.000 A 
ATOM      6  C   UNL     1      17.627  -9.220  28.328  0.00  0.00    +0.000 A 
ATOM      7  C   UNL     1      18.668  -8.984  29.377  0.00  0.00    +0.000 C 
ATOM      8  C   UNL     1      18.573  -9.812  30.555  0.00  0.00    +0.000 C 
ATOM      9  C   UNL     1      17.011 -10.194  30.866  0.00  0.00    +0.000 C 
ATOM     10  C   UNL     1      17.407 -11.332  31.998  0.00  0.00    +0.000 C 
ATOM     11  C   UNL     1      17.027 -11.324  29.637  0.00  0.00    +0.000 C 
ENDROOT
BRANCH   1  12
ATOM     12  C   UNL     1      18.026  -7.219  26.802  0.00  0.00    +0.000 C 
ATOM     13  O   UNL     1      17.412  -6.097  26.949  0.00  0.00    +0.000 OA
BRANCH  12  17
ATOM     14  C   UNL     1      21.940  -7.413  25.049  0.00  0.00    +0.000 A 
ATOM     15  C   UNL     1      21.319  -6.185  25.228  0.00  0.00    +0.000 A 
ATOM     16  C   UNL     1      20.070  -6.120  25.787  0.00  0.00    +0.000 A 
ATOM     17  C   UNL     1      19.342  -7.189  26.203  0.00  0.00    +0.000 A 
ATOM     18  C   UNL     1      19.979  -8.446  26.021  0.00  0.00    +0.000 A 
ATOM     19  C   UNL     1      21.230  -8.519  25.461  0.00  0.00    +0.000 A 
BRANCH  14  21
ATOM     20  C   UNL     1      24.014  -6.461  24.137  0.00  0.00    +0.000 C 
ATOM     21  O   UNL     1      23.205  -7.537  24.488  0.00  0.00    +0.000 OA
ENDBRANCH  14  21
ENDBRANCH  12  17
ENDBRANCH   1  12
TORSDOF 3
ENDMDL
MODEL 8
REMARK VINA RESULT:      -6.1     15.012     16.665
REMARK  Name = 
REMARK  3 active torsions:
REMARK  status: ('A' for Active; 'I' for Inactive)
REMARK    1  A    between atoms: O_2  and  C_3
REMARK    2  A    between atoms: C_6  and  C_7
REMARK    3  A    between atoms: C_7  and  C_9
REMARK                            x       y       z     vdW  Elec       q    Type
REMARK                         _______ _______ _______ _____ _____    ______ ____
ROOT
ATOM      1  C   UNL     1      19.177  -7.923  26.509  0.00  0.00    +0.000 A 
ATOM      2  C   UNL     1      18.535  -6.696  26.608  0.00  0.00    +0.000 A 
ATOM      3  N   UNL     1      17.238  -6.359  27.121  0.00  0.00    +0.000 NA
ATOM      4  S   UNL     1      19.627  -5.571  25.959  0.00  0.00    +0.000 S 
ATOM      5  C   UNL     1      20.878  -6.636  25.571  0.00  0.00    +0.000 A 
ATOM      6  C   UNL     1      20.411  -7.855  25.958  0.00  0.00    +0.000 A 
ATOM      7  C   UNL     1      21.367  -8.987  25.744  0.00  0.00    +0.000 C 
ATOM      8  C   UNL     1      22.514  -8.695  24.918  0.00  0.00    +0.000 C 
ATOM      9  C   UNL     1      22.138  -7.570  23.788  0.00  0.00    +0.000 C 
ATOM     10  C   UNL     1      23.715  -7.333  23.351  0.00  0.00    +0.000 C 
ATOM     11  C   UNL     1      22.213  -6.365  24.941  0.00  0.00    +0.000 C 
ENDROOT
BRANCH   1  12
ATOM     12  C   UNL     1      18.456  -9.080  27.037  0.00  0.00    +0.000 C 
ATOM     13  O   UNL     1      17.754  -9.800  26.234  0.00  0.00    +0.000 OA
BRANCH  12  17
ATOM     14  C   UNL     1      18.834 -10.255  31.149  0.00  0.00    +0.000 A 
ATOM     15  C   UNL     1      17.581  -9.983  30.616  0.00  0.00    +0.000 A 
ATOM     16  C   UNL     1      17.458  -9.608  29.304  0.00  0.00    +0.000 A 
ATOM     17  C   UNL     1      18.488  -9.467  28.430  0.00  0.00    +0.000 A 
ATOM     18  C   UNL     1      19.770  -9.746  28.975  0.00  0.00    +0.000 A 
ATOM     19  C   UNL     1      19.901 -10.122  30.289  0.00  0.00    +0.000 A 
BRANCH  14  21
ATOM     20  C   UNL     1      18.963 -11.956  32.917  0.00  0.00    +0.000 C 
ATOM     21  O   UNL     1      19.017 -10.640  32.471  0.00  0.00    +0.000 OA
ENDBRANCH  14  21
ENDBRANCH  12  17
ENDBRANCH   1  12
TORSDOF 3
ENDMDL
MODEL 9
REMARK VINA RESULT:      -6.1     27.404     31.079
REMARK  Name = 
REMARK  3 active torsions:
REMARK  status: ('A' for Active; 'I' for Inactive)
REMARK    1  A    between atoms: O_2  and  C_3
REMARK    2  A    between atoms: C_6  and  C_7
REMARK    3  A    between atoms: C_7  and  C_9
REMARK                            x       y       z     vdW  Elec       q    Type
REMARK                         _______ _______ _______ _____ _____    ______ ____
ROOT
ATOM      1  C   UNL     1      27.958  25.304  22.524  0.00  0.00    +0.000 A 
ATOM      2  C   UNL     1      28.812  25.538  21.455  0.00  0.00    +0.000 A 
ATOM      3  N   UNL     1      29.618  24.632  20.688  0.00  0.00    +0.000 NA
ATOM      4  S   UNL     1      28.744  27.212  21.191  0.00  0.00    +0.000 S 
ATOM      5  C   UNL     1      27.650  27.611  22.413  0.00  0.00    +0.000 A 
ATOM      6  C   UNL     1      27.362  26.420  23.005  0.00  0.00    +0.000 A 
ATOM      7  C   UNL     1      26.369  26.501  24.123  0.00  0.00    +0.000 C 
ATOM      8  C   UNL     1      26.069  27.829  24.603  0.00  0.00    +0.000 C 
ATOM      9  C   UNL     1      27.375  28.805  24.447  0.00  0.00    +0.000 C 
ATOM     10  C   UNL     1      26.515  30.179  24.775  0.00  0.00    +0.000 C 
ATOM     11  C   UNL     1      27.092  28.948  22.808  0.00  0.00    +0.000 C 
ENDROOT
BRANCH   1  12
ATOM     12  C   UNL     1      27.804  23.912  22.942  0.00  0.00    +0.000 C 
ATOM     13  O   UNL     1      27.067  23.124  22.239  0.00  0.00    +0.000 OA
BRANCH  12  17
ATOM     14  C   UNL     1      29.938  22.273  26.286  0.00  0.00    +0.000 A 
ATOM     15  C   UNL     1      28.577  22.524  26.387  0.00  0.00    +0.000 A 
ATOM     16  C   UNL     1      27.894  23.047  25.321  0.00  0.00    +0.000 A 
ATOM     17  C   UNL     1      28.441  23.361  24.118  0.00  0.00    +0.000 A 
ATOM     18  C   UNL     1      29.833  23.103  24.015  0.00  0.00    +0.000 A 
ATOM     19  C   UNL     1      30.526  22.579  25.079  0.00  0.00    +0.000 A 
BRANCH  14  21
ATOM     20  C   UNL     1      31.550  22.483  28.130  0.00  0.00    +0.000 C 
ATOM     21  O   UNL     1      30.681  21.743  27.335  0.00  0.00    +0.000 OA
ENDBRANCH  14  21
ENDBRANCH  12  17
ENDBRANCH   1  12
TORSDOF 3
ENDMDL
MODEL 10
REMARK VINA RESULT:      -6.0     27.040     29.363
REMARK  Name = 
REMARK  3 active torsions:
REMARK  status: ('A' for Active; 'I' for Inactive)
REMARK    1  A    between atoms: O_2  and  C_3
REMARK    2  A    between atoms: C_6  and  C_7
REMARK    3  A    between atoms: C_7  and  C_9
REMARK                            x       y       z     vdW  Elec       q    Type
REMARK                         _______ _______ _______ _____ _____    ______ ____
ROOT
ATOM      1  C   UNL     1      27.622  23.701  26.473  0.00  0.00    +0.000 A 
ATOM      2  C   UNL     1      26.957  24.695  27.178  0.00  0.00    +0.000 A 
ATOM      3  N   UNL     1      25.808  25.478  26.828  0.00  0.00    +0.000 NA
ATOM      4  S   UNL     1      27.806  24.845  28.639  0.00  0.00    +0.000 S 
ATOM      5  C   UNL     1      28.984  23.668  28.364  0.00  0.00    +0.000 A 
ATOM      6  C   UNL     1      28.686  23.181  27.128  0.00  0.00    +0.000 A 
ATOM      7  C   UNL     1      29.585  22.079  26.657  0.00  0.00    +0.000 C 
ATOM      8  C   UNL     1      30.788  21.876  27.428  0.00  0.00    +0.000 C 
ATOM      9  C   UNL     1      31.309  23.291  28.066  0.00  0.00    +0.000 C 
ATOM     10  C   UNL     1      32.411  22.558  29.056  0.00  0.00    +0.000 C 
ATOM     11  C   UNL     1      30.120  23.219  29.237  0.00  0.00    +0.000 C 
ENDROOT
BRANCH   1  12
ATOM     12  C   UNL     1      27.067  23.345  25.169  0.00  0.00    +0.000 C 
ATOM     13  O   UNL     1      26.022  22.595  25.117  0.00  0.00    +0.000 OA
BRANCH  12  17
ATOM     14  C   UNL     1      28.991  24.721  21.587  0.00  0.00    +0.000 A 
ATOM     15  C   UNL     1      27.657  24.340  21.556  0.00  0.00    +0.000 A 
ATOM     16  C   UNL     1      27.041  23.900  22.698  0.00  0.00    +0.000 A 
ATOM     17  C   UNL     1      27.633  23.793  23.916  0.00  0.00    +0.000 A 
ATOM     18  C   UNL     1      28.998  24.185  23.948  0.00  0.00    +0.000 A 
ATOM     19  C   UNL     1      29.623  24.626  22.807  0.00  0.00    +0.000 A 
BRANCH  14  21
ATOM     20  C   UNL     1      29.623  26.486  19.998  0.00  0.00    +0.000 C 
ATOM     21  O   UNL     1      29.666  25.175  20.460  0.00  0.00    +0.000 OA
ENDBRANCH  14  21
ENDBRANCH  12  17
ENDBRANCH   1  12
TORSDOF 3
ENDMDL
