MODEL 1
REMARK VINA RESULT:      -6.9      0.000      0.000
REMARK  Name = 
REMARK  4 active torsions:
REMARK  status: ('A' for Active; 'I' for Inactive)
REMARK    1  A    between atoms: C_2  and  C_3
REMARK    2  A    between atoms: C_3  and  C_4
REMARK    3  A    between atoms: N_8  and  C_9
REMARK    4  A    between atoms: C_14  and  N_15
REMARK                            x       y       z     vdW  Elec       q    Type
REMARK                         _______ _______ _______ _____ _____    ______ ____
ROOT
ATOM      1  C   UNL     1      17.413  10.828  37.143  0.00  0.00    +0.000 A 
ATOM      2  C   UNL     1      18.622  10.273  37.512  0.00  0.00    +0.000 A 
ATOM      3  C   UNL     1      18.840   9.598  38.673  0.00  0.00    +0.000 A 
ATOM      4  C   UNL     1      17.780   9.456  39.543  0.00  0.00    +0.000 A 
ATOM      5  C   UNL     1      16.550   9.986  39.229  0.00  0.00    +0.000 A 
ATOM      6  C   UNL     1      15.491   9.839  40.109  0.00  0.00    +0.000 A 
ATOM      7  C   UNL     1      14.289  10.396  39.730  0.00  0.00    +0.000 A 
ATOM      8  C   UNL     1      14.093  11.076  38.547  0.00  0.00    +0.000 A 
ATOM      9  C   UNL     1      15.160  11.213  37.684  0.00  0.00    +0.000 A 
ATOM     10  C   UNL     1      16.364  10.676  38.025  0.00  0.00    +0.000 A 
ENDROOT
BRANCH   1  13
ATOM     11  O   UNL     1      17.069   9.593  34.722  0.00  0.00    +0.000 OA
ATOM     12  C   UNL     1      17.050  10.856  34.675  0.00  0.00    +0.000 C 
ATOM     13  N   UNL     1      17.226  11.528  35.916  0.00  0.00    +0.000 NA
BRANCH  12  14
ATOM     14  C   UNL     1      16.856  11.588  33.395  0.00  0.00    +0.000 C 
BRANCH  14  15
ATOM     15  C   UNL     1      15.445  11.317  32.919  0.00  0.00    +0.000 C 
ATOM     16  C   UNL     1      14.780  12.454  32.192  0.00  0.00    +0.000 C 
ATOM     17  C   UNL     1      14.454  11.458  31.073  0.00  0.00    +0.000 C 
ATOM     18  C   UNL     1      15.526  10.516  31.613  0.00  0.00    +0.000 C 
ENDBRANCH  14  15
ENDBRANCH  12  14
ENDBRANCH   1  13
BRANCH   6  19
ATOM     19  N   UNL     1      15.674   9.140  41.335  0.00  0.00    +0.000 N 
ATOM     20  O   UNL     1      15.313   7.963  41.381  0.00  0.00    +0.000 OA
ATOM     21  O   UNL     1      16.235   9.763  42.427  0.00  0.00    +0.000 OA
ENDBRANCH   6  19
TORSDOF 4
ENDMDL
MODEL 2
REMARK VINA RESULT:      -6.7     30.259     33.198
REMARK  Name = 
REMARK  4 active torsions:
REMARK  status: ('A' for Active; 'I' for Inactive)
REMARK    1  A    between atoms: C_2  and  C_3
REMARK    2  A    between atoms: C_3  and  C_4
REMARK    3  A    between atoms: N_8  and  C_9
REMARK    4  A    between atoms: C_14  and  N_15
REMARK                            x       y       z     vdW  Elec       q    Type
REMARK                         _______ _______ _______ _____ _____    ______ ____
ROOT
ATOM      1  C   UNL     1      32.518  21.548  11.009  0.00  0.00    +0.000 A 
ATOM      2  C   UNL     1      33.674  21.139  11.642  0.00  0.00    +0.000 A 
ATOM      3  C   UNL     1      34.587  20.284  11.107  0.00  0.00    +0.000 A 
ATOM      4  C   UNL     1      34.343  19.791   9.843  0.00  0.00    +0.000 A 
ATOM      5  C   UNL     1      33.207  20.164   9.162  0.00  0.00    +0.000 A 
ATOM      6  C   UNL     1      32.969  19.663   7.893  0.00  0.00    +0.000 A 
ATOM      7  C   UNL     1      31.813  20.079   7.270  0.00  0.00    +0.000 A 
ATOM      8  C   UNL     1      30.902  20.947   7.834  0.00  0.00    +0.000 A 
ATOM      9  C   UNL     1      31.156  21.434   9.098  0.00  0.00    +0.000 A 
ATOM     10  C   UNL     1      32.290  21.045   9.746  0.00  0.00    +0.000 A 
ENDROOT
BRANCH   1  13
ATOM     11  O   UNL     1      30.700  20.808  12.919  0.00  0.00    +0.000 OA
ATOM     12  C   UNL     1      30.654  22.029  12.596  0.00  0.00    +0.000 C 
ATOM     13  N   UNL     1      31.586  22.447  11.606  0.00  0.00    +0.000 NA
BRANCH  12  14
ATOM     14  C   UNL     1      29.682  22.967  13.217  0.00  0.00    +0.000 C 
BRANCH  14  15
ATOM     15  C   UNL     1      28.705  23.398  12.143  0.00  0.00    +0.000 C 
ATOM     16  C   UNL     1      28.047  22.278  11.385  0.00  0.00    +0.000 C 
ATOM     17  C   UNL     1      26.703  22.948  11.698  0.00  0.00    +0.000 C 
ATOM     18  C   UNL     1      27.371  23.739  12.818  0.00  0.00    +0.000 C 
ENDBRANCH  14  15
ENDBRANCH  12  14
ENDBRANCH   1  13
BRANCH   6  19
ATOM     19  N   UNL     1      33.897  18.767   7.294  0.00  0.00    +0.000 N 
ATOM     20  O   UNL     1      33.653  17.560   7.362  0.00  0.00    +0.000 OA
ATOM     21  O   UNL     1      35.027  19.236   6.662  0.00  0.00    +0.000 OA
ENDBRANCH   6  19
TORSDOF 4
ENDMDL
MODEL 3
REMARK VINA RESULT:      -6.6      2.427      6.943
REMARK  Name = 
REMARK  4 active torsions:
REMARK  status: ('A' for Active; 'I' for Inactive)
REMARK    1  A    between atoms: C_2  and  C_3
REMARK    2  A    between atoms: C_3  and  C_4
REMARK    3  A    between atoms: N_8  and  C_9
REMARK    4  A    between atoms: C_14  and  N_15
REMARK                            x       y       z     vdW  Elec       q    Type
REMARK                         _______ _______ _______ _____ _____    ______ ____
ROOT
ATOM      1  C   UNL     1      17.262  10.200  37.019  0.00  0.00    +0.000 A 
ATOM      2  C   UNL     1      18.117   9.345  36.355  0.00  0.00    +0.000 A 
ATOM      3  C   UNL     1      18.157   9.187  35.003  0.00  0.00    +0.000 A 
ATOM      4  C   UNL     1      17.282   9.933  34.243  0.00  0.00    +0.000 A 
ATOM      5  C   UNL     1      16.405  10.803  34.849  0.00  0.00    +0.000 A 
ATOM      6  C   UNL     1      15.529  11.548  34.078  0.00  0.00    +0.000 A 
ATOM      7  C   UNL     1      14.681  12.398  34.752  0.00  0.00    +0.000 A 
ATOM      8  C   UNL     1      14.659  12.540  36.123  0.00  0.00    +0.000 A 
ATOM      9  C   UNL     1      15.538  11.790  36.874  0.00  0.00    +0.000 A 
ATOM     10  C   UNL     1      16.393  10.937  36.242  0.00  0.00    +0.000 A 
ENDROOT
BRANCH   1  13
ATOM     11  O   UNL     1      18.507   8.454  38.724  0.00  0.00    +0.000 OA
ATOM     12  C   UNL     1      17.909   9.410  39.295  0.00  0.00    +0.000 C 
ATOM     13  N   UNL     1      17.252  10.336  38.438  0.00  0.00    +0.000 NA
BRANCH  12  14
ATOM     14  C   UNL     1      17.898   9.553  40.776  0.00  0.00    +0.000 C 
BRANCH  14  15
ATOM     15  C   UNL     1      16.530   9.134  41.269  0.00  0.00    +0.000 C 
ATOM     16  C   UNL     1      16.304   7.650  41.361  0.00  0.00    +0.000 C 
ATOM     17  C   UNL     1      15.829   7.881  42.801  0.00  0.00    +0.000 C 
ATOM     18  C   UNL     1      16.518   9.241  42.799  0.00  0.00    +0.000 C 
ENDBRANCH  14  15
ENDBRANCH  12  14
ENDBRANCH   1  13
BRANCH   6  19
ATOM     19  N   UNL     1      15.536  11.415  32.661  0.00  0.00    +0.000 N 
ATOM     20  O   UNL     1      14.802  10.559  32.163  0.00  0.00    +0.000 OA
ATOM     21  O   UNL     1      16.336  12.218  31.880  0.00  0.00    +0.000 OA
ENDBRANCH   6  19
TORSDOF 4
ENDMDL
MODEL 4
REMARK VINA RESULT:      -6.5     19.988     22.274
REMARK  Name = 
REMARK  4 active torsions:
REMARK  status: ('A' for Active; 'I' for Inactive)
REMARK    1  A    between atoms: C_2  and  C_3
REMARK    2  A    between atoms: C_3  and  C_4
REMARK    3  A    between atoms: N_8  and  C_9
REMARK    4  A    between atoms: C_14  and  N_15
REMARK                            x       y       z     vdW  Elec       q    Type
REMARK                         _______ _______ _______ _____ _____    ______ ____
ROOT
ATOM      1  C   UNL     1      17.720  -7.440  26.560  0.00  0.00    +0.000 A 
ATOM      2  C   UNL     1      17.697  -6.108  26.920  0.00  0.00    +0.000 A 
ATOM      3  C   UNL     1      18.697  -5.220  26.663  0.00  0.00    +0.000 A 
ATOM      4  C   UNL     1      19.811  -5.682  25.997  0.00  0.00    +0.000 A 
ATOM      5  C   UNL     1      19.891  -7.001  25.611  0.00  0.00    +0.000 A 
ATOM      6  C   UNL     1      21.015  -7.457  24.943  0.00  0.00    +0.000 A 
ATOM      7  C   UNL     1      21.026  -8.788  24.588  0.00  0.00    +0.000 A 
ATOM      8  C   UNL     1      20.000  -9.668  24.859  0.00  0.00    +0.000 A 
ATOM      9  C   UNL     1      18.891  -9.195  25.527  0.00  0.00    +0.000 A 
ATOM     10  C   UNL     1      18.843  -7.884  25.894  0.00  0.00    +0.000 A 
ENDROOT
BRANCH   1  13
ATOM     11  O   UNL     1      15.551  -7.797  24.926  0.00  0.00    +0.000 OA
ATOM     12  C   UNL     1      15.538  -8.499  25.977  0.00  0.00    +0.000 C 
ATOM     13  N   UNL     1      16.651  -8.337  26.848  0.00  0.00    +0.000 NA
BRANCH  12  14
ATOM     14  C   UNL     1      14.423  -9.435  26.279  0.00  0.00    +0.000 C 
BRANCH  14  15
ATOM     15  C   UNL     1      13.136  -8.637  26.268  0.00  0.00    +0.000 C 
ATOM     16  C   UNL     1      12.236  -8.882  25.088  0.00  0.00    +0.000 C 
ATOM     17  C   UNL     1      11.099  -9.117  26.091  0.00  0.00    +0.000 C 
ATOM     18  C   UNL     1      12.131  -9.336  27.193  0.00  0.00    +0.000 C 
ENDBRANCH  14  15
ENDBRANCH  12  14
ENDBRANCH   1  13
BRANCH   6  19
ATOM     19  N   UNL     1      22.084  -6.564  24.653  0.00  0.00    +0.000 N 
ATOM     20  O   UNL     1      23.083  -6.614  25.374  0.00  0.00    +0.000 OA
ATOM     21  O   UNL     1      22.000  -5.677  23.603  0.00  0.00    +0.000 OA
ENDBRANCH   6  19
TORSDOF 4
ENDMDL
MODEL 5
REMARK VINA RESULT:      -6.5     19.064     22.305
REMARK  Name = 
REMARK  4 active torsions:
REMARK  status: ('A' for Active; 'I' for Inactive)
REMARK    1  A    between atoms: C_2  and  C_3
REMARK    2  A    between atoms: C_3  and  C_4
REMARK    3  A    between atoms: N_8  and  C_9
REMARK    4  A    between atoms: C_14  and  N_15
REMARK                            x       y       z     vdW  Elec       q    Type
REMARK                         _______ _______ _______ _____ _____    ______ ____
ROOT
ATOM      1  C   UNL     1      27.697  22.666  26.024  0.00  0.00    +0.000 A 
ATOM      2  C   UNL     1      26.455  22.807  25.439  0.00  0.00    +0.000 A 
ATOM      3  C   UNL     1      26.235  23.368  24.219  0.00  0.00    +0.000 A 
ATOM      4  C   UNL     1      27.328  23.828  23.516  0.00  0.00    +0.000 A 
ATOM      5  C   UNL     1      28.592  23.714  24.047  0.00  0.00    +0.000 A 
ATOM      6  C   UNL     1      29.684  24.179  23.334  0.00  0.00    +0.000 A 
ATOM      7  C   UNL     1      30.918  24.032  23.928  0.00  0.00    +0.000 A 
ATOM      8  C   UNL     1      31.116  23.460  25.166  0.00  0.00    +0.000 A 
ATOM      9  C   UNL     1      30.016  23.004  25.861  0.00  0.00    +0.000 A 
ATOM     10  C   UNL     1      28.779  23.132  25.306  0.00  0.00    +0.000 A 
ENDROOT
BRANCH   1  13
ATOM     11  O   UNL     1      27.432  24.028  28.386  0.00  0.00    +0.000 OA
ATOM     12  C   UNL     1      27.740  22.809  28.514  0.00  0.00    +0.000 C 
ATOM     13  N   UNL     1      27.885  22.072  27.306  0.00  0.00    +0.000 NA
BRANCH  12  14
ATOM     14  C   UNL     1      27.937  22.188  29.852  0.00  0.00    +0.000 C 
BRANCH  14  15
ATOM     15  C   UNL     1      29.087  22.904  30.526  0.00  0.00    +0.000 C 
ATOM     16  C   UNL     1      29.737  22.156  31.659  0.00  0.00    +0.000 C 
ATOM     17  C   UNL     1      31.081  22.413  30.967  0.00  0.00    +0.000 C 
ATOM     18  C   UNL     1      30.343  22.711  29.666  0.00  0.00    +0.000 C 
ENDBRANCH  14  15
ENDBRANCH  12  14
ENDBRANCH   1  13
BRANCH   6  19
ATOM     19  N   UNL     1      29.500  24.772  22.054  0.00  0.00    +0.000 N 
ATOM     20  O   UNL     1      29.653  24.055  21.064  0.00  0.00    +0.000 OA
ATOM     21  O   UNL     1      29.161  26.101  21.934  0.00  0.00    +0.000 OA
ENDBRANCH   6  19
TORSDOF 4
ENDMDL
MODEL 6
REMARK VINA RESULT:      -6.4     18.650     21.463
REMARK  Name = 
REMARK  4 active torsions:
REMARK  status: ('A' for Active; 'I' for Inactive)
REMARK    1  A    between atoms: C_2  and  C_3
REMARK    2  A    between atoms: C_3  and  C_4
REMARK    3  A    between atoms: N_8  and  C_9
REMARK    4  A    between atoms: C_14  and  N_15
REMARK                            x       y       z     vdW  Elec       q    Type
REMARK                         _______ _______ _______ _____ _____    ______ ____
ROOT
ATOM      1  C   UNL     1      28.954  22.550  26.305  0.00  0.00    +0.000 A 
ATOM      2  C   UNL     1      30.098  22.370  25.555  0.00  0.00    +0.000 A 
ATOM      3  C   UNL     1      30.205  22.653  24.228  0.00  0.00    +0.000 A 
ATOM      4  C   UNL     1      29.094  23.156  23.586  0.00  0.00    +0.000 A 
ATOM      5  C   UNL     1      27.924  23.358  24.282  0.00  0.00    +0.000 A 
ATOM      6  C   UNL     1      26.812  23.864  23.630  0.00  0.00    +0.000 A 
ATOM      7  C   UNL     1      25.676  24.040  24.388  0.00  0.00    +0.000 A 
ATOM      8  C   UNL     1      25.592  23.745  25.732  0.00  0.00    +0.000 A 
ATOM      9  C   UNL     1      26.709  23.242  26.364  0.00  0.00    +0.000 A 
ATOM     10  C   UNL     1      27.852  23.054  25.646  0.00  0.00    +0.000 A 
ENDROOT
BRANCH   1  13
ATOM     11  O   UNL     1      29.905  24.191  28.280  0.00  0.00    +0.000 OA
ATOM     12  C   UNL     1      29.388  23.115  28.695  0.00  0.00    +0.000 C 
ATOM     13  N   UNL     1      28.883  22.240  27.694  0.00  0.00    +0.000 NA
BRANCH  12  14
ATOM     14  C   UNL     1      29.314  22.791  30.145  0.00  0.00    +0.000 C 
BRANCH  14  15
ATOM     15  C   UNL     1      28.019  23.362  30.680  0.00  0.00    +0.000 C 
ATOM     16  C   UNL     1      27.375  24.415  29.820  0.00  0.00    +0.000 C 
ATOM     17  C   UNL     1      26.079  23.601  29.912  0.00  0.00    +0.000 C 
ATOM     18  C   UNL     1      26.888  22.381  30.343  0.00  0.00    +0.000 C 
ENDBRANCH  14  15
ENDBRANCH  12  14
ENDBRANCH   1  13
BRANCH   6  19
ATOM     19  N   UNL     1      26.879  24.174  22.243  0.00  0.00    +0.000 N 
ATOM     20  O   UNL     1      26.339  23.395  21.455  0.00  0.00    +0.000 OA
ATOM     21  O   UNL     1      27.525  25.308  21.802  0.00  0.00    +0.000 OA
ENDBRANCH   6  19
TORSDOF 4
ENDMDL
MODEL 7
REMARK VINA RESULT:      -6.3     19.723     21.802
REMARK  Name = 
REMARK  4 active torsions:
REMARK  status: ('A' for Active; 'I' for Inactive)
REMARK    1  A    between atoms: C_2  and  C_3
REMARK    2  A    between atoms: C_3  and  C_4
REMARK    3  A    between atoms: N_8  and  C_9
REMARK    4  A    between atoms: C_14  and  N_15
REMARK                            x       y       z     vdW  Elec       q    Type
REMARK                         _______ _______ _______ _____ _____    ______ ____
ROOT
ATOM      1  C   UNL     1      27.859  23.017  27.469  0.00  0.00    +0.000 A 
ATOM      2  C   UNL     1      26.573  23.455  27.712  0.00  0.00    +0.000 A 
ATOM      3  C   UNL     1      25.701  23.862  26.750  0.00  0.00    +0.000 A 
ATOM      4  C   UNL     1      26.129  23.836  25.441  0.00  0.00    +0.000 A 
ATOM      5  C   UNL     1      27.401  23.408  25.136  0.00  0.00    +0.000 A 
ATOM      6  C   UNL     1      27.824  23.385  23.818  0.00  0.00    +0.000 A 
ATOM      7  C   UNL     1      29.109  22.946  23.587  0.00  0.00    +0.000 A 
ATOM      8  C   UNL     1      29.975  22.538  24.580  0.00  0.00    +0.000 A 
ATOM      9  C   UNL     1      29.536  22.568  25.886  0.00  0.00    +0.000 A 
ATOM     10  C   UNL     1      28.271  22.998  26.153  0.00  0.00    +0.000 A 
ENDROOT
BRANCH   1  13
ATOM     11  O   UNL     1      29.369  24.740  28.970  0.00  0.00    +0.000 OA
ATOM     12  C   UNL     1      29.513  23.520  29.268  0.00  0.00    +0.000 C 
ATOM     13  N   UNL     1      28.742  22.598  28.507  0.00  0.00    +0.000 NA
BRANCH  12  14
ATOM     14  C   UNL     1      30.435  23.082  30.350  0.00  0.00    +0.000 C 
BRANCH  14  15
ATOM     15  C   UNL     1      31.293  21.963  29.799  0.00  0.00    +0.000 C 
ATOM     16  C   UNL     1      32.389  22.393  28.863  0.00  0.00    +0.000 C 
ATOM     17  C   UNL     1      33.356  21.578  29.731  0.00  0.00    +0.000 C 
ATOM     18  C   UNL     1      32.334  21.590  30.863  0.00  0.00    +0.000 C 
ENDBRANCH  14  15
ENDBRANCH  12  14
ENDBRANCH   1  13
BRANCH   6  19
ATOM     19  N   UNL     1      26.945  23.803  22.780  0.00  0.00    +0.000 N 
ATOM     20  O   UNL     1      27.087  24.942  22.333  0.00  0.00    +0.000 OA
ATOM     21  O   UNL     1      25.972  22.957  22.295  0.00  0.00    +0.000 OA
ENDBRANCH   6  19
TORSDOF 4
ENDMDL
MODEL 8
REMARK VINA RESULT:      -6.2     20.764     23.634
REMARK  Name = 
REMARK  4 active torsions:
REMARK  status: ('A' for Active; 'I' for Inactive)
REMARK    1  A    between atoms: C_2  and  C_3
REMARK    2  A    between atoms: C_3  and  C_4
REMARK    3  A    between atoms: N_8  and  C_9
REMARK    4  A    between atoms: C_14  and  N_15
REMARK                            x       y       z     vdW  Elec       q    Type
REMARK                         _______ _______ _______ _____ _____    ______ ____
ROOT
ATOM      1  C   UNL     1      30.133  23.069  25.579  0.00  0.00    +0.000 A 
ATOM      2  C   UNL     1      29.432  22.490  26.617  0.00  0.00    +0.000 A 
ATOM      3  C   UNL     1      28.086  22.292  26.626  0.00  0.00    +0.000 A 
ATOM      4  C   UNL     1      27.370  22.697  25.520  0.00  0.00    +0.000 A 
ATOM      5  C   UNL     1      28.013  23.280  24.453  0.00  0.00    +0.000 A 
ATOM      6  C   UNL     1      27.286  23.685  23.346  0.00  0.00    +0.000 A 
ATOM      7  C   UNL     1      27.996  24.261  22.316  0.00  0.00    +0.000 A 
ATOM      8  C   UNL     1      29.362  24.450  22.331  0.00  0.00    +0.000 A 
ATOM      9  C   UNL     1      30.068  24.042  23.442  0.00  0.00    +0.000 A 
ATOM     10  C   UNL     1      29.400  23.468  24.481  0.00  0.00    +0.000 A 
ENDROOT
BRANCH   1  13
ATOM     11  O   UNL     1      31.365  25.126  26.903  0.00  0.00    +0.000 OA
ATOM     12  C   UNL     1      32.153  24.338  26.307  0.00  0.00    +0.000 C 
ATOM     13  N   UNL     1      31.545  23.258  25.610  0.00  0.00    +0.000 NA
BRANCH  12  14
ATOM     14  C   UNL     1      33.627  24.535  26.338  0.00  0.00    +0.000 C 
BRANCH  14  15
ATOM     15  C   UNL     1      34.068  24.936  24.947  0.00  0.00    +0.000 C 
ATOM     16  C   UNL     1      34.996  26.118  24.880  0.00  0.00    +0.000 C 
ATOM     17  C   UNL     1      35.924  25.254  24.017  0.00  0.00    +0.000 C 
ATOM     18  C   UNL     1      35.208  24.003  24.518  0.00  0.00    +0.000 C 
ENDBRANCH  14  15
ENDBRANCH  12  14
ENDBRANCH   1  13
BRANCH   6  19
ATOM     19  N   UNL     1      25.876  23.498  23.312  0.00  0.00    +0.000 N 
ATOM     20  O   UNL     1      25.196  24.123  24.127  0.00  0.00    +0.000 OA
ATOM     21  O   UNL     1      25.298  22.647  22.397  0.00  0.00    +0.000 OA
ENDBRANCH   6  19
TORSDOF 4
ENDMDL
MODEL 9
REMARK VINA RESULT:      -6.2     19.617     21.459
REMARK  Name = 
REMARK  4 active torsions:
REMARK  status: ('A' for Active; 'I' for Inactive)
REMARK    1  A    between atoms: C_2  and  C_3
REMARK    2  A    between atoms: C_3  and  C_4
REMARK    3  A    between atoms: N_8  and  C_9
REMARK    4  A    between atoms: C_14  and  N_15
REMARK                            x       y       z     vdW  Elec       q    Type
REMARK                         _______ _______ _______ _____ _____    ______ ____
ROOT
ATOM      1  C   UNL     1      30.155  22.356  26.487  0.00  0.00    +0.000 A 
ATOM      2  C   UNL     1      30.585  22.404  25.177  0.00  0.00    +0.000 A 
ATOM      3  C   UNL     1      29.818  22.803  24.125  0.00  0.00    +0.000 A 
ATOM      4  C   UNL     1      28.520  23.186  24.386  0.00  0.00    +0.000 A 
ATOM      5  C   UNL     1      28.035  23.160  25.673  0.00  0.00    +0.000 A 
ATOM      6  C   UNL     1      26.729  23.546  25.926  0.00  0.00    +0.000 A 
ATOM      7  C   UNL     1      26.311  23.495  27.238  0.00  0.00    +0.000 A 
ATOM      8  C   UNL     1      27.108  23.087  28.286  0.00  0.00    +0.000 A 
ATOM      9  C   UNL     1      28.405  22.706  28.014  0.00  0.00    +0.000 A 
ATOM     10  C   UNL     1      28.854  22.743  26.729  0.00  0.00    +0.000 A 
ENDROOT
BRANCH   1  13
ATOM     11  O   UNL     1      31.965  23.986  27.741  0.00  0.00    +0.000 OA
ATOM     12  C   UNL     1      31.922  22.805  28.190  0.00  0.00    +0.000 C 
ATOM     13  N   UNL     1      30.992  21.933  27.560  0.00  0.00    +0.000 NA
BRANCH  12  14
ATOM     14  C   UNL     1      32.795  22.362  29.309  0.00  0.00    +0.000 C 
BRANCH  14  15
ATOM     15  C   UNL     1      31.988  21.421  30.178  0.00  0.00    +0.000 C 
ATOM     16  C   UNL     1      32.645  21.012  31.468  0.00  0.00    +0.000 C 
ATOM     17  C   UNL     1      31.354  21.435  32.180  0.00  0.00    +0.000 C 
ATOM     18  C   UNL     1      30.959  22.252  30.955  0.00  0.00    +0.000 C 
ENDBRANCH  14  15
ENDBRANCH  12  14
ENDBRANCH   1  13
BRANCH   6  19
ATOM     19  N   UNL     1      25.891  23.970  24.857  0.00  0.00    +0.000 N 
ATOM     20  O   UNL     1      25.735  25.182  24.698  0.00  0.00    +0.000 OA
ATOM     21  O   UNL     1      25.280  23.052  24.032  0.00  0.00    +0.000 OA
ENDBRANCH   6  19
TORSDOF 4
ENDMDL
MODEL 10
REMARK VINA RESULT:      -6.1     19.352     21.955
REMARK  Name = 
REMARK  4 active torsions:
REMARK  status: ('A' for Active; 'I' for Inactive)
REMARK    1  A    between atoms: C_2  and  C_3
REMARK    2  A    between atoms: C_3  and  C_4
REMARK    3  A    between atoms: N_8  and  C_9
REMARK    4  A    between atoms: C_14  and  N_15
REMARK                            x       y       z     vdW  Elec       q    Type
REMARK                         _______ _______ _______ _____ _____    ______ ____
ROOT
ATOM      1  C   UNL     1      29.572  22.528  26.636  0.00  0.00    +0.000 A 
ATOM      2  C   UNL     1      30.872  22.683  26.197  0.00  0.00    +0.000 A 
ATOM      3  C   UNL     1      31.222  23.097  24.949  0.00  0.00    +0.000 A 
ATOM      4  C   UNL     1      30.209  23.382  24.059  0.00  0.00    +0.000 A 
ATOM      5  C   UNL     1      28.893  23.247  24.439  0.00  0.00    +0.000 A 
ATOM      6  C   UNL     1      27.882  23.535  23.538  0.00  0.00    +0.000 A 
ATOM      7  C   UNL     1      26.589  23.377  23.987  0.00  0.00    +0.000 A 
ATOM      8  C   UNL     1      26.260  22.956  25.258  0.00  0.00    +0.000 A 
ATOM      9  C   UNL     1      27.281  22.674  26.141  0.00  0.00    +0.000 A 
ATOM     10  C   UNL     1      28.572  22.818  25.732  0.00  0.00    +0.000 A 
ENDROOT
BRANCH   1  13
ATOM     11  O   UNL     1      29.657  24.152  28.840  0.00  0.00    +0.000 OA
ATOM     12  C   UNL     1      29.303  22.962  29.078  0.00  0.00    +0.000 C 
ATOM     13  N   UNL     1      29.248  22.092  27.954  0.00  0.00    +0.000 NA
BRANCH  12  14
ATOM     14  C   UNL     1      28.965  22.506  30.453  0.00  0.00    +0.000 C 
BRANCH  14  15
ATOM     15  C   UNL     1      30.206  22.656  31.306  0.00  0.00    +0.000 C 
ATOM     16  C   UNL     1      30.271  21.760  32.513  0.00  0.00    +0.000 C 
ATOM     17  C   UNL     1      31.667  21.336  32.037  0.00  0.00    +0.000 C 
ATOM     18  C   UNL     1      31.341  21.863  30.644  0.00  0.00    +0.000 C 
ENDBRANCH  14  15
ENDBRANCH  12  14
ENDBRANCH   1  13
BRANCH   6  19
ATOM     19  N   UNL     1      28.202  23.970  22.222  0.00  0.00    +0.000 N 
ATOM     20  O   UNL     1      28.330  23.109  21.349  0.00  0.00    +0.000 OA
ATOM     21  O   UNL     1      28.361  25.309  21.939  0.00  0.00    +0.000 OA
ENDBRANCH   6  19
TORSDOF 4
ENDMDL
