MODEL 1
REMARK VINA RESULT:      -8.5      0.000      0.000
REMARK  Name = 
REMARK  5 active torsions:
REMARK  status: ('A' for Active; 'I' for Inactive)
REMARK    1  A    between atoms: C_2  and  N_3
REMARK    2  A    between atoms: C_12  and  N_13
REMARK    3  A    between atoms: C_14  and  C_16
REMARK    4  A    between atoms: C_16  and  N_17
REMARK    5  A    between atoms: N_17  and  C_18
REMARK                            x       y       z     vdW  Elec       q    Type
REMARK                         _______ _______ _______ _____ _____    ______ ____
ROOT
ATOM      1  N   UNL     1      41.246   6.174  16.159  0.00  0.00    +0.000 N 
ATOM      2  C   UNL     1      41.324   6.438  17.462  0.00  0.00    +0.000 A 
ATOM      3  C   UNL     1      42.277   7.117  18.194  0.00  0.00    +0.000 A 
ATOM      4  C   UNL     1      42.137   7.264  19.569  0.00  0.00    +0.000 A 
ATOM      5  C   UNL     1      41.042   6.733  20.219  0.00  0.00    +0.000 A 
ATOM      6  C   UNL     1      40.085   6.055  19.509  0.00  0.00    +0.000 A 
ATOM      7  C   UNL     1      40.250   5.921  18.128  0.00  0.00    +0.000 A 
ATOM      8  C   UNL     1      39.478   5.310  17.176  0.00  0.00    +0.000 A 
ATOM      9  C   UNL     1      38.289   4.622  17.224  0.00  0.00    +0.000 A 
ATOM     10  C   UNL     1      37.706   4.087  16.073  0.00  0.00    +0.000 A 
ATOM     11  C   UNL     1      38.373   4.276  14.876  0.00  0.00    +0.000 A 
ATOM     12  C   UNL     1      39.559   4.958  14.791  0.00  0.00    +0.000 A 
ATOM     13  C   UNL     1      40.113   5.479  15.969  0.00  0.00    +0.000 A 
ENDROOT
BRANCH  10  14
ATOM     14  N   UNL     1      36.482   3.378  16.122  0.00  0.00    +0.000 NA
ATOM     15  C   UNL     1      36.471   1.964  16.009  0.00  0.00    +0.000 C 
ATOM     16  O   UNL     1      37.583   1.352  15.860  0.00  0.00    +0.000 OA
BRANCH  15  17
ATOM     17  C   UNL     1      35.211   1.175  16.055  0.00  0.00    +0.000 C 
BRANCH  17  18
ATOM     18  N   UNL     1      35.605  -0.205  16.237  0.00  0.00    +0.000 NA
BRANCH  18  19
ATOM     19  C   UNL     1      35.281  -0.505  17.761  0.00  0.00    +0.000 C 
ATOM     20  C   UNL     1      34.174  -1.706  17.504  0.00  0.00    +0.000 C 
ATOM     21  C   UNL     1      34.420  -2.464  16.318  0.00  0.00    +0.000 C 
ATOM     22  C   UNL     1      35.828  -2.414  15.808  0.00  0.00    +0.000 C 
ATOM     23  C   UNL     1      36.727  -2.446  16.991  0.00  0.00    +0.000 A 
ATOM     24  C   UNL     1      37.765  -3.348  17.141  0.00  0.00    +0.000 A 
ATOM     25  C   UNL     1      38.547  -3.276  18.284  0.00  0.00    +0.000 A 
ATOM     26  C   UNL     1      38.295  -2.325  19.251  0.00  0.00    +0.000 A 
ATOM     27  C   UNL     1      37.243  -1.423  19.084  0.00  0.00    +0.000 A 
ATOM     28  C   UNL     1      36.512  -1.537  17.951  0.00  0.00    +0.000 A 
ENDBRANCH  18  19
ENDBRANCH  17  18
ENDBRANCH  15  17
ENDBRANCH  10  14
BRANCH   1  30
ATOM     29  C   UNL     1      41.785   7.934  14.594  0.00  0.00    +0.000 C 
ATOM     30  C   UNL     1      42.200   6.555  15.109  0.00  0.00    +0.000 C 
ENDBRANCH   1  30
TORSDOF 5
ENDMDL
MODEL 2
REMARK VINA RESULT:      -8.3      2.021      8.829
REMARK  Name = 
REMARK  5 active torsions:
REMARK  status: ('A' for Active; 'I' for Inactive)
REMARK    1  A    between atoms: C_2  and  N_3
REMARK    2  A    between atoms: C_12  and  N_13
REMARK    3  A    between atoms: C_14  and  C_16
REMARK    4  A    between atoms: C_16  and  N_17
REMARK    5  A    between atoms: N_17  and  C_18
REMARK                            x       y       z     vdW  Elec       q    Type
REMARK                         _______ _______ _______ _____ _____    ______ ____
ROOT
ATOM      1  N   UNL     1      37.705  -1.119  15.118  0.00  0.00    +0.000 N 
ATOM      2  C   UNL     1      36.576  -1.345  15.788  0.00  0.00    +0.000 A 
ATOM      3  C   UNL     1      35.933  -2.523  16.110  0.00  0.00    +0.000 A 
ATOM      4  C   UNL     1      34.744  -2.503  16.829  0.00  0.00    +0.000 A 
ATOM      5  C   UNL     1      34.191  -1.304  17.229  0.00  0.00    +0.000 A 
ATOM      6  C   UNL     1      34.815  -0.124  16.919  0.00  0.00    +0.000 A 
ATOM      7  C   UNL     1      36.009  -0.171  16.195  0.00  0.00    +0.000 A 
ATOM      8  C   UNL     1      36.841   0.821  15.747  0.00  0.00    +0.000 A 
ATOM      9  C   UNL     1      36.810   2.192  15.841  0.00  0.00    +0.000 A 
ATOM     10  C   UNL     1      37.811   2.986  15.279  0.00  0.00    +0.000 A 
ATOM     11  C   UNL     1      38.841   2.339  14.620  0.00  0.00    +0.000 A 
ATOM     12  C   UNL     1      38.905   0.974  14.508  0.00  0.00    +0.000 A 
ATOM     13  C   UNL     1      37.879   0.211  15.086  0.00  0.00    +0.000 A 
ENDROOT
BRANCH  10  14
ATOM     14  N   UNL     1      37.780   4.398  15.375  0.00  0.00    +0.000 NA
ATOM     15  C   UNL     1      38.265   5.046  16.539  0.00  0.00    +0.000 C 
ATOM     16  O   UNL     1      38.726   4.329  17.492  0.00  0.00    +0.000 OA
BRANCH  15  17
ATOM     17  C   UNL     1      38.254   6.525  16.686  0.00  0.00    +0.000 C 
BRANCH  17  18
ATOM     18  N   UNL     1      38.839   6.808  17.978  0.00  0.00    +0.000 NA
BRANCH  18  19
ATOM     19  C   UNL     1      39.478   8.250  17.810  0.00  0.00    +0.000 C 
ATOM     20  C   UNL     1      39.227   8.770  19.359  0.00  0.00    +0.000 C 
ATOM     21  C   UNL     1      39.260   7.717  20.326  0.00  0.00    +0.000 C 
ATOM     22  C   UNL     1      39.989   6.479  19.898  0.00  0.00    +0.000 C 
ATOM     23  C   UNL     1      41.186   6.914  19.132  0.00  0.00    +0.000 A 
ATOM     24  C   UNL     1      42.472   6.491  19.415  0.00  0.00    +0.000 A 
ATOM     25  C   UNL     1      43.512   6.954  18.623  0.00  0.00    +0.000 A 
ATOM     26  C   UNL     1      43.270   7.820  17.577  0.00  0.00    +0.000 A 
ATOM     27  C   UNL     1      41.966   8.237  17.307  0.00  0.00    +0.000 A 
ATOM     28  C   UNL     1      40.988   7.756  18.108  0.00  0.00    +0.000 A 
ENDBRANCH  18  19
ENDBRANCH  17  18
ENDBRANCH  15  17
ENDBRANCH  10  14
BRANCH   1  30
ATOM     29  C   UNL     1      39.623  -2.511  15.587  0.00  0.00    +0.000 C 
ATOM     30  C   UNL     1      38.604  -2.114  14.518  0.00  0.00    +0.000 C 
ENDBRANCH   1  30
TORSDOF 5
ENDMDL
MODEL 3
REMARK VINA RESULT:      -8.3      4.145      5.546
REMARK  Name = 
REMARK  5 active torsions:
REMARK  status: ('A' for Active; 'I' for Inactive)
REMARK    1  A    between atoms: C_2  and  N_3
REMARK    2  A    between atoms: C_12  and  N_13
REMARK    3  A    between atoms: C_14  and  C_16
REMARK    4  A    between atoms: C_16  and  N_17
REMARK    5  A    between atoms: N_17  and  C_18
REMARK                            x       y       z     vdW  Elec       q    Type
REMARK                         _______ _______ _______ _____ _____    ______ ____
ROOT
ATOM      1  N   UNL     1      35.913   4.261  13.619  0.00  0.00    +0.000 N 
ATOM      2  C   UNL     1      36.847   3.898  12.742  0.00  0.00    +0.000 A 
ATOM      3  C   UNL     1      37.434   4.591  11.703  0.00  0.00    +0.000 A 
ATOM      4  C   UNL     1      38.403   3.988  10.911  0.00  0.00    +0.000 A 
ATOM      5  C   UNL     1      38.790   2.686  11.153  0.00  0.00    +0.000 A 
ATOM      6  C   UNL     1      38.218   1.980  12.180  0.00  0.00    +0.000 A 
ATOM      7  C   UNL     1      37.246   2.610  12.961  0.00  0.00    +0.000 A 
ATOM      8  C   UNL     1      36.514   2.169  14.032  0.00  0.00    +0.000 A 
ATOM      9  C   UNL     1      36.465   0.977  14.714  0.00  0.00    +0.000 A 
ATOM     10  C   UNL     1      35.604   0.789  15.797  0.00  0.00    +0.000 A 
ATOM     11  C   UNL     1      34.797   1.853  16.160  0.00  0.00    +0.000 A 
ATOM     12  C   UNL     1      34.821   3.056  15.503  0.00  0.00    +0.000 A 
ATOM     13  C   UNL     1      35.699   3.205  14.420  0.00  0.00    +0.000 A 
ENDROOT
BRANCH  10  14
ATOM     14  N   UNL     1      35.552  -0.438  16.500  0.00  0.00    +0.000 NA
ATOM     15  C   UNL     1      36.265  -0.596  17.716  0.00  0.00    +0.000 C 
ATOM     16  O   UNL     1      36.950   0.390  18.157  0.00  0.00    +0.000 OA
BRANCH  15  17
ATOM     17  C   UNL     1      36.241  -1.864  18.491  0.00  0.00    +0.000 C 
BRANCH  17  18
ATOM     18  N   UNL     1      36.623  -2.910  17.566  0.00  0.00    +0.000 NA
BRANCH  18  19
ATOM     19  C   UNL     1      38.208  -2.853  17.547  0.00  0.00    +0.000 C 
ATOM     20  C   UNL     1      38.471  -4.481  17.422  0.00  0.00    +0.000 C 
ATOM     21  C   UNL     1      37.440  -5.172  16.713  0.00  0.00    +0.000 C 
ATOM     22  C   UNL     1      36.612  -4.320  15.799  0.00  0.00    +0.000 C 
ATOM     23  C   UNL     1      37.529  -3.347  15.150  0.00  0.00    +0.000 A 
ATOM     24  C   UNL     1      37.609  -3.164  13.782  0.00  0.00    +0.000 A 
ATOM     25  C   UNL     1      38.495  -2.217  13.289  0.00  0.00    +0.000 A 
ATOM     26  C   UNL     1      39.280  -1.473  14.147  0.00  0.00    +0.000 A 
ATOM     27  C   UNL     1      39.186  -1.672  15.525  0.00  0.00    +0.000 A 
ATOM     28  C   UNL     1      38.307  -2.608  15.952  0.00  0.00    +0.000 A 
ENDBRANCH  18  19
ENDBRANCH  17  18
ENDBRANCH  15  17
ENDBRANCH  10  14
BRANCH   1  30
ATOM     29  C   UNL     1      36.197   6.533  14.391  0.00  0.00    +0.000 C 
ATOM     30  C   UNL     1      35.231   5.558  13.715  0.00  0.00    +0.000 C 
ENDBRANCH   1  30
TORSDOF 5
ENDMDL
MODEL 4
REMARK VINA RESULT:      -8.2      2.084      9.030
REMARK  Name = 
REMARK  5 active torsions:
REMARK  status: ('A' for Active; 'I' for Inactive)
REMARK    1  A    between atoms: C_2  and  N_3
REMARK    2  A    between atoms: C_12  and  N_13
REMARK    3  A    between atoms: C_14  and  C_16
REMARK    4  A    between atoms: C_16  and  N_17
REMARK    5  A    between atoms: N_17  and  C_18
REMARK                            x       y       z     vdW  Elec       q    Type
REMARK                         _______ _______ _______ _____ _____    ______ ____
ROOT
ATOM      1  N   UNL     1      36.083  -1.194  15.603  0.00  0.00    +0.000 N 
ATOM      2  C   UNL     1      36.960  -1.568  14.673  0.00  0.00    +0.000 A 
ATOM      3  C   UNL     1      37.261  -2.812  14.159  0.00  0.00    +0.000 A 
ATOM      4  C   UNL     1      38.235  -2.953  13.177  0.00  0.00    +0.000 A 
ATOM      5  C   UNL     1      38.914  -1.849  12.706  0.00  0.00    +0.000 A 
ATOM      6  C   UNL     1      38.629  -0.604  13.205  0.00  0.00    +0.000 A 
ATOM      7  C   UNL     1      37.646  -0.490  14.191  0.00  0.00    +0.000 A 
ATOM      8  C   UNL     1      37.156   0.597  14.864  0.00  0.00    +0.000 A 
ATOM      9  C   UNL     1      37.441   1.941  14.822  0.00  0.00    +0.000 A 
ATOM     10  C   UNL     1      36.776   2.857  15.639  0.00  0.00    +0.000 A 
ATOM     11  C   UNL     1      35.813   2.359  16.499  0.00  0.00    +0.000 A 
ATOM     12  C   UNL     1      35.501   1.026  16.567  0.00  0.00    +0.000 A 
ATOM     13  C   UNL     1      36.193   0.137  15.730  0.00  0.00    +0.000 A 
ENDROOT
BRANCH  10  14
ATOM     14  N   UNL     1      37.070   4.240  15.597  0.00  0.00    +0.000 NA
ATOM     15  C   UNL     1      37.992   4.804  16.515  0.00  0.00    +0.000 C 
ATOM     16  O   UNL     1      38.544   4.037  17.376  0.00  0.00    +0.000 OA
BRANCH  15  17
ATOM     17  C   UNL     1      38.334   6.250  16.509  0.00  0.00    +0.000 C 
BRANCH  17  18
ATOM     18  N   UNL     1      39.063   6.500  17.733  0.00  0.00    +0.000 NA
BRANCH  18  19
ATOM     19  C   UNL     1      40.041   7.694  17.369  0.00  0.00    +0.000 C 
ATOM     20  C   UNL     1      39.441   8.790  18.452  0.00  0.00    +0.000 C 
ATOM     21  C   UNL     1      38.919   8.190  19.640  0.00  0.00    +0.000 C 
ATOM     22  C   UNL     1      39.436   6.815  19.942  0.00  0.00    +0.000 C 
ATOM     23  C   UNL     1      40.880   6.800  19.593  0.00  0.00    +0.000 A 
ATOM     24  C   UNL     1      41.874   6.389  20.462  0.00  0.00    +0.000 A 
ATOM     25  C   UNL     1      43.189   6.405  20.023  0.00  0.00    +0.000 A 
ATOM     26  C   UNL     1      43.500   6.824  18.745  0.00  0.00    +0.000 A 
ATOM     27  C   UNL     1      42.484   7.237  17.882  0.00  0.00    +0.000 A 
ATOM     28  C   UNL     1      41.219   7.201  18.360  0.00  0.00    +0.000 A 
ENDBRANCH  18  19
ENDBRANCH  17  18
ENDBRANCH  15  17
ENDBRANCH  10  14
BRANCH   1  30
ATOM     29  C   UNL     1      35.896  -2.514  17.618  0.00  0.00    +0.000 C 
ATOM     30  C   UNL     1      35.160  -2.051  16.360  0.00  0.00    +0.000 C 
ENDBRANCH   1  30
TORSDOF 5
ENDMDL
MODEL 5
REMARK VINA RESULT:      -8.1      2.165      2.990
REMARK  Name = 
REMARK  5 active torsions:
REMARK  status: ('A' for Active; 'I' for Inactive)
REMARK    1  A    between atoms: C_2  and  N_3
REMARK    2  A    between atoms: C_12  and  N_13
REMARK    3  A    between atoms: C_14  and  C_16
REMARK    4  A    between atoms: C_16  and  N_17
REMARK    5  A    between atoms: N_17  and  C_18
REMARK                            x       y       z     vdW  Elec       q    Type
REMARK                         _______ _______ _______ _____ _____    ______ ____
ROOT
ATOM      1  N   UNL     1      38.351   7.683  16.461  0.00  0.00    +0.000 N 
ATOM      2  C   UNL     1      38.920   7.681  17.666  0.00  0.00    +0.000 A 
ATOM      3  C   UNL     1      39.434   8.711  18.427  0.00  0.00    +0.000 A 
ATOM      4  C   UNL     1      39.987   8.457  19.676  0.00  0.00    +0.000 A 
ATOM      5  C   UNL     1      40.029   7.170  20.171  0.00  0.00    +0.000 A 
ATOM      6  C   UNL     1      39.523   6.133  19.430  0.00  0.00    +0.000 A 
ATOM      7  C   UNL     1      38.973   6.416  18.177  0.00  0.00    +0.000 A 
ATOM      8  C   UNL     1      38.404   5.606  17.231  0.00  0.00    +0.000 A 
ATOM      9  C   UNL     1      38.170   4.253  17.163  0.00  0.00    +0.000 A 
ATOM     10  C   UNL     1      37.559   3.671  16.052  0.00  0.00    +0.000 A 
ATOM     11  C   UNL     1      37.194   4.510  15.014  0.00  0.00    +0.000 A 
ATOM     12  C   UNL     1      37.411   5.863  15.048  0.00  0.00    +0.000 A 
ATOM     13  C   UNL     1      38.029   6.410  16.181  0.00  0.00    +0.000 A 
ENDROOT
BRANCH  10  14
ATOM     14  N   UNL     1      37.319   2.277  15.981  0.00  0.00    +0.000 NA
ATOM     15  C   UNL     1      36.021   1.763  16.230  0.00  0.00    +0.000 C 
ATOM     16  O   UNL     1      35.082   2.581  16.517  0.00  0.00    +0.000 OA
BRANCH  15  17
ATOM     17  C   UNL     1      35.719   0.309  16.167  0.00  0.00    +0.000 C 
BRANCH  17  18
ATOM     18  N   UNL     1      36.991  -0.361  15.998  0.00  0.00    +0.000 NA
BRANCH  18  19
ATOM     19  C   UNL     1      36.863  -1.092  14.596  0.00  0.00    +0.000 C 
ATOM     20  C   UNL     1      38.481  -1.211  14.277  0.00  0.00    +0.000 C 
ATOM     21  C   UNL     1      39.286  -1.333  15.451  0.00  0.00    +0.000 C 
ATOM     22  C   UNL     1      38.570  -1.835  16.668  0.00  0.00    +0.000 C 
ATOM     23  C   UNL     1      37.625  -2.891  16.220  0.00  0.00    +0.000 A 
ATOM     24  C   UNL     1      37.576  -4.159  16.769  0.00  0.00    +0.000 A 
ATOM     25  C   UNL     1      36.642  -5.060  16.278  0.00  0.00    +0.000 A 
ATOM     26  C   UNL     1      35.782  -4.698  15.262  0.00  0.00    +0.000 A 
ATOM     27  C   UNL     1      35.846  -3.415  14.719  0.00  0.00    +0.000 A 
ATOM     28  C   UNL     1      36.774  -2.576  15.234  0.00  0.00    +0.000 A 
ENDBRANCH  18  19
ENDBRANCH  17  18
ENDBRANCH  15  17
ENDBRANCH  10  14
BRANCH   1  30
ATOM     29  C   UNL     1      36.746   9.417  15.958  0.00  0.00    +0.000 C 
ATOM     30  C   UNL     1      38.111   8.837  15.586  0.00  0.00    +0.000 C 
ENDBRANCH   1  30
TORSDOF 5
ENDMDL
MODEL 6
REMARK VINA RESULT:      -8.0      1.990      4.070
REMARK  Name = 
REMARK  5 active torsions:
REMARK  status: ('A' for Active; 'I' for Inactive)
REMARK    1  A    between atoms: C_2  and  N_3
REMARK    2  A    between atoms: C_12  and  N_13
REMARK    3  A    between atoms: C_14  and  C_16
REMARK    4  A    between atoms: C_16  and  N_17
REMARK    5  A    between atoms: N_17  and  C_18
REMARK                            x       y       z     vdW  Elec       q    Type
REMARK                         _______ _______ _______ _____ _____    ______ ____
ROOT
ATOM      1  N   UNL     1      42.799   6.825  19.707  0.00  0.00    +0.000 N 
ATOM      2  C   UNL     1      43.643   6.922  18.681  0.00  0.00    +0.000 A 
ATOM      3  C   UNL     1      44.995   7.195  18.642  0.00  0.00    +0.000 A 
ATOM      4  C   UNL     1      45.669   7.245  17.428  0.00  0.00    +0.000 A 
ATOM      5  C   UNL     1      44.994   7.023  16.245  0.00  0.00    +0.000 A 
ATOM      6  C   UNL     1      43.650   6.749  16.264  0.00  0.00    +0.000 A 
ATOM      7  C   UNL     1      42.996   6.705  17.498  0.00  0.00    +0.000 A 
ATOM      8  C   UNL     1      41.689   6.462  17.825  0.00  0.00    +0.000 A 
ATOM      9  C   UNL     1      40.567   6.181  17.083  0.00  0.00    +0.000 A 
ATOM     10  C   UNL     1      39.324   5.973  17.685  0.00  0.00    +0.000 A 
ATOM     11  C   UNL     1      39.263   6.060  19.064  0.00  0.00    +0.000 A 
ATOM     12  C   UNL     1      40.362   6.338  19.836  0.00  0.00    +0.000 A 
ATOM     13  C   UNL     1      41.592   6.542  19.194  0.00  0.00    +0.000 A 
ENDROOT
BRANCH  10  14
ATOM     14  N   UNL     1      38.169   5.683  16.920  0.00  0.00    +0.000 NA
ATOM     15  C   UNL     1      38.020   4.415  16.303  0.00  0.00    +0.000 C 
ATOM     16  O   UNL     1      38.947   3.548  16.452  0.00  0.00    +0.000 OA
BRANCH  15  17
ATOM     17  C   UNL     1      36.824   4.064  15.493  0.00  0.00    +0.000 C 
BRANCH  17  18
ATOM     18  N   UNL     1      37.049   2.722  15.000  0.00  0.00    +0.000 NA
BRANCH  18  19
ATOM     19  C   UNL     1      35.591   2.132  14.796  0.00  0.00    +0.000 C 
ATOM     20  C   UNL     1      35.923   1.218  13.459  0.00  0.00    +0.000 C 
ATOM     21  C   UNL     1      37.264   0.727  13.423  0.00  0.00    +0.000 C 
ATOM     22  C   UNL     1      37.959   0.666  14.750  0.00  0.00    +0.000 C 
ATOM     23  C   UNL     1      36.958   0.216  15.751  0.00  0.00    +0.000 A 
ATOM     24  C   UNL     1      37.157  -0.850  16.608  0.00  0.00    +0.000 A 
ATOM     25  C   UNL     1      36.155  -1.173  17.512  0.00  0.00    +0.000 A 
ATOM     26  C   UNL     1      34.984  -0.444  17.555  0.00  0.00    +0.000 A 
ATOM     27  C   UNL     1      34.799   0.628  16.682  0.00  0.00    +0.000 A 
ATOM     28  C   UNL     1      35.807   0.900  15.821  0.00  0.00    +0.000 A 
ENDBRANCH  18  19
ENDBRANCH  17  18
ENDBRANCH  15  17
ENDBRANCH  10  14
BRANCH   1  30
ATOM     29  C   UNL     1      43.624   5.650  21.650  0.00  0.00    +0.000 C 
ATOM     30  C   UNL     1      43.102   6.992  21.135  0.00  0.00    +0.000 C 
ENDBRANCH   1  30
TORSDOF 5
ENDMDL
MODEL 7
REMARK VINA RESULT:      -7.9      2.215      3.401
REMARK  Name = 
REMARK  5 active torsions:
REMARK  status: ('A' for Active; 'I' for Inactive)
REMARK    1  A    between atoms: C_2  and  N_3
REMARK    2  A    between atoms: C_12  and  N_13
REMARK    3  A    between atoms: C_14  and  C_16
REMARK    4  A    between atoms: C_16  and  N_17
REMARK    5  A    between atoms: N_17  and  C_18
REMARK                            x       y       z     vdW  Elec       q    Type
REMARK                         _______ _______ _______ _____ _____    ______ ____
ROOT
ATOM      1  N   UNL     1      37.413   5.868  15.162  0.00  0.00    +0.000 N 
ATOM      2  C   UNL     1      38.070   5.968  16.317  0.00  0.00    +0.000 A 
ATOM      3  C   UNL     1      38.712   7.038  16.906  0.00  0.00    +0.000 A 
ATOM      4  C   UNL     1      39.338   6.893  18.138  0.00  0.00    +0.000 A 
ATOM      5  C   UNL     1      39.325   5.677  18.788  0.00  0.00    +0.000 A 
ATOM      6  C   UNL     1      38.692   4.602  18.219  0.00  0.00    +0.000 A 
ATOM      7  C   UNL     1      38.070   4.774  16.980  0.00  0.00    +0.000 A 
ATOM      8  C   UNL     1      37.375   3.903  16.183  0.00  0.00    +0.000 A 
ATOM      9  C   UNL     1      37.042   2.575  16.303  0.00  0.00    +0.000 A 
ATOM     10  C   UNL     1      36.308   1.913  15.317  0.00  0.00    +0.000 A 
ATOM     11  C   UNL     1      35.927   2.646  14.208  0.00  0.00    +0.000 A 
ATOM     12  C   UNL     1      36.242   3.972  14.055  0.00  0.00    +0.000 A 
ATOM     13  C   UNL     1      36.981   4.601  15.067  0.00  0.00    +0.000 A 
ENDROOT
BRANCH  10  14
ATOM     14  N   UNL     1      35.965   0.545  15.440  0.00  0.00    +0.000 NA
ATOM     15  C   UNL     1      35.259   0.086  16.581  0.00  0.00    +0.000 C 
ATOM     16  O   UNL     1      34.946   0.930  17.489  0.00  0.00    +0.000 OA
BRANCH  15  17
ATOM     17  C   UNL     1      34.875  -1.340  16.755  0.00  0.00    +0.000 C 
BRANCH  17  18
ATOM     18  N   UNL     1      35.742  -2.101  15.882  0.00  0.00    +0.000 NA
BRANCH  18  19
ATOM     19  C   UNL     1      36.955  -2.526  16.811  0.00  0.00    +0.000 C 
ATOM     20  C   UNL     1      36.830  -4.158  16.581  0.00  0.00    +0.000 C 
ATOM     21  C   UNL     1      36.323  -4.516  15.294  0.00  0.00    +0.000 C 
ATOM     22  C   UNL     1      36.473  -3.467  14.234  0.00  0.00    +0.000 C 
ATOM     23  C   UNL     1      37.798  -2.824  14.433  0.00  0.00    +0.000 A 
ATOM     24  C   UNL     1      38.744  -2.692  13.433  0.00  0.00    +0.000 A 
ATOM     25  C   UNL     1      39.943  -2.062  13.732  0.00  0.00    +0.000 A 
ATOM     26  C   UNL     1      40.187  -1.579  15.001  0.00  0.00    +0.000 A 
ATOM     27  C   UNL     1      39.222  -1.722  15.998  0.00  0.00    +0.000 A 
ATOM     28  C   UNL     1      38.070  -2.343  15.654  0.00  0.00    +0.000 A 
ENDBRANCH  18  19
ENDBRANCH  17  18
ENDBRANCH  15  17
ENDBRANCH  10  14
BRANCH   1  30
ATOM     29  C   UNL     1      35.898   7.645  14.544  0.00  0.00    +0.000 C 
ATOM     30  C   UNL     1      37.192   6.924  14.164  0.00  0.00    +0.000 C 
ENDBRANCH   1  30
TORSDOF 5
ENDMDL
MODEL 8
REMARK VINA RESULT:      -7.8      1.348      2.779
REMARK  Name = 
REMARK  5 active torsions:
REMARK  status: ('A' for Active; 'I' for Inactive)
REMARK    1  A    between atoms: C_2  and  N_3
REMARK    2  A    between atoms: C_12  and  N_13
REMARK    3  A    between atoms: C_14  and  C_16
REMARK    4  A    between atoms: C_16  and  N_17
REMARK    5  A    between atoms: N_17  and  C_18
REMARK                            x       y       z     vdW  Elec       q    Type
REMARK                         _______ _______ _______ _____ _____    ______ ____
ROOT
ATOM      1  N   UNL     1      40.199   6.340  17.785  0.00  0.00    +0.000 N 
ATOM      2  C   UNL     1      41.140   6.624  16.886  0.00  0.00    +0.000 A 
ATOM      3  C   UNL     1      42.215   7.488  16.940  0.00  0.00    +0.000 A 
ATOM      4  C   UNL     1      43.072   7.616  15.853  0.00  0.00    +0.000 A 
ATOM      5  C   UNL     1      42.859   6.880  14.707  0.00  0.00    +0.000 A 
ATOM      6  C   UNL     1      41.796   6.016  14.634  0.00  0.00    +0.000 A 
ATOM      7  C   UNL     1      40.950   5.907  15.740  0.00  0.00    +0.000 A 
ATOM      8  C   UNL     1      39.832   5.145  15.957  0.00  0.00    +0.000 A 
ATOM      9  C   UNL     1      39.148   4.232  15.190  0.00  0.00    +0.000 A 
ATOM     10  C   UNL     1      38.008   3.583  15.667  0.00  0.00    +0.000 A 
ATOM     11  C   UNL     1      37.588   3.895  16.948  0.00  0.00    +0.000 A 
ATOM     12  C   UNL     1      38.246   4.799  17.741  0.00  0.00    +0.000 A 
ATOM     13  C   UNL     1      39.387   5.430  17.226  0.00  0.00    +0.000 A 
ENDROOT
BRANCH  10  14
ATOM     14  N   UNL     1      37.303   2.644  14.877  0.00  0.00    +0.000 NA
ATOM     15  C   UNL     1      37.777   1.312  14.758  0.00  0.00    +0.000 C 
ATOM     16  O   UNL     1      38.847   0.986  15.376  0.00  0.00    +0.000 OA
BRANCH  15  17
ATOM     17  C   UNL     1      37.071   0.290  13.942  0.00  0.00    +0.000 C 
BRANCH  17  18
ATOM     18  N   UNL     1      37.346  -0.987  14.565  0.00  0.00    +0.000 NA
BRANCH  18  19
ATOM     19  C   UNL     1      36.090  -1.243  15.499  0.00  0.00    +0.000 C 
ATOM     20  C   UNL     1      35.774  -2.788  15.001  0.00  0.00    +0.000 C 
ATOM     21  C   UNL     1      36.942  -3.506  14.598  0.00  0.00    +0.000 C 
ATOM     22  C   UNL     1      38.236  -2.983  15.146  0.00  0.00    +0.000 C 
ATOM     23  C   UNL     1      37.985  -2.568  16.550  0.00  0.00    +0.000 A 
ATOM     24  C   UNL     1      38.741  -3.001  17.624  0.00  0.00    +0.000 A 
ATOM     25  C   UNL     1      38.421  -2.537  18.892  0.00  0.00    +0.000 A 
ATOM     26  C   UNL     1      37.370  -1.662  19.077  0.00  0.00    +0.000 A 
ATOM     27  C   UNL     1      36.617  -1.237  17.982  0.00  0.00    +0.000 A 
ATOM     28  C   UNL     1      36.971  -1.720  16.769  0.00  0.00    +0.000 A 
ENDBRANCH  18  19
ENDBRANCH  17  18
ENDBRANCH  15  17
ENDBRANCH  10  14
BRANCH   1  30
ATOM     29  C   UNL     1      41.061   6.186  20.037  0.00  0.00    +0.000 C 
ATOM     30  C   UNL     1      40.053   6.900  19.136  0.00  0.00    +0.000 C 
ENDBRANCH   1  30
TORSDOF 5
ENDMDL
MODEL 9
REMARK VINA RESULT:      -7.6      2.567      3.316
REMARK  Name = 
REMARK  5 active torsions:
REMARK  status: ('A' for Active; 'I' for Inactive)
REMARK    1  A    between atoms: C_2  and  N_3
REMARK    2  A    between atoms: C_12  and  N_13
REMARK    3  A    between atoms: C_14  and  C_16
REMARK    4  A    between atoms: C_16  and  N_17
REMARK    5  A    between atoms: N_17  and  C_18
REMARK                            x       y       z     vdW  Elec       q    Type
REMARK                         _______ _______ _______ _____ _____    ______ ____
ROOT
ATOM      1  N   UNL     1      40.840   8.720  17.956  0.00  0.00    +0.000 N 
ATOM      2  C   UNL     1      40.169   9.199  19.002  0.00  0.00    +0.000 A 
ATOM      3  C   UNL     1      40.285  10.393  19.685  0.00  0.00    +0.000 A 
ATOM      4  C   UNL     1      39.457  10.670  20.766  0.00  0.00    +0.000 A 
ATOM      5  C   UNL     1      38.508   9.754  21.171  0.00  0.00    +0.000 A 
ATOM      6  C   UNL     1      38.378   8.562  20.506  0.00  0.00    +0.000 A 
ATOM      7  C   UNL     1      39.223   8.308  19.422  0.00  0.00    +0.000 A 
ATOM      8  C   UNL     1      39.325   7.230  18.583  0.00  0.00    +0.000 A 
ATOM      9  C   UNL     1      38.656   6.033  18.499  0.00  0.00    +0.000 A 
ATOM     10  C   UNL     1      38.970   5.086  17.522  0.00  0.00    +0.000 A 
ATOM     11  C   UNL     1      39.986   5.399  16.637  0.00  0.00    +0.000 A 
ATOM     12  C   UNL     1      40.675   6.583  16.691  0.00  0.00    +0.000 A 
ATOM     13  C   UNL     1      40.330   7.508  17.688  0.00  0.00    +0.000 A 
ENDROOT
BRANCH  10  14
ATOM     14  N   UNL     1      38.281   3.853  17.435  0.00  0.00    +0.000 NA
ATOM     15  C   UNL     1      37.299   3.653  16.431  0.00  0.00    +0.000 C 
ATOM     16  O   UNL     1      37.053   4.606  15.616  0.00  0.00    +0.000 OA
BRANCH  15  17
ATOM     17  C   UNL     1      36.550   2.375  16.299  0.00  0.00    +0.000 C 
BRANCH  17  18
ATOM     18  N   UNL     1      37.508   1.389  15.850  0.00  0.00    +0.000 NA
BRANCH  18  19
ATOM     19  C   UNL     1      36.626   0.115  15.510  0.00  0.00    +0.000 C 
ATOM     20  C   UNL     1      36.719   0.233  13.864  0.00  0.00    +0.000 C 
ATOM     21  C   UNL     1      37.941   0.813  13.402  0.00  0.00    +0.000 C 
ATOM     22  C   UNL     1      39.087   0.742  14.366  0.00  0.00    +0.000 C 
ATOM     23  C   UNL     1      39.021  -0.584  15.033  0.00  0.00    +0.000 A 
ATOM     24  C   UNL     1      40.085  -1.465  15.094  0.00  0.00    +0.000 A 
ATOM     25  C   UNL     1      39.911  -2.673  15.754  0.00  0.00    +0.000 A 
ATOM     26  C   UNL     1      38.701  -2.988  16.338  0.00  0.00    +0.000 A 
ATOM     27  C   UNL     1      37.638  -2.087  16.266  0.00  0.00    +0.000 A 
ATOM     28  C   UNL     1      37.861  -0.925  15.611  0.00  0.00    +0.000 A 
ENDBRANCH  18  19
ENDBRANCH  17  18
ENDBRANCH  15  17
ENDBRANCH  10  14
BRANCH   1  30
ATOM     29  C   UNL     1      43.242   8.975  17.902  0.00  0.00    +0.000 C 
ATOM     30  C   UNL     1      41.932   9.370  17.219  0.00  0.00    +0.000 C 
ENDBRANCH   1  30
TORSDOF 5
ENDMDL
MODEL 10
REMARK VINA RESULT:      -7.6      3.091      4.576
REMARK  Name = 
REMARK  5 active torsions:
REMARK  status: ('A' for Active; 'I' for Inactive)
REMARK    1  A    between atoms: C_2  and  N_3
REMARK    2  A    between atoms: C_12  and  N_13
REMARK    3  A    between atoms: C_14  and  C_16
REMARK    4  A    between atoms: C_16  and  N_17
REMARK    5  A    between atoms: N_17  and  C_18
REMARK                            x       y       z     vdW  Elec       q    Type
REMARK                         _______ _______ _______ _____ _____    ______ ____
ROOT
ATOM      1  N   UNL     1      41.294   9.015  19.933  0.00  0.00    +0.000 N 
ATOM      2  C   UNL     1      42.219   8.288  20.558  0.00  0.00    +0.000 A 
ATOM      3  C   UNL     1      43.331   8.665  21.283  0.00  0.00    +0.000 A 
ATOM      4  C   UNL     1      44.162   7.705  21.849  0.00  0.00    +0.000 A 
ATOM      5  C   UNL     1      43.885   6.363  21.693  0.00  0.00    +0.000 A 
ATOM      6  C   UNL     1      42.785   5.969  20.976  0.00  0.00    +0.000 A 
ATOM      7  C   UNL     1      41.966   6.953  20.417  0.00  0.00    +0.000 A 
ATOM      8  C   UNL     1      40.824   6.867  19.666  0.00  0.00    +0.000 A 
ATOM      9  C   UNL     1      40.081   5.810  19.196  0.00  0.00    +0.000 A 
ATOM     10  C   UNL     1      38.930   6.007  18.432  0.00  0.00    +0.000 A 
ATOM     11  C   UNL     1      38.561   7.313  18.163  0.00  0.00    +0.000 A 
ATOM     12  C   UNL     1      39.277   8.391  18.615  0.00  0.00    +0.000 A 
ATOM     13  C   UNL     1      40.429   8.151  19.379  0.00  0.00    +0.000 A 
ENDROOT
BRANCH  10  14
ATOM     14  N   UNL     1      38.165   4.919  17.948  0.00  0.00    +0.000 NA
ATOM     15  C   UNL     1      38.359   4.441  16.626  0.00  0.00    +0.000 C 
ATOM     16  O   UNL     1      39.232   5.014  15.890  0.00  0.00    +0.000 OA
BRANCH  15  17
ATOM     17  C   UNL     1      37.581   3.301  16.074  0.00  0.00    +0.000 C 
BRANCH  17  18
ATOM     18  N   UNL     1      38.505   2.535  15.266  0.00  0.00    +0.000 NA
BRANCH  18  19
ATOM     19  C   UNL     1      37.642   1.311  14.743  0.00  0.00    +0.000 C 
ATOM     20  C   UNL     1      37.801   1.621  13.127  0.00  0.00    +0.000 C 
ATOM     21  C   UNL     1      39.038   2.251  12.786  0.00  0.00    +0.000 C 
ATOM     22  C   UNL     1      40.144   2.066  13.780  0.00  0.00    +0.000 C 
ATOM     23  C   UNL     1      40.057   0.671  14.284  0.00  0.00    +0.000 A 
ATOM     24  C   UNL     1      41.121  -0.212  14.284  0.00  0.00    +0.000 A 
ATOM     25  C   UNL     1      40.926  -1.488  14.791  0.00  0.00    +0.000 A 
ATOM     26  C   UNL     1      39.695  -1.869  15.284  0.00  0.00    +0.000 A 
ATOM     27  C   UNL     1      38.632  -0.966  15.276  0.00  0.00    +0.000 A 
ATOM     28  C   UNL     1      38.876   0.265  14.771  0.00  0.00    +0.000 A 
ENDBRANCH  18  19
ENDBRANCH  17  18
ENDBRANCH  15  17
ENDBRANCH  10  14
BRANCH   1  30
ATOM     29  C   UNL     1      40.359  10.957  21.024  0.00  0.00    +0.000 C 
ATOM     30  C   UNL     1      41.213  10.479  19.849  0.00  0.00    +0.000 C 
ENDBRANCH   1  30
TORSDOF 5
ENDMDL
