MODEL 1
REMARK VINA RESULT:      -6.9      0.000      0.000
REMARK  Name = 
REMARK  2 active torsions:
REMARK  status: ('A' for Active; 'I' for Inactive)
REMARK    1  A    between atoms: C_3  and  C_4
REMARK    2  A    between atoms: C_4  and  C_5
REMARK                            x       y       z     vdW  Elec       q    Type
REMARK                         _______ _______ _______ _____ _____    ______ ____
ROOT
ATOM      1  O   UNL     1      30.551  22.300  26.912  0.00  0.00    +0.000 OA
ATOM      2  C   UNL     1      29.772  22.635  26.006  0.00  0.00    +0.000 A 
ATOM      3  C   UNL     1      30.230  23.013  24.736  0.00  0.00    +0.000 A 
ATOM      4  C   UNL     1      29.338  23.378  23.760  0.00  0.00    +0.000 A 
ATOM      5  O   UNL     1      29.693  23.763  22.489  0.00  0.00    +0.000 OA
ATOM      6  N   UNL     1      27.988  23.365  24.059  0.00  0.00    +0.000 N 
ATOM      7  C   UNL     1      27.676  23.007  25.237  0.00  0.00    +0.000 A 
ATOM      8  N   UNL     1      28.433  22.636  26.257  0.00  0.00    +0.000 N 
ATOM      9  C   UNL     1      27.884  22.299  27.553  0.00  0.00    +0.000 C 
ATOM     10  C   UNL     1      26.757  23.239  27.883  0.00  0.00    +0.000 C 
ATOM     11  C   UNL     1      26.253  24.077  26.751  0.00  0.00    +0.000 C 
ATOM     12  C   UNL     1      26.102  23.042  25.480  0.00  0.00    +0.000 C 
ATOM     13  C   UNL     1      25.965  24.305  24.357  0.00  0.00    +0.000 C 
ATOM     14  C   UNL     1      26.837  23.686  23.291  0.00  0.00    +0.000 C 
ENDROOT
BRANCH   3  15
ATOM     15  C   UNL     1      31.696  23.012  24.434  0.00  0.00    +0.000 C 
BRANCH  15  16
ATOM     16  C   UNL     1      32.221  24.344  24.777  0.00  0.00    +0.000 A 
ATOM     17  C   UNL     1      31.432  25.415  25.063  0.00  0.00    +0.000 A 
ATOM     18  C   UNL     1      32.011  26.641  25.383  0.00  0.00    +0.000 A 
ATOM     19  C   UNL     1      33.385  26.757  25.407  0.00  0.00    +0.000 A 
ATOM     20  C   UNL     1      34.218  25.669  25.118  0.00  0.00    +0.000 A 
ATOM     21  C   UNL     1      33.606  24.488  24.809  0.00  0.00    +0.000 A 
ENDBRANCH  15  16
ENDBRANCH   3  15
TORSDOF 2
ENDMDL
MODEL 2
REMARK VINA RESULT:      -6.7      2.192      4.919
REMARK  Name = 
REMARK  2 active torsions:
REMARK  status: ('A' for Active; 'I' for Inactive)
REMARK    1  A    between atoms: C_3  and  C_4
REMARK    2  A    between atoms: C_4  and  C_5
REMARK                            x       y       z     vdW  Elec       q    Type
REMARK                         _______ _______ _______ _____ _____    ______ ____
ROOT
ATOM      1  O   UNL     1      29.980  23.939  22.600  0.00  0.00    +0.000 OA
ATOM      2  C   UNL     1      29.480  23.515  23.653  0.00  0.00    +0.000 A 
ATOM      3  C   UNL     1      28.094  23.398  23.821  0.00  0.00    +0.000 A 
ATOM      4  C   UNL     1      27.577  22.925  25.001  0.00  0.00    +0.000 A 
ATOM      5  O   UNL     1      26.235  22.776  25.257  0.00  0.00    +0.000 OA
ATOM      6  N   UNL     1      28.453  22.570  26.011  0.00  0.00    +0.000 N 
ATOM      7  C   UNL     1      29.689  22.712  25.759  0.00  0.00    +0.000 A 
ATOM      8  N   UNL     1      30.306  23.153  24.675  0.00  0.00    +0.000 N 
ATOM      9  C   UNL     1      31.746  23.282  24.595  0.00  0.00    +0.000 C 
ATOM     10  C   UNL     1      32.279  23.795  25.904  0.00  0.00    +0.000 C 
ATOM     11  C   UNL     1      31.322  23.773  27.054  0.00  0.00    +0.000 C 
ATOM     12  C   UNL     1      30.607  22.291  26.992  0.00  0.00    +0.000 C 
ATOM     13  C   UNL     1      29.371  22.748  28.058  0.00  0.00    +0.000 C 
ATOM     14  C   UNL     1      28.244  22.064  27.322  0.00  0.00    +0.000 C 
ENDROOT
BRANCH   3  15
ATOM     15  C   UNL     1      27.166  23.781  22.711  0.00  0.00    +0.000 C 
BRANCH  15  16
ATOM     16  C   UNL     1      27.094  25.251  22.680  0.00  0.00    +0.000 A 
ATOM     17  C   UNL     1      26.723  26.011  23.746  0.00  0.00    +0.000 A 
ATOM     18  C   UNL     1      26.687  27.399  23.632  0.00  0.00    +0.000 A 
ATOM     19  C   UNL     1      27.028  27.991  22.435  0.00  0.00    +0.000 A 
ATOM     20  C   UNL     1      27.413  27.231  21.324  0.00  0.00    +0.000 A 
ATOM     21  C   UNL     1      27.434  25.875  21.481  0.00  0.00    +0.000 A 
ENDBRANCH  15  16
ENDBRANCH   3  15
TORSDOF 2
ENDMDL
MODEL 3
REMARK VINA RESULT:      -6.6      1.716      2.522
REMARK  Name = 
REMARK  2 active torsions:
REMARK  status: ('A' for Active; 'I' for Inactive)
REMARK    1  A    between atoms: C_3  and  C_4
REMARK    2  A    between atoms: C_4  and  C_5
REMARK                            x       y       z     vdW  Elec       q    Type
REMARK                         _______ _______ _______ _____ _____    ______ ____
ROOT
ATOM      1  O   UNL     1      28.493  22.393  28.840  0.00  0.00    +0.000 OA
ATOM      2  C   UNL     1      27.897  22.831  27.844  0.00  0.00    +0.000 A 
ATOM      3  C   UNL     1      28.399  22.664  26.546  0.00  0.00    +0.000 A 
ATOM      4  C   UNL     1      27.712  23.163  25.469  0.00  0.00    +0.000 A 
ATOM      5  O   UNL     1      28.125  23.048  24.163  0.00  0.00    +0.000 OA
ATOM      6  N   UNL     1      26.522  23.829  25.695  0.00  0.00    +0.000 N 
ATOM      7  C   UNL     1      26.152  23.926  26.906  0.00  0.00    +0.000 A 
ATOM      8  N   UNL     1      26.720  23.494  28.020  0.00  0.00    +0.000 N 
ATOM      9  C   UNL     1      26.156  23.744  29.331  0.00  0.00    +0.000 C 
ATOM     10  C   UNL     1      25.596  25.138  29.381  0.00  0.00    +0.000 C 
ATOM     11  C   UNL     1      25.458  25.835  28.064  0.00  0.00    +0.000 C 
ATOM     12  C   UNL     1      24.781  24.724  27.056  0.00  0.00    +0.000 C 
ATOM     13  C   UNL     1      25.161  25.623  25.670  0.00  0.00    +0.000 C 
ATOM     14  C   UNL     1      25.595  24.454  24.818  0.00  0.00    +0.000 C 
ENDROOT
BRANCH   3  15
ATOM     15  C   UNL     1      29.686  21.932  26.326  0.00  0.00    +0.000 C 
BRANCH  15  16
ATOM     16  C   UNL     1      30.741  22.940  26.125  0.00  0.00    +0.000 A 
ATOM     17  C   UNL     1      31.145  23.811  27.089  0.00  0.00    +0.000 A 
ATOM     18  C   UNL     1      32.155  24.730  26.816  0.00  0.00    +0.000 A 
ATOM     19  C   UNL     1      32.738  24.748  25.566  0.00  0.00    +0.000 A 
ATOM     20  C   UNL     1      32.339  23.861  24.559  0.00  0.00    +0.000 A 
ATOM     21  C   UNL     1      31.346  22.978  24.871  0.00  0.00    +0.000 A 
ENDBRANCH  15  16
ENDBRANCH   3  15
TORSDOF 2
ENDMDL
MODEL 4
REMARK VINA RESULT:      -6.4      2.058      6.035
REMARK  Name = 
REMARK  2 active torsions:
REMARK  status: ('A' for Active; 'I' for Inactive)
REMARK    1  A    between atoms: C_3  and  C_4
REMARK    2  A    between atoms: C_4  and  C_5
REMARK                            x       y       z     vdW  Elec       q    Type
REMARK                         _______ _______ _______ _____ _____    ______ ____
ROOT
ATOM      1  O   UNL     1      26.941  22.320  25.619  0.00  0.00    +0.000 OA
ATOM      2  C   UNL     1      28.037  22.547  26.155  0.00  0.00    +0.000 A 
ATOM      3  C   UNL     1      28.208  22.495  27.545  0.00  0.00    +0.000 A 
ATOM      4  C   UNL     1      29.435  22.753  28.101  0.00  0.00    +0.000 A 
ATOM      5  O   UNL     1      29.698  22.725  29.450  0.00  0.00    +0.000 OA
ATOM      6  N   UNL     1      30.489  23.064  27.262  0.00  0.00    +0.000 N 
ATOM      7  C   UNL     1      30.231  23.085  26.019  0.00  0.00    +0.000 A 
ATOM      8  N   UNL     1      29.103  22.858  25.365  0.00  0.00    +0.000 N 
ATOM      9  C   UNL     1      28.998  22.973  23.926  0.00  0.00    +0.000 C 
ATOM     10  C   UNL     1      29.799  24.155  23.456  0.00  0.00    +0.000 C 
ATOM     11  C   UNL     1      30.736  24.751  24.458  0.00  0.00    +0.000 C 
ATOM     12  C   UNL     1      31.507  23.469  25.145  0.00  0.00    +0.000 C 
ATOM     13  C   UNL     1      32.097  24.403  26.431  0.00  0.00    +0.000 C 
ATOM     14  C   UNL     1      31.850  23.381  27.515  0.00  0.00    +0.000 C 
ENDROOT
BRANCH   3  15
ATOM     15  C   UNL     1      27.054  22.148  28.432  0.00  0.00    +0.000 C 
BRANCH  15  16
ATOM     16  C   UNL     1      26.410  23.409  28.837  0.00  0.00    +0.000 A 
ATOM     17  C   UNL     1      25.774  24.243  27.970  0.00  0.00    +0.000 A 
ATOM     18  C   UNL     1      25.186  25.416  28.437  0.00  0.00    +0.000 A 
ATOM     19  C   UNL     1      25.255  25.721  29.780  0.00  0.00    +0.000 A 
ATOM     20  C   UNL     1      25.904  24.879  30.691  0.00  0.00    +0.000 A 
ATOM     21  C   UNL     1      26.465  23.741  30.189  0.00  0.00    +0.000 A 
ENDBRANCH  15  16
ENDBRANCH   3  15
TORSDOF 2
ENDMDL
MODEL 5
REMARK VINA RESULT:      -6.3      2.132      5.644
REMARK  Name = 
REMARK  2 active torsions:
REMARK  status: ('A' for Active; 'I' for Inactive)
REMARK    1  A    between atoms: C_3  and  C_4
REMARK    2  A    between atoms: C_4  and  C_5
REMARK                            x       y       z     vdW  Elec       q    Type
REMARK                         _______ _______ _______ _____ _____    ______ ____
ROOT
ATOM      1  O   UNL     1      28.040  23.068  23.213  0.00  0.00    +0.000 OA
ATOM      2  C   UNL     1      28.084  23.027  24.452  0.00  0.00    +0.000 A 
ATOM      3  C   UNL     1      26.965  23.316  25.244  0.00  0.00    +0.000 A 
ATOM      4  C   UNL     1      27.052  23.260  26.612  0.00  0.00    +0.000 A 
ATOM      5  O   UNL     1      26.011  23.526  27.469  0.00  0.00    +0.000 OA
ATOM      6  N   UNL     1      28.263  22.916  27.183  0.00  0.00    +0.000 N 
ATOM      7  C   UNL     1      29.216  22.672  26.380  0.00  0.00    +0.000 A 
ATOM      8  N   UNL     1      29.258  22.692  25.058  0.00  0.00    +0.000 N 
ATOM      9  C   UNL     1      30.468  22.420  24.312  0.00  0.00    +0.000 C 
ATOM     10  C   UNL     1      31.643  23.045  25.012  0.00  0.00    +0.000 C 
ATOM     11  C   UNL     1      31.393  23.522  26.408  0.00  0.00    +0.000 C 
ATOM     12  C   UNL     1      30.566  22.302  27.141  0.00  0.00    +0.000 C 
ATOM     13  C   UNL     1      30.095  23.285  28.439  0.00  0.00    +0.000 C 
ATOM     14  C   UNL     1      28.677  22.777  28.536  0.00  0.00    +0.000 C 
ENDROOT
BRANCH   3  15
ATOM     15  C   UNL     1      25.662  23.678  24.603  0.00  0.00    +0.000 C 
BRANCH  15  16
ATOM     16  C   UNL     1      25.562  25.148  24.601  0.00  0.00    +0.000 A 
ATOM     17  C   UNL     1      26.482  25.966  24.021  0.00  0.00    +0.000 A 
ATOM     18  C   UNL     1      26.308  27.347  24.061  0.00  0.00    +0.000 A 
ATOM     19  C   UNL     1      25.201  27.874  24.691  0.00  0.00    +0.000 A 
ATOM     20  C   UNL     1      24.240  27.053  25.295  0.00  0.00    +0.000 A 
ATOM     21  C   UNL     1      24.452  25.706  25.231  0.00  0.00    +0.000 A 
ENDBRANCH  15  16
ENDBRANCH   3  15
TORSDOF 2
ENDMDL
MODEL 6
REMARK VINA RESULT:      -6.3      2.222      3.808
REMARK  Name = 
REMARK  2 active torsions:
REMARK  status: ('A' for Active; 'I' for Inactive)
REMARK    1  A    between atoms: C_3  and  C_4
REMARK    2  A    between atoms: C_4  and  C_5
REMARK                            x       y       z     vdW  Elec       q    Type
REMARK                         _______ _______ _______ _____ _____    ______ ____
ROOT
ATOM      1  O   UNL     1      31.259  23.385  24.102  0.00  0.00    +0.000 OA
ATOM      2  C   UNL     1      30.077  23.358  24.481  0.00  0.00    +0.000 A 
ATOM      3  C   UNL     1      29.682  22.658  25.628  0.00  0.00    +0.000 A 
ATOM      4  C   UNL     1      28.366  22.650  26.015  0.00  0.00    +0.000 A 
ATOM      5  O   UNL     1      27.886  21.993  27.122  0.00  0.00    +0.000 OA
ATOM      6  N   UNL     1      27.448  23.345  25.250  0.00  0.00    +0.000 N 
ATOM      7  C   UNL     1      27.906  23.948  24.231  0.00  0.00    +0.000 A 
ATOM      8  N   UNL     1      29.139  24.030  23.756  0.00  0.00    +0.000 N 
ATOM      9  C   UNL     1      29.459  24.743  22.538  0.00  0.00    +0.000 C 
ATOM     10  C   UNL     1      28.381  24.507  21.517  0.00  0.00    +0.000 C 
ATOM     11  C   UNL     1      27.121  23.883  22.030  0.00  0.00    +0.000 C 
ATOM     12  C   UNL     1      26.765  24.702  23.413  0.00  0.00    +0.000 C 
ATOM     13  C   UNL     1      25.644  23.535  23.917  0.00  0.00    +0.000 C 
ATOM     14  C   UNL     1      26.044  23.527  25.373  0.00  0.00    +0.000 C 
ENDROOT
BRANCH   3  15
ATOM     15  C   UNL     1      30.695  21.919  26.445  0.00  0.00    +0.000 C 
BRANCH  15  16
ATOM     16  C   UNL     1      31.153  22.826  27.511  0.00  0.00    +0.000 A 
ATOM     17  C   UNL     1      31.962  23.898  27.293  0.00  0.00    +0.000 A 
ATOM     18  C   UNL     1      32.345  24.709  28.359  0.00  0.00    +0.000 A 
ATOM     19  C   UNL     1      31.898  24.416  29.630  0.00  0.00    +0.000 A 
ATOM     20  C   UNL     1      31.065  23.318  29.879  0.00  0.00    +0.000 A 
ATOM     21  C   UNL     1      30.716  22.551  28.805  0.00  0.00    +0.000 A 
ENDBRANCH  15  16
ENDBRANCH   3  15
TORSDOF 2
ENDMDL
MODEL 7
REMARK VINA RESULT:      -6.3      2.543      4.322
REMARK  Name = 
REMARK  2 active torsions:
REMARK  status: ('A' for Active; 'I' for Inactive)
REMARK    1  A    between atoms: C_3  and  C_4
REMARK    2  A    between atoms: C_4  and  C_5
REMARK                            x       y       z     vdW  Elec       q    Type
REMARK                         _______ _______ _______ _____ _____    ______ ____
ROOT
ATOM      1  O   UNL     1      27.179  22.468  25.837  0.00  0.00    +0.000 OA
ATOM      2  C   UNL     1      28.112  22.748  26.606  0.00  0.00    +0.000 A 
ATOM      3  C   UNL     1      29.450  22.719  26.189  0.00  0.00    +0.000 A 
ATOM      4  C   UNL     1      30.455  23.034  27.067  0.00  0.00    +0.000 A 
ATOM      5  O   UNL     1      31.792  23.032  26.750  0.00  0.00    +0.000 OA
ATOM      6  N   UNL     1      30.117  23.377  28.363  0.00  0.00    +0.000 N 
ATOM      7  C   UNL     1      28.878  23.375  28.641  0.00  0.00    +0.000 A 
ATOM      8  N   UNL     1      27.824  23.093  27.892  0.00  0.00    +0.000 N 
ATOM      9  C   UNL     1      26.473  23.107  28.410  0.00  0.00    +0.000 C 
ATOM     10  C   UNL     1      26.460  22.532  29.799  0.00  0.00    +0.000 C 
ATOM     11  C   UNL     1      27.797  22.361  30.449  0.00  0.00    +0.000 C 
ATOM     12  C   UNL     1      28.600  23.769  30.160  0.00  0.00    +0.000 C 
ATOM     13  C   UNL     1      30.097  23.104  30.598  0.00  0.00    +0.000 C 
ATOM     14  C   UNL     1      30.901  23.742  29.490  0.00  0.00    +0.000 C 
ENDROOT
BRANCH   3  15
ATOM     15  C   UNL     1      29.790  22.352  24.778  0.00  0.00    +0.000 C 
BRANCH  15  16
ATOM     16  C   UNL     1      29.541  23.535  23.939  0.00  0.00    +0.000 A 
ATOM     17  C   UNL     1      30.105  24.753  24.164  0.00  0.00    +0.000 A 
ATOM     18  C   UNL     1      29.818  25.820  23.316  0.00  0.00    +0.000 A 
ATOM     19  C   UNL     1      28.962  25.632  22.252  0.00  0.00    +0.000 A 
ATOM     20  C   UNL     1      28.369  24.389  22.000  0.00  0.00    +0.000 A 
ATOM     21  C   UNL     1      28.678  23.371  22.856  0.00  0.00    +0.000 A 
ENDBRANCH  15  16
ENDBRANCH   3  15
TORSDOF 2
ENDMDL
MODEL 8
REMARK VINA RESULT:      -6.2      2.841      4.152
REMARK  Name = 
REMARK  2 active torsions:
REMARK  status: ('A' for Active; 'I' for Inactive)
REMARK    1  A    between atoms: C_3  and  C_4
REMARK    2  A    between atoms: C_4  and  C_5
REMARK                            x       y       z     vdW  Elec       q    Type
REMARK                         _______ _______ _______ _____ _____    ______ ____
ROOT
ATOM      1  O   UNL     1      29.568  22.386  24.311  0.00  0.00    +0.000 OA
ATOM      2  C   UNL     1      28.725  22.704  25.165  0.00  0.00    +0.000 A 
ATOM      3  C   UNL     1      27.479  23.238  24.814  0.00  0.00    +0.000 A 
ATOM      4  C   UNL     1      26.573  23.578  25.786  0.00  0.00    +0.000 A 
ATOM      5  O   UNL     1      25.329  24.108  25.539  0.00  0.00    +0.000 OA
ATOM      6  N   UNL     1      26.919  23.381  27.110  0.00  0.00    +0.000 N 
ATOM      7  C   UNL     1      28.071  22.890  27.324  0.00  0.00    +0.000 A 
ATOM      8  N   UNL     1      29.025  22.526  26.483  0.00  0.00    +0.000 N 
ATOM      9  C   UNL     1      30.306  22.018  26.928  0.00  0.00    +0.000 C 
ATOM     10  C   UNL     1      30.759  22.788  28.137  0.00  0.00    +0.000 C 
ATOM     11  C   UNL     1      29.727  23.654  28.787  0.00  0.00    +0.000 C 
ATOM     12  C   UNL     1      28.375  22.720  28.879  0.00  0.00    +0.000 C 
ATOM     13  C   UNL     1      27.376  24.048  29.212  0.00  0.00    +0.000 C 
ATOM     14  C   UNL     1      26.227  23.628  28.326  0.00  0.00    +0.000 C 
ENDROOT
BRANCH   3  15
ATOM     15  C   UNL     1      27.123  23.435  23.374  0.00  0.00    +0.000 C 
BRANCH  15  16
ATOM     16  C   UNL     1      27.846  24.626  22.896  0.00  0.00    +0.000 A 
ATOM     17  C   UNL     1      27.824  25.828  23.534  0.00  0.00    +0.000 A 
ATOM     18  C   UNL     1      28.542  26.903  23.017  0.00  0.00    +0.000 A 
ATOM     19  C   UNL     1      29.270  26.739  21.858  0.00  0.00    +0.000 A 
ATOM     20  C   UNL     1      29.309  25.512  21.183  0.00  0.00    +0.000 A 
ATOM     21  C   UNL     1      28.590  24.486  21.727  0.00  0.00    +0.000 A 
ENDBRANCH  15  16
ENDBRANCH   3  15
TORSDOF 2
ENDMDL
MODEL 9
REMARK VINA RESULT:      -6.2      2.427      4.174
REMARK  Name = 
REMARK  2 active torsions:
REMARK  status: ('A' for Active; 'I' for Inactive)
REMARK    1  A    between atoms: C_3  and  C_4
REMARK    2  A    between atoms: C_4  and  C_5
REMARK                            x       y       z     vdW  Elec       q    Type
REMARK                         _______ _______ _______ _____ _____    ______ ____
ROOT
ATOM      1  O   UNL     1      25.802  24.047  24.849  0.00  0.00    +0.000 OA
ATOM      2  C   UNL     1      26.982  23.841  25.173  0.00  0.00    +0.000 A 
ATOM      3  C   UNL     1      27.981  23.601  24.220  0.00  0.00    +0.000 A 
ATOM      4  C   UNL     1      29.275  23.377  24.615  0.00  0.00    +0.000 A 
ATOM      5  O   UNL     1      30.319  23.133  23.755  0.00  0.00    +0.000 OA
ATOM      6  N   UNL     1      29.565  23.393  25.967  0.00  0.00    +0.000 N 
ATOM      7  C   UNL     1      28.591  23.621  26.749  0.00  0.00    +0.000 A 
ATOM      8  N   UNL     1      27.313  23.849  26.495  0.00  0.00    +0.000 N 
ATOM      9  C   UNL     1      26.333  24.048  27.541  0.00  0.00    +0.000 C 
ATOM     10  C   UNL     1      26.615  23.108  28.681  0.00  0.00    +0.000 C 
ATOM     11  C   UNL     1      27.943  22.422  28.649  0.00  0.00    +0.000 C 
ATOM     12  C   UNL     1      29.031  23.602  28.281  0.00  0.00    +0.000 C 
ATOM     13  C   UNL     1      30.249  22.482  27.909  0.00  0.00    +0.000 C 
ATOM     14  C   UNL     1      30.775  23.197  26.687  0.00  0.00    +0.000 C 
ENDROOT
BRANCH   3  15
ATOM     15  C   UNL     1      27.644  23.596  22.762  0.00  0.00    +0.000 C 
BRANCH  15  16
ATOM     16  C   UNL     1      28.021  24.911  22.214  0.00  0.00    +0.000 A 
ATOM     17  C   UNL     1      27.464  26.084  22.620  0.00  0.00    +0.000 A 
ATOM     18  C   UNL     1      27.882  27.285  22.053  0.00  0.00    +0.000 A 
ATOM     19  C   UNL     1      28.861  27.273  21.081  0.00  0.00    +0.000 A 
ATOM     20  C   UNL     1      29.448  26.079  20.647  0.00  0.00    +0.000 A 
ATOM     21  C   UNL     1      29.007  24.926  21.231  0.00  0.00    +0.000 A 
ENDBRANCH  15  16
ENDBRANCH   3  15
TORSDOF 2
ENDMDL
MODEL 10
REMARK VINA RESULT:      -6.2     23.349     25.158
REMARK  Name = 
REMARK  2 active torsions:
REMARK  status: ('A' for Active; 'I' for Inactive)
REMARK    1  A    between atoms: C_3  and  C_4
REMARK    2  A    between atoms: C_4  and  C_5
REMARK                            x       y       z     vdW  Elec       q    Type
REMARK                         _______ _______ _______ _____ _____    ______ ____
ROOT
ATOM      1  O   UNL     1      34.145   3.981  34.699  0.00  0.00    +0.000 OA
ATOM      2  C   UNL     1      33.949   2.869  35.214  0.00  0.00    +0.000 A 
ATOM      3  C   UNL     1      34.010   2.673  36.601  0.00  0.00    +0.000 A 
ATOM      4  C   UNL     1      33.788   1.429  37.134  0.00  0.00    +0.000 A 
ATOM      5  O   UNL     1      33.827   1.142  38.477  0.00  0.00    +0.000 OA
ATOM      6  N   UNL     1      33.504   0.383  36.275  0.00  0.00    +0.000 N 
ATOM      7  C   UNL     1      33.470   0.664  35.038  0.00  0.00    +0.000 A 
ATOM      8  N   UNL     1      33.665   1.810  34.406  0.00  0.00    +0.000 N 
ATOM      9  C   UNL     1      33.624   1.921  32.963  0.00  0.00    +0.000 C 
ATOM     10  C   UNL     1      34.275   0.715  32.345  0.00  0.00    +0.000 C 
ATOM     11  C   UNL     1      34.538  -0.432  33.270  0.00  0.00    +0.000 C 
ATOM     12  C   UNL     1      33.151  -0.612  34.139  0.00  0.00    +0.000 C 
ATOM     13  C   UNL     1      33.901  -1.603  35.292  0.00  0.00    +0.000 C 
ATOM     14  C   UNL     1      33.236  -0.994  36.503  0.00  0.00    +0.000 C 
ENDROOT
BRANCH   3  15
ATOM     15  C   UNL     1      34.312   3.823  37.510  0.00  0.00    +0.000 C 
BRANCH  15  16
ATOM     16  C   UNL     1      35.776   3.962  37.580  0.00  0.00    +0.000 A 
ATOM     17  C   UNL     1      36.587   3.086  38.233  0.00  0.00    +0.000 A 
ATOM     18  C   UNL     1      37.965   3.289  38.245  0.00  0.00    +0.000 A 
ATOM     19  C   UNL     1      38.496   4.382  37.592  0.00  0.00    +0.000 A 
ATOM     20  C   UNL     1      37.682   5.297  36.913  0.00  0.00    +0.000 A 
ATOM     21  C   UNL     1      36.338   5.058  36.928  0.00  0.00    +0.000 A 
ENDBRANCH  15  16
ENDBRANCH   3  15
TORSDOF 2
ENDMDL
