MODEL 1
REMARK VINA RESULT:      -6.5      0.000      0.000
REMARK  Name = 
REMARK  2 active torsions:
REMARK  status: ('A' for Active; 'I' for Inactive)
REMARK    1  A    between atoms: C_8  and  N_9
REMARK    2  A    between atoms: N_9  and  C_10
REMARK                            x       y       z     vdW  Elec       q    Type
REMARK                         _______ _______ _______ _____ _____    ______ ____
ROOT
ATOM      1  C   UNL     1      32.129  23.805  24.488  0.00  0.00    +0.000 C 
ATOM      2  C   UNL     1      30.635  23.652  24.323  0.00  0.00    +0.000 A 
ATOM      3  S   UNL     1      29.651  23.985  22.976  0.00  0.00    +0.000 S 
ATOM      4  C   UNL     1      28.131  23.541  23.629  0.00  0.00    +0.000 A 
ATOM      5  N   UNL     1      26.843  23.524  23.161  0.00  0.00    +0.000 NA
ATOM      6  C   UNL     1      25.815  23.111  23.924  0.00  0.00    +0.000 A 
ATOM      7  N   UNL     1      26.114  22.716  25.171  0.00  0.00    +0.000 NA
ATOM      8  C   UNL     1      27.347  22.716  25.669  0.00  0.00    +0.000 A 
ATOM      9  C   UNL     1      28.444  23.142  24.895  0.00  0.00    +0.000 A 
ATOM     10  C   UNL     1      29.740  23.197  25.257  0.00  0.00    +0.000 A 
ATOM     11  C   UNL     1      30.269  22.790  26.632  0.00  0.00    +0.000 C 
ENDROOT
BRANCH   8  12
ATOM     12  N   UNL     1      27.509  22.269  27.005  0.00  0.00    +0.000 NA
BRANCH  12  13
ATOM     13  C   UNL     1      26.970  22.986  28.105  0.00  0.00    +0.000 A 
ATOM     14  C   UNL     1      26.419  24.243  27.963  0.00  0.00    +0.000 A 
ATOM     15  C   UNL     1      25.902  24.915  29.051  0.00  0.00    +0.000 A 
ATOM     16  C   UNL     1      25.906  24.378  30.321  0.00  0.00    +0.000 A 
ATOM     17  O   UNL     1      25.381  25.067  31.410  0.00  0.00    +0.000 OA
ATOM     18  C   UNL     1      26.456  23.121  30.466  0.00  0.00    +0.000 A 
ATOM     19  C   UNL     1      26.973  22.450  29.377  0.00  0.00    +0.000 A 
ENDBRANCH  12  13
ENDBRANCH   8  12
TORSDOF 2
ENDMDL
MODEL 2
REMARK VINA RESULT:      -6.2      2.219      3.057
REMARK  Name = 
REMARK  2 active torsions:
REMARK  status: ('A' for Active; 'I' for Inactive)
REMARK    1  A    between atoms: C_8  and  N_9
REMARK    2  A    between atoms: N_9  and  C_10
REMARK                            x       y       z     vdW  Elec       q    Type
REMARK                         _______ _______ _______ _____ _____    ______ ____
ROOT
ATOM      1  C   UNL     1      31.299  22.239  27.571  0.00  0.00    +0.000 C 
ATOM      2  C   UNL     1      30.626  22.617  26.272  0.00  0.00    +0.000 A 
ATOM      3  S   UNL     1      31.315  23.038  24.774  0.00  0.00    +0.000 S 
ATOM      4  C   UNL     1      29.880  23.307  23.878  0.00  0.00    +0.000 A 
ATOM      5  N   UNL     1      29.598  23.678  22.589  0.00  0.00    +0.000 NA
ATOM      6  C   UNL     1      28.333  23.816  22.149  0.00  0.00    +0.000 A 
ATOM      7  N   UNL     1      27.359  23.571  23.039  0.00  0.00    +0.000 NA
ATOM      8  C   UNL     1      27.584  23.209  24.299  0.00  0.00    +0.000 A 
ATOM      9  C   UNL     1      28.896  23.057  24.788  0.00  0.00    +0.000 A 
ATOM     10  C   UNL     1      29.279  22.699  26.029  0.00  0.00    +0.000 A 
ATOM     11  C   UNL     1      28.314  22.382  27.171  0.00  0.00    +0.000 C 
ENDROOT
BRANCH   8  12
ATOM     12  N   UNL     1      26.452  22.984  25.122  0.00  0.00    +0.000 NA
BRANCH  12  13
ATOM     13  C   UNL     1      25.669  24.053  25.630  0.00  0.00    +0.000 A 
ATOM     14  C   UNL     1      25.126  25.019  24.808  0.00  0.00    +0.000 A 
ATOM     15  C   UNL     1      24.369  26.047  25.330  0.00  0.00    +0.000 A 
ATOM     16  C   UNL     1      24.116  26.166  26.680  0.00  0.00    +0.000 A 
ATOM     17  O   UNL     1      23.350  27.208  27.194  0.00  0.00    +0.000 OA
ATOM     18  C   UNL     1      24.657  25.202  27.505  0.00  0.00    +0.000 A 
ATOM     19  C   UNL     1      25.415  24.174  26.981  0.00  0.00    +0.000 A 
ENDBRANCH  12  13
ENDBRANCH   8  12
TORSDOF 2
ENDMDL
MODEL 3
REMARK VINA RESULT:      -6.1     18.699     20.117
REMARK  Name = 
REMARK  2 active torsions:
REMARK  status: ('A' for Active; 'I' for Inactive)
REMARK    1  A    between atoms: C_8  and  N_9
REMARK    2  A    between atoms: N_9  and  C_10
REMARK                            x       y       z     vdW  Elec       q    Type
REMARK                         _______ _______ _______ _____ _____    ______ ____
ROOT
ATOM      1  C   UNL     1      19.179   9.338  38.609  0.00  0.00    +0.000 C 
ATOM      2  C   UNL     1      17.792   9.881  38.354  0.00  0.00    +0.000 A 
ATOM      3  S   UNL     1      16.501  10.113  39.437  0.00  0.00    +0.000 S 
ATOM      4  C   UNL     1      15.341  10.749  38.349  0.00  0.00    +0.000 A 
ATOM      5  N   UNL     1      14.045  11.184  38.459  0.00  0.00    +0.000 NA
ATOM      6  C   UNL     1      13.359  11.646  37.398  0.00  0.00    +0.000 A 
ATOM      7  N   UNL     1      14.007  11.660  36.223  0.00  0.00    +0.000 NA
ATOM      8  C   UNL     1      15.262  11.248  36.068  0.00  0.00    +0.000 A 
ATOM      9  C   UNL     1      16.006  10.759  37.159  0.00  0.00    +0.000 A 
ATOM     10  C   UNL     1      17.277  10.310  37.158  0.00  0.00    +0.000 A 
ATOM     11  C   UNL     1      18.169  10.251  35.919  0.00  0.00    +0.000 C 
ENDROOT
BRANCH   8  12
ATOM     12  N   UNL     1      15.814  11.323  34.765  0.00  0.00    +0.000 NA
BRANCH  12  13
ATOM     13  C   UNL     1      15.144  11.984  33.703  0.00  0.00    +0.000 A 
ATOM     14  C   UNL     1      14.457  13.165  33.892  0.00  0.00    +0.000 A 
ATOM     15  C   UNL     1      13.815  13.786  32.841  0.00  0.00    +0.000 A 
ATOM     16  C   UNL     1      13.823  13.270  31.563  0.00  0.00    +0.000 A 
ATOM     17  O   UNL     1      13.171  13.906  30.510  0.00  0.00    +0.000 OA
ATOM     18  C   UNL     1      14.509  12.089  31.370  0.00  0.00    +0.000 A 
ATOM     19  C   UNL     1      15.151  11.469  32.422  0.00  0.00    +0.000 A 
ENDBRANCH  12  13
ENDBRANCH   8  12
TORSDOF 2
ENDMDL
MODEL 4
REMARK VINA RESULT:      -6.1      3.531      6.440
REMARK  Name = 
REMARK  2 active torsions:
REMARK  status: ('A' for Active; 'I' for Inactive)
REMARK    1  A    between atoms: C_8  and  N_9
REMARK    2  A    between atoms: N_9  and  C_10
REMARK                            x       y       z     vdW  Elec       q    Type
REMARK                         _______ _______ _______ _____ _____    ______ ____
ROOT
ATOM      1  C   UNL     1      23.743  26.838  28.207  0.00  0.00    +0.000 C 
ATOM      2  C   UNL     1      24.766  25.727  28.179  0.00  0.00    +0.000 A 
ATOM      3  S   UNL     1      25.731  25.107  29.435  0.00  0.00    +0.000 S 
ATOM      4  C   UNL     1      26.579  23.902  28.562  0.00  0.00    +0.000 A 
ATOM      5  N   UNL     1      27.538  22.973  28.873  0.00  0.00    +0.000 NA
ATOM      6  C   UNL     1      28.036  22.129  27.951  0.00  0.00    +0.000 A 
ATOM      7  N   UNL     1      27.545  22.241  26.708  0.00  0.00    +0.000 NA
ATOM      8  C   UNL     1      26.616  23.126  26.358  0.00  0.00    +0.000 A 
ATOM      9  C   UNL     1      26.075  24.023  27.300  0.00  0.00    +0.000 A 
ATOM     10  C   UNL     1      25.135  24.967  27.099  0.00  0.00    +0.000 A 
ATOM     11  C   UNL     1      24.464  25.241  25.754  0.00  0.00    +0.000 C 
ENDROOT
BRANCH   8  12
ATOM     12  N   UNL     1      26.195  23.126  25.005  0.00  0.00    +0.000 NA
BRANCH  12  13
ATOM     13  C   UNL     1      27.074  23.473  23.945  0.00  0.00    +0.000 A 
ATOM     14  C   UNL     1      26.610  23.870  22.708  0.00  0.00    +0.000 A 
ATOM     15  C   UNL     1      27.487  24.202  21.697  0.00  0.00    +0.000 A 
ATOM     16  C   UNL     1      28.855  24.156  21.863  0.00  0.00    +0.000 A 
ATOM     17  O   UNL     1      29.730  24.493  20.834  0.00  0.00    +0.000 OA
ATOM     18  C   UNL     1      29.322  23.759  23.099  0.00  0.00    +0.000 A 
ATOM     19  C   UNL     1      28.443  23.428  24.109  0.00  0.00    +0.000 A 
ENDBRANCH  12  13
ENDBRANCH   8  12
TORSDOF 2
ENDMDL
MODEL 5
REMARK VINA RESULT:      -6.0      3.552      5.756
REMARK  Name = 
REMARK  2 active torsions:
REMARK  status: ('A' for Active; 'I' for Inactive)
REMARK    1  A    between atoms: C_8  and  N_9
REMARK    2  A    between atoms: N_9  and  C_10
REMARK                            x       y       z     vdW  Elec       q    Type
REMARK                         _______ _______ _______ _____ _____    ______ ____
ROOT
ATOM      1  C   UNL     1      30.424  22.684  30.153  0.00  0.00    +0.000 C 
ATOM      2  C   UNL     1      29.168  23.180  29.476  0.00  0.00    +0.000 A 
ATOM      3  S   UNL     1      27.942  24.199  30.073  0.00  0.00    +0.000 S 
ATOM      4  C   UNL     1      26.929  24.246  28.693  0.00  0.00    +0.000 A 
ATOM      5  N   UNL     1      25.740  24.856  28.384  0.00  0.00    +0.000 NA
ATOM      6  C   UNL     1      25.158  24.708  27.180  0.00  0.00    +0.000 A 
ATOM      7  N   UNL     1      25.799  23.932  26.294  0.00  0.00    +0.000 NA
ATOM      8  C   UNL     1      26.952  23.319  26.548  0.00  0.00    +0.000 A 
ATOM      9  C   UNL     1      27.586  23.455  27.799  0.00  0.00    +0.000 A 
ATOM     10  C   UNL     1      28.748  22.901  28.201  0.00  0.00    +0.000 A 
ATOM     11  C   UNL     1      29.615  21.991  27.333  0.00  0.00    +0.000 C 
ENDROOT
BRANCH   8  12
ATOM     12  N   UNL     1      27.512  22.531  25.512  0.00  0.00    +0.000 NA
BRANCH  12  13
ATOM     13  C   UNL     1      28.051  23.112  24.335  0.00  0.00    +0.000 A 
ATOM     14  C   UNL     1      29.385  23.451  24.230  0.00  0.00    +0.000 A 
ATOM     15  C   UNL     1      29.881  24.014  23.073  0.00  0.00    +0.000 A 
ATOM     16  C   UNL     1      29.087  24.266  21.974  0.00  0.00    +0.000 A 
ATOM     17  O   UNL     1      29.601  24.834  20.812  0.00  0.00    +0.000 OA
ATOM     18  C   UNL     1      27.754  23.927  22.076  0.00  0.00    +0.000 A 
ATOM     19  C   UNL     1      27.258  23.364  23.234  0.00  0.00    +0.000 A 
ENDBRANCH  12  13
ENDBRANCH   8  12
TORSDOF 2
ENDMDL
MODEL 6
REMARK VINA RESULT:      -6.0      3.870      6.122
REMARK  Name = 
REMARK  2 active torsions:
REMARK  status: ('A' for Active; 'I' for Inactive)
REMARK    1  A    between atoms: C_8  and  N_9
REMARK    2  A    between atoms: N_9  and  C_10
REMARK                            x       y       z     vdW  Elec       q    Type
REMARK                         _______ _______ _______ _____ _____    ______ ____
ROOT
ATOM      1  C   UNL     1      31.932  22.968  27.582  0.00  0.00    +0.000 C 
ATOM      2  C   UNL     1      30.615  22.956  26.842  0.00  0.00    +0.000 A 
ATOM      3  S   UNL     1      29.059  22.554  27.401  0.00  0.00    +0.000 S 
ATOM      4  C   UNL     1      28.175  22.803  25.955  0.00  0.00    +0.000 A 
ATOM      5  N   UNL     1      26.857  22.689  25.592  0.00  0.00    +0.000 NA
ATOM      6  C   UNL     1      26.438  22.960  24.343  0.00  0.00    +0.000 A 
ATOM      7  N   UNL     1      27.376  23.349  23.466  0.00  0.00    +0.000 NA
ATOM      8  C   UNL     1      28.665  23.474  23.771  0.00  0.00    +0.000 A 
ATOM      9  C   UNL     1      29.134  23.197  25.070  0.00  0.00    +0.000 A 
ATOM     10  C   UNL     1      30.400  23.278  25.527  0.00  0.00    +0.000 A 
ATOM     11  C   UNL     1      31.597  23.701  24.677  0.00  0.00    +0.000 C 
ENDROOT
BRANCH   8  12
ATOM     12  N   UNL     1      29.540  23.895  22.739  0.00  0.00    +0.000 NA
BRANCH  12  13
ATOM     13  C   UNL     1      29.429  25.177  22.138  0.00  0.00    +0.000 A 
ATOM     14  C   UNL     1      29.433  25.348  20.769  0.00  0.00    +0.000 A 
ATOM     15  C   UNL     1      29.323  26.605  20.214  0.00  0.00    +0.000 A 
ATOM     16  C   UNL     1      29.207  27.744  20.982  0.00  0.00    +0.000 A 
ATOM     17  O   UNL     1      29.097  29.008  20.409  0.00  0.00    +0.000 OA
ATOM     18  C   UNL     1      29.202  27.576  22.351  0.00  0.00    +0.000 A 
ATOM     19  C   UNL     1      29.312  26.318  22.906  0.00  0.00    +0.000 A 
ENDBRANCH  12  13
ENDBRANCH   8  12
TORSDOF 2
ENDMDL
MODEL 7
REMARK VINA RESULT:      -5.7      3.408      6.174
REMARK  Name = 
REMARK  2 active torsions:
REMARK  status: ('A' for Active; 'I' for Inactive)
REMARK    1  A    between atoms: C_8  and  N_9
REMARK    2  A    between atoms: N_9  and  C_10
REMARK                            x       y       z     vdW  Elec       q    Type
REMARK                         _______ _______ _______ _____ _____    ______ ____
ROOT
ATOM      1  C   UNL     1      23.919  27.174  27.565  0.00  0.00    +0.000 C 
ATOM      2  C   UNL     1      24.671  26.056  28.250  0.00  0.00    +0.000 A 
ATOM      3  S   UNL     1      24.906  25.762  29.909  0.00  0.00    +0.000 S 
ATOM      4  C   UNL     1      25.842  24.332  29.804  0.00  0.00    +0.000 A 
ATOM      5  N   UNL     1      26.422  23.484  30.712  0.00  0.00    +0.000 NA
ATOM      6  C   UNL     1      27.123  22.401  30.327  0.00  0.00    +0.000 A 
ATOM      7  N   UNL     1      27.226  22.192  29.006  0.00  0.00    +0.000 NA
ATOM      8  C   UNL     1      26.682  22.986  28.088  0.00  0.00    +0.000 A 
ATOM      9  C   UNL     1      25.943  24.126  28.460  0.00  0.00    +0.000 A 
ATOM     10  C   UNL     1      25.336  25.018  27.651  0.00  0.00    +0.000 A 
ATOM     11  C   UNL     1      25.346  24.943  26.125  0.00  0.00    +0.000 C 
ENDROOT
BRANCH   8  12
ATOM     12  N   UNL     1      26.876  22.636  26.729  0.00  0.00    +0.000 NA
BRANCH  12  13
ATOM     13  C   UNL     1      28.149  22.719  26.107  0.00  0.00    +0.000 A 
ATOM     14  C   UNL     1      28.294  23.049  24.774  0.00  0.00    +0.000 A 
ATOM     15  C   UNL     1      29.544  23.123  24.197  0.00  0.00    +0.000 A 
ATOM     16  C   UNL     1      30.700  22.876  24.905  0.00  0.00    +0.000 A 
ATOM     17  O   UNL     1      31.956  22.955  24.310  0.00  0.00    +0.000 OA
ATOM     18  C   UNL     1      30.559  22.547  26.238  0.00  0.00    +0.000 A 
ATOM     19  C   UNL     1      29.308  22.473  26.814  0.00  0.00    +0.000 A 
ENDBRANCH  12  13
ENDBRANCH   8  12
TORSDOF 2
ENDMDL
MODEL 8
REMARK VINA RESULT:      -5.7      1.981      3.225
REMARK  Name = 
REMARK  2 active torsions:
REMARK  status: ('A' for Active; 'I' for Inactive)
REMARK    1  A    between atoms: C_8  and  N_9
REMARK    2  A    between atoms: N_9  and  C_10
REMARK                            x       y       z     vdW  Elec       q    Type
REMARK                         _______ _______ _______ _____ _____    ______ ____
ROOT
ATOM      1  C   UNL     1      27.077  27.397  22.344  0.00  0.00    +0.000 C 
ATOM      2  C   UNL     1      27.953  26.286  22.874  0.00  0.00    +0.000 A 
ATOM      3  S   UNL     1      29.609  25.991  22.615  0.00  0.00    +0.000 S 
ATOM      4  C   UNL     1      29.785  24.571  23.557  0.00  0.00    +0.000 A 
ATOM      5  N   UNL     1      30.825  23.728  23.853  0.00  0.00    +0.000 NA
ATOM      6  C   UNL     1      30.664  22.654  24.649  0.00  0.00    +0.000 A 
ATOM      7  N   UNL     1      29.432  22.449  25.138  0.00  0.00    +0.000 NA
ATOM      8  C   UNL     1      28.393  23.238  24.878  0.00  0.00    +0.000 A 
ATOM      9  C   UNL     1      28.530  24.369  24.050  0.00  0.00    +0.000 A 
ATOM     10  C   UNL     1      27.579  25.256  23.698  0.00  0.00    +0.000 A 
ATOM     11  C   UNL     1      26.122  25.185  24.156  0.00  0.00    +0.000 C 
ENDROOT
BRANCH   8  12
ATOM     12  N   UNL     1      27.151  22.894  25.468  0.00  0.00    +0.000 NA
BRANCH  12  13
ATOM     13  C   UNL     1      26.905  23.070  26.855  0.00  0.00    +0.000 A 
ATOM     14  C   UNL     1      27.607  22.374  27.818  0.00  0.00    +0.000 A 
ATOM     15  C   UNL     1      27.347  22.565  29.158  0.00  0.00    +0.000 A 
ATOM     16  C   UNL     1      26.386  23.448  29.605  0.00  0.00    +0.000 A 
ATOM     17  O   UNL     1      26.133  23.632  30.961  0.00  0.00    +0.000 OA
ATOM     18  C   UNL     1      25.683  24.145  28.644  0.00  0.00    +0.000 A 
ATOM     19  C   UNL     1      25.945  23.953  27.304  0.00  0.00    +0.000 A 
ENDBRANCH  12  13
ENDBRANCH   8  12
TORSDOF 2
ENDMDL
MODEL 9
REMARK VINA RESULT:      -5.5      3.383      6.038
REMARK  Name = 
REMARK  2 active torsions:
REMARK  status: ('A' for Active; 'I' for Inactive)
REMARK    1  A    between atoms: C_8  and  N_9
REMARK    2  A    between atoms: N_9  and  C_10
REMARK                            x       y       z     vdW  Elec       q    Type
REMARK                         _______ _______ _______ _____ _____    ______ ____
ROOT
ATOM      1  C   UNL     1      26.015  24.506  30.489  0.00  0.00    +0.000 C 
ATOM      2  C   UNL     1      27.076  23.921  29.587  0.00  0.00    +0.000 A 
ATOM      3  S   UNL     1      28.650  23.393  29.961  0.00  0.00    +0.000 S 
ATOM      4  C   UNL     1      29.150  22.893  28.401  0.00  0.00    +0.000 A 
ATOM      5  N   UNL     1      30.296  22.351  27.878  0.00  0.00    +0.000 NA
ATOM      6  C   UNL     1      30.407  22.050  26.571  0.00  0.00    +0.000 A 
ATOM      7  N   UNL     1      29.337  22.306  25.803  0.00  0.00    +0.000 NA
ATOM      8  C   UNL     1      28.205  22.831  26.265  0.00  0.00    +0.000 A 
ATOM      9  C   UNL     1      28.059  23.157  27.627  0.00  0.00    +0.000 A 
ATOM     10  C   UNL     1      26.982  23.690  28.239  0.00  0.00    +0.000 A 
ATOM     11  C   UNL     1      25.677  24.048  27.529  0.00  0.00    +0.000 C 
ENDROOT
BRANCH   8  12
ATOM     12  N   UNL     1      27.160  23.046  25.332  0.00  0.00    +0.000 NA
BRANCH  12  13
ATOM     13  C   UNL     1      27.295  23.953  24.249  0.00  0.00    +0.000 A 
ATOM     14  C   UNL     1      27.673  25.267  24.436  0.00  0.00    +0.000 A 
ATOM     15  C   UNL     1      27.797  26.126  23.365  0.00  0.00    +0.000 A 
ATOM     16  C   UNL     1      27.555  25.728  22.067  0.00  0.00    +0.000 A 
ATOM     17  O   UNL     1      27.683  26.605  20.994  0.00  0.00    +0.000 OA
ATOM     18  C   UNL     1      27.177  24.415  21.877  0.00  0.00    +0.000 A 
ATOM     19  C   UNL     1      27.054  23.556  22.949  0.00  0.00    +0.000 A 
ENDBRANCH  12  13
ENDBRANCH   8  12
TORSDOF 2
ENDMDL
MODEL 10
REMARK VINA RESULT:      -5.4      3.680      5.745
REMARK  Name = 
REMARK  2 active torsions:
REMARK  status: ('A' for Active; 'I' for Inactive)
REMARK    1  A    between atoms: C_8  and  N_9
REMARK    2  A    between atoms: N_9  and  C_10
REMARK                            x       y       z     vdW  Elec       q    Type
REMARK                         _______ _______ _______ _____ _____    ______ ____
ROOT
ATOM      1  C   UNL     1      33.944  24.222  27.471  0.00  0.00    +0.000 C 
ATOM      2  C   UNL     1      32.506  23.766  27.372  0.00  0.00    +0.000 A 
ATOM      3  S   UNL     1      31.411  23.353  28.607  0.00  0.00    +0.000 S 
ATOM      4  C   UNL     1      30.048  22.965  27.646  0.00  0.00    +0.000 A 
ATOM      5  N   UNL     1      28.769  22.542  27.904  0.00  0.00    +0.000 NA
ATOM      6  C   UNL     1      27.885  22.308  26.916  0.00  0.00    +0.000 A 
ATOM      7  N   UNL     1      28.319  22.510  25.663  0.00  0.00    +0.000 NA
ATOM      8  C   UNL     1      29.549  22.919  25.364  0.00  0.00    +0.000 A 
ATOM      9  C   UNL     1      30.496  23.171  26.375  0.00  0.00    +0.000 A 
ATOM     10  C   UNL     1      31.770  23.587  26.230  0.00  0.00    +0.000 A 
ATOM     11  C   UNL     1      32.437  23.868  24.884  0.00  0.00    +0.000 C 
ENDROOT
BRANCH   8  12
ATOM     12  N   UNL     1      29.862  23.088  23.992  0.00  0.00    +0.000 NA
BRANCH  12  13
ATOM     13  C   UNL     1      29.255  24.099  23.203  0.00  0.00    +0.000 A 
ATOM     14  C   UNL     1      29.599  25.430  23.325  0.00  0.00    +0.000 A 
ATOM     15  C   UNL     1      28.992  26.391  22.544  0.00  0.00    +0.000 A 
ATOM     16  C   UNL     1      28.023  26.083  21.613  0.00  0.00    +0.000 A 
ATOM     17  O   UNL     1      27.418  27.062  20.831  0.00  0.00    +0.000 OA
ATOM     18  C   UNL     1      27.677  24.753  21.489  0.00  0.00    +0.000 A 
ATOM     19  C   UNL     1      28.285  23.792  22.270  0.00  0.00    +0.000 A 
ENDBRANCH  12  13
ENDBRANCH   8  12
TORSDOF 2
ENDMDL
