MODEL 1
REMARK VINA RESULT:      -7.0      0.000      0.000
REMARK  Name = 
REMARK  3 active torsions:
REMARK  status: ('A' for Active; 'I' for Inactive)
REMARK    1  A    between atoms: C_5  and  C_6
REMARK    2  A    between atoms: C_6  and  N_7
REMARK    3  A    between atoms: C_8  and  C_10
REMARK                            x       y       z     vdW  Elec       q    Type
REMARK                         _______ _______ _______ _____ _____    ______ ____
ROOT
ATOM      1  N   UNL     1      18.620  10.400  36.869  0.00  0.00    +0.000 NA
ATOM      2  C   UNL     1      17.608   9.911  36.026  0.00  0.00    +0.000 C 
ATOM      3  O   UNL     1      17.698   8.696  35.713  0.00  0.00    +0.000 OA
ENDROOT
BRANCH   2   4
ATOM      4  C   UNL     1      16.484  10.756  35.518  0.00  0.00    +0.000 A 
ATOM      5  C   UNL     1      16.403  11.036  34.175  0.00  0.00    +0.000 A 
ATOM      6  N   UNL     1      17.278  10.624  33.106  0.00  0.00    +0.000 NA
ATOM      7  S   UNL     1      15.008  11.997  34.062  0.00  0.00    +0.000 S 
ATOM      8  C   UNL     1      14.555  12.028  35.705  0.00  0.00    +0.000 A 
ATOM      9  C   UNL     1      15.521  11.274  36.305  0.00  0.00    +0.000 A 
ATOM     10  C   UNL     1      15.163  11.266  37.793  0.00  0.00    +0.000 C 
ATOM     11  C   UNL     1      13.662  11.460  37.773  0.00  0.00    +0.000 C 
ATOM     12  C   UNL     1      13.547  12.540  36.712  0.00  0.00    +0.000 C 
ENDBRANCH   2   4
BRANCH   1  13
ATOM     13  C   UNL     1      19.706   9.616  37.370  0.00  0.00    +0.000 C 
BRANCH  13  18
ATOM     14  C   UNL     1      24.814  12.230  37.329  0.00  0.00    +0.000 C 
ATOM     15  C   UNL     1      23.480  11.539  37.332  0.00  0.00    +0.000 A 
ATOM     16  C   UNL     1      22.459  11.971  38.140  0.00  0.00    +0.000 A 
ATOM     17  C   UNL     1      21.236  11.364  38.167  0.00  0.00    +0.000 A 
ATOM     18  C   UNL     1      21.000  10.284  37.363  0.00  0.00    +0.000 A 
ATOM     19  C   UNL     1      22.006   9.837  36.550  0.00  0.00    +0.000 A 
ATOM     20  C   UNL     1      23.261  10.451  36.517  0.00  0.00    +0.000 A 
ENDBRANCH  13  18
ENDBRANCH   1  13
TORSDOF 3
ENDMDL
MODEL 2
REMARK VINA RESULT:      -6.7     18.795     21.544
REMARK  Name = 
REMARK  3 active torsions:
REMARK  status: ('A' for Active; 'I' for Inactive)
REMARK    1  A    between atoms: C_5  and  C_6
REMARK    2  A    between atoms: C_6  and  N_7
REMARK    3  A    between atoms: C_8  and  C_10
REMARK                            x       y       z     vdW  Elec       q    Type
REMARK                         _______ _______ _______ _____ _____    ______ ____
ROOT
ATOM      1  N   UNL     1      32.464  -3.713  33.816  0.00  0.00    +0.000 NA
ATOM      2  C   UNL     1      33.135  -4.863  33.368  0.00  0.00    +0.000 C 
ATOM      3  O   UNL     1      34.279  -5.052  33.857  0.00  0.00    +0.000 OA
ENDROOT
BRANCH   2   4
ATOM      4  C   UNL     1      32.554  -5.819  32.377  0.00  0.00    +0.000 A 
ATOM      5  C   UNL     1      31.430  -6.536  32.709  0.00  0.00    +0.000 A 
ATOM      6  N   UNL     1      30.668  -6.517  33.933  0.00  0.00    +0.000 NA
ATOM      7  S   UNL     1      31.136  -7.466  31.320  0.00  0.00    +0.000 S 
ATOM      8  C   UNL     1      32.434  -6.935  30.349  0.00  0.00    +0.000 A 
ATOM      9  C   UNL     1      33.068  -6.032  31.150  0.00  0.00    +0.000 A 
ATOM     10  C   UNL     1      34.250  -5.519  30.325  0.00  0.00    +0.000 C 
ATOM     11  C   UNL     1      33.762  -5.694  28.903  0.00  0.00    +0.000 C 
ATOM     12  C   UNL     1      33.124  -7.068  29.008  0.00  0.00    +0.000 C 
ENDBRANCH   2   4
BRANCH   1  13
ATOM     13  C   UNL     1      32.994  -2.782  34.762  0.00  0.00    +0.000 C 
BRANCH  13  18
ATOM     14  C   UNL     1      33.832   2.519  32.730  0.00  0.00    +0.000 C 
ATOM     15  C   UNL     1      33.620   1.127  33.255  0.00  0.00    +0.000 A 
ATOM     16  C   UNL     1      32.706   0.875  34.247  0.00  0.00    +0.000 A 
ATOM     17  C   UNL     1      32.491  -0.378  34.746  0.00  0.00    +0.000 A 
ATOM     18  C   UNL     1      33.203  -1.435  34.249  0.00  0.00    +0.000 A 
ATOM     19  C   UNL     1      34.119  -1.204  33.260  0.00  0.00    +0.000 A 
ATOM     20  C   UNL     1      34.347   0.075  32.744  0.00  0.00    +0.000 A 
ENDBRANCH  13  18
ENDBRANCH   1  13
TORSDOF 3
ENDMDL
MODEL 3
REMARK VINA RESULT:      -6.6     27.607     29.796
REMARK  Name = 
REMARK  3 active torsions:
REMARK  status: ('A' for Active; 'I' for Inactive)
REMARK    1  A    between atoms: C_5  and  C_6
REMARK    2  A    between atoms: C_6  and  N_7
REMARK    3  A    between atoms: C_8  and  C_10
REMARK                            x       y       z     vdW  Elec       q    Type
REMARK                         _______ _______ _______ _____ _____    ______ ____
ROOT
ATOM      1  N   UNL     1      35.846  18.638  13.482  0.00  0.00    +0.000 NA
ATOM      2  C   UNL     1      35.929  19.688  12.552  0.00  0.00    +0.000 C 
ATOM      3  O   UNL     1      36.785  20.574  12.804  0.00  0.00    +0.000 OA
ENDROOT
BRANCH   2   4
ATOM      4  C   UNL     1      35.070  19.773  11.332  0.00  0.00    +0.000 A 
ATOM      5  C   UNL     1      35.571  19.357  10.122  0.00  0.00    +0.000 A 
ATOM      6  N   UNL     1      36.871  18.816   9.815  0.00  0.00    +0.000 NA
ATOM      7  S   UNL     1      34.282  19.629   9.052  0.00  0.00    +0.000 S 
ATOM      8  C   UNL     1      33.138  20.262  10.147  0.00  0.00    +0.000 A 
ATOM      9  C   UNL     1      33.806  20.241  11.336  0.00  0.00    +0.000 A 
ATOM     10  C   UNL     1      32.821  20.802  12.364  0.00  0.00    +0.000 C 
ATOM     11  C   UNL     1      31.478  20.452  11.760  0.00  0.00    +0.000 C 
ATOM     12  C   UNL     1      31.737  20.811  10.308  0.00  0.00    +0.000 C 
ENDBRANCH   2   4
BRANCH   1  13
ATOM     13  C   UNL     1      36.655  18.530  14.656  0.00  0.00    +0.000 C 
BRANCH  13  18
ATOM     14  C   UNL     1      35.747  13.799  17.773  0.00  0.00    +0.000 C 
ATOM     15  C   UNL     1      35.977  15.035  16.950  0.00  0.00    +0.000 A 
ATOM     16  C   UNL     1      36.938  15.950  17.298  0.00  0.00    +0.000 A 
ATOM     17  C   UNL     1      37.171  17.083  16.572  0.00  0.00    +0.000 A 
ATOM     18  C   UNL     1      36.429  17.331  15.450  0.00  0.00    +0.000 A 
ATOM     19  C   UNL     1      35.465  16.430  15.086  0.00  0.00    +0.000 A 
ATOM     20  C   UNL     1      35.219  15.269  15.825  0.00  0.00    +0.000 A 
ENDBRANCH  13  18
ENDBRANCH   1  13
TORSDOF 3
ENDMDL
MODEL 4
REMARK VINA RESULT:      -6.6     30.088     31.814
REMARK  Name = 
REMARK  3 active torsions:
REMARK  status: ('A' for Active; 'I' for Inactive)
REMARK    1  A    between atoms: C_5  and  C_6
REMARK    2  A    between atoms: C_6  and  N_7
REMARK    3  A    between atoms: C_8  and  C_10
REMARK                            x       y       z     vdW  Elec       q    Type
REMARK                         _______ _______ _______ _____ _____    ______ ____
ROOT
ATOM      1  N   UNL     1      31.905  20.769  10.752  0.00  0.00    +0.000 NA
ATOM      2  C   UNL     1      32.534  21.073   9.534  0.00  0.00    +0.000 C 
ATOM      3  O   UNL     1      32.949  22.255   9.414  0.00  0.00    +0.000 OA
ENDROOT
BRANCH   2   4
ATOM      4  C   UNL     1      32.716  20.078   8.433  0.00  0.00    +0.000 A 
ATOM      5  C   UNL     1      33.832  19.276   8.425  0.00  0.00    +0.000 A 
ATOM      6  N   UNL     1      34.925  19.230   9.363  0.00  0.00    +0.000 NA
ATOM      7  S   UNL     1      33.621  18.331   7.031  0.00  0.00    +0.000 S 
ATOM      8  C   UNL     1      32.135  18.964   6.485  0.00  0.00    +0.000 A 
ATOM      9  C   UNL     1      31.841  19.909   7.423  0.00  0.00    +0.000 A 
ATOM     10  C   UNL     1      30.507  20.516   6.982  0.00  0.00    +0.000 C 
ATOM     11  C   UNL     1      29.866  19.382   6.210  0.00  0.00    +0.000 C 
ATOM     12  C   UNL     1      31.064  18.889   5.417  0.00  0.00    +0.000 C 
ENDBRANCH   2   4
BRANCH   1  13
ATOM     13  C   UNL     1      31.718  21.698  11.822  0.00  0.00    +0.000 C 
BRANCH  13  18
ATOM     14  C   UNL     1      26.335  23.555  12.528  0.00  0.00    +0.000 C 
ATOM     15  C   UNL     1      27.747  23.074  12.353  0.00  0.00    +0.000 A 
ATOM     16  C   UNL     1      28.109  22.316  11.267  0.00  0.00    +0.000 A 
ATOM     17  C   UNL     1      29.383  21.863  11.080  0.00  0.00    +0.000 A 
ATOM     18  C   UNL     1      30.351  22.168  11.997  0.00  0.00    +0.000 A 
ATOM     19  C   UNL     1      30.010  22.922  13.086  0.00  0.00    +0.000 A 
ATOM     20  C   UNL     1      28.708  23.389  13.287  0.00  0.00    +0.000 A 
ENDBRANCH  13  18
ENDBRANCH   1  13
TORSDOF 3
ENDMDL
MODEL 5
REMARK VINA RESULT:      -6.6      2.836      7.408
REMARK  Name = 
REMARK  3 active torsions:
REMARK  status: ('A' for Active; 'I' for Inactive)
REMARK    1  A    between atoms: C_5  and  C_6
REMARK    2  A    between atoms: C_6  and  N_7
REMARK    3  A    between atoms: C_8  and  C_10
REMARK                            x       y       z     vdW  Elec       q    Type
REMARK                         _______ _______ _______ _____ _____    ______ ____
ROOT
ATOM      1  N   UNL     1      18.782  11.714  37.310  0.00  0.00    +0.000 NA
ATOM      2  C   UNL     1      19.756  11.056  38.079  0.00  0.00    +0.000 C 
ATOM      3  O   UNL     1      19.340  10.104  38.788  0.00  0.00    +0.000 OA
ENDROOT
BRANCH   2   4
ATOM      4  C   UNL     1      21.201  11.439  38.075  0.00  0.00    +0.000 A 
ATOM      5  C   UNL     1      21.627  12.477  38.868  0.00  0.00    +0.000 A 
ATOM      6  N   UNL     1      20.863  13.311  39.761  0.00  0.00    +0.000 NA
ATOM      7  S   UNL     1      23.293  12.552  38.550  0.00  0.00    +0.000 S 
ATOM      8  C   UNL     1      23.421  11.277  37.425  0.00  0.00    +0.000 A 
ATOM      9  C   UNL     1      22.139  10.821  37.330  0.00  0.00    +0.000 A 
ATOM     10  C   UNL     1      22.192   9.668  36.326  0.00  0.00    +0.000 C 
ATOM     11  C   UNL     1      23.613   9.166  36.474  0.00  0.00    +0.000 C 
ATOM     12  C   UNL     1      24.357  10.489  36.534  0.00  0.00    +0.000 C 
ENDBRANCH   2   4
BRANCH   1  13
ATOM     13  C   UNL     1      17.395  11.370  37.293  0.00  0.00    +0.000 C 
BRANCH  13  18
ATOM     14  C   UNL     1      15.041  10.999  32.072  0.00  0.00    +0.000 C 
ATOM     15  C   UNL     1      15.650  11.103  33.442  0.00  0.00    +0.000 A 
ATOM     16  C   UNL     1      16.793  10.416  33.765  0.00  0.00    +0.000 A 
ATOM     17  C   UNL     1      17.370  10.489  35.001  0.00  0.00    +0.000 A 
ATOM     18  C   UNL     1      16.802  11.273  35.966  0.00  0.00    +0.000 A 
ATOM     19  C   UNL     1      15.661  11.966  35.664  0.00  0.00    +0.000 A 
ATOM     20  C   UNL     1      15.063  11.896  34.403  0.00  0.00    +0.000 A 
ENDBRANCH  13  18
ENDBRANCH   1  13
TORSDOF 3
ENDMDL
MODEL 6
REMARK VINA RESULT:      -6.5     27.723     30.220
REMARK  Name = 
REMARK  3 active torsions:
REMARK  status: ('A' for Active; 'I' for Inactive)
REMARK    1  A    between atoms: C_5  and  C_6
REMARK    2  A    between atoms: C_6  and  N_7
REMARK    3  A    between atoms: C_8  and  C_10
REMARK                            x       y       z     vdW  Elec       q    Type
REMARK                         _______ _______ _______ _____ _____    ______ ____
ROOT
ATOM      1  N   UNL     1      35.041  19.865  12.867  0.00  0.00    +0.000 NA
ATOM      2  C   UNL     1      36.157  19.032  13.044  0.00  0.00    +0.000 C 
ATOM      3  O   UNL     1      36.624  18.515  11.996  0.00  0.00    +0.000 OA
ENDROOT
BRANCH   2   4
ATOM      4  C   UNL     1      36.775  18.758  14.377  0.00  0.00    +0.000 A 
ATOM      5  C   UNL     1      37.639  19.677  14.922  0.00  0.00    +0.000 A 
ATOM      6  N   UNL     1      38.077  20.942  14.388  0.00  0.00    +0.000 NA
ATOM      7  S   UNL     1      38.081  18.967  16.400  0.00  0.00    +0.000 S 
ATOM      8  C   UNL     1      37.170  17.528  16.303  0.00  0.00    +0.000 A 
ATOM      9  C   UNL     1      36.536  17.646  15.100  0.00  0.00    +0.000 A 
ATOM     10  C   UNL     1      35.697  16.375  14.958  0.00  0.00    +0.000 C 
ATOM     11  C   UNL     1      35.431  15.991  16.398  0.00  0.00    +0.000 C 
ATOM     12  C   UNL     1      36.806  16.233  16.996  0.00  0.00    +0.000 C 
ENDBRANCH   2   4
BRANCH   1  13
ATOM     13  C   UNL     1      34.430  20.145  11.605  0.00  0.00    +0.000 C 
BRANCH  13  18
ATOM     14  C   UNL     1      29.726  23.421  11.875  0.00  0.00    +0.000 C 
ATOM     15  C   UNL     1      30.954  22.557  11.812  0.00  0.00    +0.000 A 
ATOM     16  C   UNL     1      31.960  22.818  10.917  0.00  0.00    +0.000 A 
ATOM     17  C   UNL     1      33.088  22.052  10.835  0.00  0.00    +0.000 A 
ATOM     18  C   UNL     1      33.238  20.980  11.670  0.00  0.00    +0.000 A 
ATOM     19  C   UNL     1      32.246  20.702  12.570  0.00  0.00    +0.000 A 
ATOM     20  C   UNL     1      31.088  21.480  12.660  0.00  0.00    +0.000 A 
ENDBRANCH  13  18
ENDBRANCH   1  13
TORSDOF 3
ENDMDL
MODEL 7
REMARK VINA RESULT:      -6.5      3.556      5.095
REMARK  Name = 
REMARK  3 active torsions:
REMARK  status: ('A' for Active; 'I' for Inactive)
REMARK    1  A    between atoms: C_5  and  C_6
REMARK    2  A    between atoms: C_6  and  N_7
REMARK    3  A    between atoms: C_8  and  C_10
REMARK                            x       y       z     vdW  Elec       q    Type
REMARK                         _______ _______ _______ _____ _____    ______ ____
ROOT
ATOM      1  N   UNL     1      17.022   9.801  38.635  0.00  0.00    +0.000 NA
ATOM      2  C   UNL     1      16.989  10.931  37.801  0.00  0.00    +0.000 C 
ATOM      3  O   UNL     1      18.048  11.608  37.758  0.00  0.00    +0.000 OA
ENDROOT
BRANCH   2   4
ATOM      4  C   UNL     1      15.788  11.328  37.004  0.00  0.00    +0.000 A 
ATOM      5  C   UNL     1      15.948  11.738  35.702  0.00  0.00    +0.000 A 
ATOM      6  N   UNL     1      17.157  11.855  34.928  0.00  0.00    +0.000 NA
ATOM      7  S   UNL     1      14.361  12.080  35.205  0.00  0.00    +0.000 S 
ATOM      8  C   UNL     1      13.529  11.701  36.645  0.00  0.00    +0.000 A 
ATOM      9  C   UNL     1      14.530  11.312  37.485  0.00  0.00    +0.000 A 
ATOM     10  C   UNL     1      13.838  10.957  38.803  0.00  0.00    +0.000 C 
ATOM     11  C   UNL     1      12.453  10.547  38.349  0.00  0.00    +0.000 C 
ATOM     12  C   UNL     1      12.177  11.631  37.322  0.00  0.00    +0.000 C 
ENDBRANCH   2   4
BRANCH   1  13
ATOM     13  C   UNL     1      18.155   9.397  39.408  0.00  0.00    +0.000 C 
BRANCH  13  18
ATOM     14  C   UNL     1      17.426   4.566  42.418  0.00  0.00    +0.000 C 
ATOM     15  C   UNL     1      17.609   5.835  41.635  0.00  0.00    +0.000 A 
ATOM     16  C   UNL     1      18.592   5.948  40.685  0.00  0.00    +0.000 A 
ATOM     17  C   UNL     1      18.784   7.088  39.957  0.00  0.00    +0.000 A 
ATOM     18  C   UNL     1      17.973   8.168  40.169  0.00  0.00    +0.000 A 
ATOM     19  C   UNL     1      16.987   8.077  41.113  0.00  0.00    +0.000 A 
ATOM     20  C   UNL     1      16.784   6.915  41.863  0.00  0.00    +0.000 A 
ENDBRANCH  13  18
ENDBRANCH   1  13
TORSDOF 3
ENDMDL
MODEL 8
REMARK VINA RESULT:      -6.5      2.853      7.745
REMARK  Name = 
REMARK  3 active torsions:
REMARK  status: ('A' for Active; 'I' for Inactive)
REMARK    1  A    between atoms: C_5  and  C_6
REMARK    2  A    between atoms: C_6  and  N_7
REMARK    3  A    between atoms: C_8  and  C_10
REMARK                            x       y       z     vdW  Elec       q    Type
REMARK                         _______ _______ _______ _____ _____    ______ ____
ROOT
ATOM      1  N   UNL     1      17.839  11.288  37.196  0.00  0.00    +0.000 NA
ATOM      2  C   UNL     1      18.963  11.581  37.987  0.00  0.00    +0.000 C 
ATOM      3  O   UNL     1      19.216  12.803  38.143  0.00  0.00    +0.000 OA
ENDROOT
BRANCH   2   4
ATOM      4  C   UNL     1      19.819  10.530  38.617  0.00  0.00    +0.000 A 
ATOM      5  C   UNL     1      19.319   9.785  39.658  0.00  0.00    +0.000 A 
ATOM      6  N   UNL     1      18.021   9.852  40.282  0.00  0.00    +0.000 NA
ATOM      7  S   UNL     1      20.604   8.747  40.046  0.00  0.00    +0.000 S 
ATOM      8  C   UNL     1      21.746   9.270  38.893  0.00  0.00    +0.000 A 
ATOM      9  C   UNL     1      21.080  10.256  38.226  0.00  0.00    +0.000 A 
ATOM     10  C   UNL     1      22.062  10.768  37.171  0.00  0.00    +0.000 C 
ATOM     11  C   UNL     1      22.936   9.558  36.919  0.00  0.00    +0.000 C 
ATOM     12  C   UNL     1      23.144   9.078  38.345  0.00  0.00    +0.000 C 
ENDBRANCH   2   4
BRANCH   1  13
ATOM     13  C   UNL     1      17.002  12.270  36.581  0.00  0.00    +0.000 C 
BRANCH  13  18
ATOM     14  C   UNL     1      11.378  11.492  37.410  0.00  0.00    +0.000 C 
ATOM     15  C   UNL     1      12.853  11.689  37.201  0.00  0.00    +0.000 A 
ATOM     16  C   UNL     1      13.325  12.508  36.206  0.00  0.00    +0.000 A 
ATOM     17  C   UNL     1      14.659  12.707  35.991  0.00  0.00    +0.000 A 
ATOM     18  C   UNL     1      15.574  12.077  36.788  0.00  0.00    +0.000 A 
ATOM     19  C   UNL     1      15.123  11.256  37.786  0.00  0.00    +0.000 A 
ATOM     20  C   UNL     1      13.759  11.045  38.013  0.00  0.00    +0.000 A 
ENDBRANCH  13  18
ENDBRANCH   1  13
TORSDOF 3
ENDMDL
MODEL 9
REMARK VINA RESULT:      -6.4     21.136     22.208
REMARK  Name = 
REMARK  3 active torsions:
REMARK  status: ('A' for Active; 'I' for Inactive)
REMARK    1  A    between atoms: C_5  and  C_6
REMARK    2  A    between atoms: C_6  and  N_7
REMARK    3  A    between atoms: C_8  and  C_10
REMARK                            x       y       z     vdW  Elec       q    Type
REMARK                         _______ _______ _______ _____ _____    ______ ____
ROOT
ATOM      1  N   UNL     1      16.216  -7.290  26.027  0.00  0.00    +0.000 NA
ATOM      2  C   UNL     1      15.611  -8.550  25.885  0.00  0.00    +0.000 C 
ATOM      3  O   UNL     1      16.030  -9.447  26.662  0.00  0.00    +0.000 OA
ENDROOT
BRANCH   2   4
ATOM      4  C   UNL     1      14.536  -8.837  24.887  0.00  0.00    +0.000 A 
ATOM      5  C   UNL     1      14.883  -9.213  23.611  0.00  0.00    +0.000 A 
ATOM      6  N   UNL     1      16.194  -9.390  23.040  0.00  0.00    +0.000 NA
ATOM      7  S   UNL     1      13.382  -9.429  22.848  0.00  0.00    +0.000 S 
ATOM      8  C   UNL     1      12.348  -9.042  24.148  0.00  0.00    +0.000 A 
ATOM      9  C   UNL     1      13.219  -8.751  25.157  0.00  0.00    +0.000 A 
ATOM     10  C   UNL     1      12.342  -8.393  26.358  0.00  0.00    +0.000 C 
ATOM     11  C   UNL     1      11.072  -9.171  26.084  0.00  0.00    +0.000 C 
ATOM     12  C   UNL     1      10.910  -8.901  24.598  0.00  0.00    +0.000 C 
ENDBRANCH   2   4
BRANCH   1  13
ATOM     13  C   UNL     1      17.244  -6.986  26.972  0.00  0.00    +0.000 C 
BRANCH  13  18
ATOM     14  C   UNL     1      22.540  -6.704  24.782  0.00  0.00    +0.000 C 
ATOM     15  C   UNL     1      21.154  -6.789  25.356  0.00  0.00    +0.000 A 
ATOM     16  C   UNL     1      20.425  -5.656  25.620  0.00  0.00    +0.000 A 
ATOM     17  C   UNL     1      19.164  -5.700  26.141  0.00  0.00    +0.000 A 
ATOM     18  C   UNL     1      18.588  -6.909  26.416  0.00  0.00    +0.000 A 
ATOM     19  C   UNL     1      19.298  -8.050  26.160  0.00  0.00    +0.000 A 
ATOM     20  C   UNL     1      20.590  -8.015  25.627  0.00  0.00    +0.000 A 
ENDBRANCH  13  18
ENDBRANCH   1  13
TORSDOF 3
ENDMDL
MODEL 10
REMARK VINA RESULT:      -6.4     16.659     19.145
REMARK  Name = 
REMARK  3 active torsions:
REMARK  status: ('A' for Active; 'I' for Inactive)
REMARK    1  A    between atoms: C_5  and  C_6
REMARK    2  A    between atoms: C_6  and  N_7
REMARK    3  A    between atoms: C_8  and  C_10
REMARK                            x       y       z     vdW  Elec       q    Type
REMARK                         _______ _______ _______ _____ _____    ______ ____
ROOT
ATOM      1  N   UNL     1      33.839   1.117  33.908  0.00  0.00    +0.000 NA
ATOM      2  C   UNL     1      32.973   0.141  34.427  0.00  0.00    +0.000 C 
ATOM      3  O   UNL     1      31.745   0.352  34.253  0.00  0.00    +0.000 OA
ENDROOT
BRANCH   2   4
ATOM      4  C   UNL     1      33.449  -1.082  35.144  0.00  0.00    +0.000 A 
ATOM      5  C   UNL     1      33.637  -1.036  36.504  0.00  0.00    +0.000 A 
ATOM      6  N   UNL     1      33.438   0.064  37.414  0.00  0.00    +0.000 NA
ATOM      7  S   UNL     1      34.167  -2.606  36.876  0.00  0.00    +0.000 S 
ATOM      8  C   UNL     1      34.142  -3.287  35.313  0.00  0.00    +0.000 A 
ATOM      9  C   UNL     1      33.713  -2.254  34.533  0.00  0.00    +0.000 A 
ATOM     10  C   UNL     1      33.671  -2.810  33.109  0.00  0.00    +0.000 C 
ATOM     11  C   UNL     1      33.439  -4.289  33.338  0.00  0.00    +0.000 C 
ATOM     12  C   UNL     1      34.397  -4.533  34.491  0.00  0.00    +0.000 C 
ENDBRANCH   2   4
BRANCH   1  13
ATOM     13  C   UNL     1      33.412   2.295  33.219  0.00  0.00    +0.000 C 
BRANCH  13  18
ATOM     14  C   UNL     1      34.098   7.202  36.113  0.00  0.00    +0.000 C 
ATOM     15  C   UNL     1      33.911   5.922  35.349  0.00  0.00    +0.000 A 
ATOM     16  C   UNL     1      34.653   4.805  35.643  0.00  0.00    +0.000 A 
ATOM     17  C   UNL     1      34.507   3.627  34.967  0.00  0.00    +0.000 A 
ATOM     18  C   UNL     1      33.590   3.538  33.957  0.00  0.00    +0.000 A 
ATOM     19  C   UNL     1      32.841   4.640  33.648  0.00  0.00    +0.000 A 
ATOM     20  C   UNL     1      32.984   5.850  34.334  0.00  0.00    +0.000 A 
ENDBRANCH  13  18
ENDBRANCH   1  13
TORSDOF 3
ENDMDL
