MODEL 1
REMARK VINA RESULT:      -8.3      0.000      0.000
REMARK  Name = 
REMARK  8 active torsions:
REMARK  status: ('A' for Active; 'I' for Inactive)
REMARK    1  A    between atoms: O_2  and  C_3
REMARK    2  A    between atoms: C_6  and  C_7
REMARK    3  A    between atoms: C_9  and  C_10
REMARK    4  A    between atoms: N_12  and  C_13
REMARK    5  A    between atoms: C_13  and  C_14
REMARK    6  A    between atoms: C_14  and  C_15
REMARK    7  A    between atoms: C_18  and  O_19
REMARK    8  A    between atoms: C_21  and  O_22
REMARK                            x       y       z     vdW  Elec       q    Type
REMARK                         _______ _______ _______ _____ _____    ______ ____
ROOT
ATOM      1  C   UNL     1      38.764   5.580  16.937  0.00  0.00    +0.000 A 
ATOM      2  C   UNL     1      38.377   4.257  16.922  0.00  0.00    +0.000 A 
ATOM      3  C   UNL     1      37.480   3.845  15.956  0.00  0.00    +0.000 A 
ATOM      4  C   UNL     1      37.026   4.793  15.061  0.00  0.00    +0.000 A 
ATOM      5  C   UNL     1      36.132   4.403  14.092  0.00  0.00    +0.000 A 
ATOM      6  C   UNL     1      35.613   5.262  13.146  0.00  0.00    +0.000 A 
ATOM      7  C   UNL     1      36.031   6.584  13.199  0.00  0.00    +0.000 A 
ATOM      8  C   UNL     1      36.935   7.008  14.169  0.00  0.00    +0.000 A 
ATOM      9  C   UNL     1      37.423   6.107  15.090  0.00  0.00    +0.000 A 
ATOM     10  N   UNL     1      38.301   6.476  16.048  0.00  0.00    +0.000 NA
ENDROOT
BRANCH   1  14
ATOM     11  C   UNL     1      41.594   6.844  19.872  0.00  0.00    +0.000 A 
ATOM     12  C   UNL     1      40.262   6.678  20.183  0.00  0.00    +0.000 A 
ATOM     13  C   UNL     1      39.323   6.272  19.260  0.00  0.00    +0.000 A 
ATOM     14  C   UNL     1      39.719   6.017  17.964  0.00  0.00    +0.000 A 
ATOM     15  C   UNL     1      41.054   6.186  17.669  0.00  0.00    +0.000 A 
ATOM     16  C   UNL     1      41.998   6.592  18.583  0.00  0.00    +0.000 A 
BRANCH  11  18
ATOM     17  C   UNL     1      43.300   6.264  21.450  0.00  0.00    +0.000 C 
ATOM     18  O   UNL     1      42.477   7.260  20.873  0.00  0.00    +0.000 OA
ENDBRANCH  11  18
ENDBRANCH   1  14
BRANCH   3  19
ATOM     19  C   UNL     1      37.020   2.472  15.870  0.00  0.00    +0.000 C 
ATOM     20  O   UNL     1      37.743   1.585  15.364  0.00  0.00    +0.000 OA
ATOM     21  N   UNL     1      35.739   2.094  16.358  0.00  0.00    +0.000 NA
BRANCH  21  22
ATOM     22  C   UNL     1      35.213   0.764  16.310  0.00  0.00    +0.000 C 
BRANCH  22  23
ATOM     23  C   UNL     1      35.061   0.253  17.722  0.00  0.00    +0.000 C 
BRANCH  23  24
ATOM     24  C   UNL     1      36.074  -0.815  17.927  0.00  0.00    +0.000 A 
ATOM     25  C   UNL     1      36.809  -0.835  19.072  0.00  0.00    +0.000 A 
ATOM     26  C   UNL     1      37.775  -1.815  19.313  0.00  0.00    +0.000 A 
ATOM     27  C   UNL     1      37.982  -2.787  18.358  0.00  0.00    +0.000 A 
ATOM     28  C   UNL     1      37.244  -2.788  17.181  0.00  0.00    +0.000 A 
ATOM     29  C   UNL     1      36.288  -1.789  16.979  0.00  0.00    +0.000 A 
BRANCH  27  30
ATOM     30  O   UNL     1      38.935  -3.771  18.578  0.00  0.00    +0.000 OA
ATOM     31  C   UNL     1      38.988  -4.452  19.794  0.00  0.00    +0.000 C 
ENDBRANCH  27  30
BRANCH  28  32
ATOM     32  O   UNL     1      37.470  -3.771  16.239  0.00  0.00    +0.000 OA
ATOM     33  C   UNL     1      36.658  -4.938  16.266  0.00  0.00    +0.000 C 
ENDBRANCH  28  32
ENDBRANCH  23  24
ENDBRANCH  22  23
ENDBRANCH  21  22
ENDBRANCH   3  19
TORSDOF 8
ENDMDL
MODEL 2
REMARK VINA RESULT:      -8.0      2.560      4.514
REMARK  Name = 
REMARK  8 active torsions:
REMARK  status: ('A' for Active; 'I' for Inactive)
REMARK    1  A    between atoms: O_2  and  C_3
REMARK    2  A    between atoms: C_6  and  C_7
REMARK    3  A    between atoms: C_9  and  C_10
REMARK    4  A    between atoms: N_12  and  C_13
REMARK    5  A    between atoms: C_13  and  C_14
REMARK    6  A    between atoms: C_14  and  C_15
REMARK    7  A    between atoms: C_18  and  O_19
REMARK    8  A    between atoms: C_21  and  O_22
REMARK                            x       y       z     vdW  Elec       q    Type
REMARK                         _______ _______ _______ _____ _____    ______ ____
ROOT
ATOM      1  C   UNL     1      37.759   3.536  16.599  0.00  0.00    +0.000 A 
ATOM      2  C   UNL     1      38.350   3.027  15.462  0.00  0.00    +0.000 A 
ATOM      3  C   UNL     1      37.914   1.808  14.984  0.00  0.00    +0.000 A 
ATOM      4  C   UNL     1      36.907   1.171  15.682  0.00  0.00    +0.000 A 
ATOM      5  C   UNL     1      36.459  -0.045  15.222  0.00  0.00    +0.000 A 
ATOM      6  C   UNL     1      35.460  -0.769  15.837  0.00  0.00    +0.000 A 
ATOM      7  C   UNL     1      34.894  -0.219  16.978  0.00  0.00    +0.000 A 
ATOM      8  C   UNL     1      35.327   1.010  17.467  0.00  0.00    +0.000 A 
ATOM      9  C   UNL     1      36.329   1.693  16.813  0.00  0.00    +0.000 A 
ATOM     10  N   UNL     1      36.779   2.888  17.253  0.00  0.00    +0.000 NA
ENDROOT
BRANCH   1  14
ATOM     11  C   UNL     1      39.090   7.340  18.007  0.00  0.00    +0.000 A 
ATOM     12  C   UNL     1      39.165   6.215  18.798  0.00  0.00    +0.000 A 
ATOM     13  C   UNL     1      38.744   4.972  18.375  0.00  0.00    +0.000 A 
ATOM     14  C   UNL     1      38.223   4.834  17.106  0.00  0.00    +0.000 A 
ATOM     15  C   UNL     1      38.156   5.968  16.327  0.00  0.00    +0.000 A 
ATOM     16  C   UNL     1      38.572   7.212  16.740  0.00  0.00    +0.000 A 
BRANCH  11  18
ATOM     17  C   UNL     1      39.199   8.854  19.859  0.00  0.00    +0.000 C 
ATOM     18  O   UNL     1      39.541   8.560  18.519  0.00  0.00    +0.000 OA
ENDBRANCH  11  18
ENDBRANCH   1  14
BRANCH   3  19
ATOM     19  C   UNL     1      38.482   1.201  13.795  0.00  0.00    +0.000 C 
ATOM     20  O   UNL     1      37.947   1.364  12.675  0.00  0.00    +0.000 OA
ATOM     21  N   UNL     1      39.660   0.407  13.865  0.00  0.00    +0.000 NA
BRANCH  21  22
ATOM     22  C   UNL     1      40.281  -0.224  12.741  0.00  0.00    +0.000 C 
BRANCH  22  23
ATOM     23  C   UNL     1      40.785  -1.582  13.166  0.00  0.00    +0.000 C 
BRANCH  23  24
ATOM     24  C   UNL     1      39.670  -2.281  13.857  0.00  0.00    +0.000 A 
ATOM     25  C   UNL     1      38.627  -2.767  13.132  0.00  0.00    +0.000 A 
ATOM     26  C   UNL     1      37.554  -3.430  13.732  0.00  0.00    +0.000 A 
ATOM     27  C   UNL     1      37.561  -3.593  15.101  0.00  0.00    +0.000 A 
ATOM     28  C   UNL     1      38.615  -3.105  15.863  0.00  0.00    +0.000 A 
ATOM     29  C   UNL     1      39.669  -2.448  15.224  0.00  0.00    +0.000 A 
BRANCH  27  30
ATOM     30  O   UNL     1      36.506  -4.250  15.717  0.00  0.00    +0.000 OA
ATOM     31  C   UNL     1      35.299  -4.445  15.046  0.00  0.00    +0.000 C 
ENDBRANCH  27  30
BRANCH  28  32
ATOM     32  O   UNL     1      38.599  -3.280  17.232  0.00  0.00    +0.000 OA
ATOM     33  C   UNL     1      38.229  -2.181  18.055  0.00  0.00    +0.000 C 
ENDBRANCH  28  32
ENDBRANCH  23  24
ENDBRANCH  22  23
ENDBRANCH  21  22
ENDBRANCH   3  19
TORSDOF 8
ENDMDL
MODEL 3
REMARK VINA RESULT:      -7.9      3.444      8.827
REMARK  Name = 
REMARK  8 active torsions:
REMARK  status: ('A' for Active; 'I' for Inactive)
REMARK    1  A    between atoms: O_2  and  C_3
REMARK    2  A    between atoms: C_6  and  C_7
REMARK    3  A    between atoms: C_9  and  C_10
REMARK    4  A    between atoms: N_12  and  C_13
REMARK    5  A    between atoms: C_13  and  C_14
REMARK    6  A    between atoms: C_14  and  C_15
REMARK    7  A    between atoms: C_18  and  O_19
REMARK    8  A    between atoms: C_21  and  O_22
REMARK                            x       y       z     vdW  Elec       q    Type
REMARK                         _______ _______ _______ _____ _____    ______ ____
ROOT
ATOM      1  C   UNL     1      38.803  -0.538  14.536  0.00  0.00    +0.000 A 
ATOM      2  C   UNL     1      38.914   0.835  14.473  0.00  0.00    +0.000 A 
ATOM      3  C   UNL     1      37.927   1.602  15.059  0.00  0.00    +0.000 A 
ATOM      4  C   UNL     1      36.885   0.939  15.676  0.00  0.00    +0.000 A 
ATOM      5  C   UNL     1      35.892   1.686  16.265  0.00  0.00    +0.000 A 
ATOM      6  C   UNL     1      34.805   1.132  16.909  0.00  0.00    +0.000 A 
ATOM      7  C   UNL     1      34.734  -0.253  16.948  0.00  0.00    +0.000 A 
ATOM      8  C   UNL     1      35.725  -1.034  16.360  0.00  0.00    +0.000 A 
ATOM      9  C   UNL     1      36.790  -0.429  15.730  0.00  0.00    +0.000 A 
ATOM     10  N   UNL     1      37.773  -1.149  15.146  0.00  0.00    +0.000 NA
ENDROOT
BRANCH   1  14
ATOM     11  C   UNL     1      41.905  -2.886  12.779  0.00  0.00    +0.000 A 
ATOM     12  C   UNL     1      40.655  -2.803  12.206  0.00  0.00    +0.000 A 
ATOM     13  C   UNL     1      39.631  -2.055  12.748  0.00  0.00    +0.000 A 
ATOM     14  C   UNL     1      39.854  -1.353  13.913  0.00  0.00    +0.000 A 
ATOM     15  C   UNL     1      41.109  -1.446  14.473  0.00  0.00    +0.000 A 
ATOM     16  C   UNL     1      42.136  -2.190  13.941  0.00  0.00    +0.000 A 
BRANCH  11  18
ATOM     17  C   UNL     1      44.209  -3.519  12.629  0.00  0.00    +0.000 C 
ATOM     18  O   UNL     1      42.883  -3.669  12.161  0.00  0.00    +0.000 OA
ENDBRANCH  11  18
ENDBRANCH   1  14
BRANCH   3  19
ATOM     19  C   UNL     1      37.967   3.052  15.037  0.00  0.00    +0.000 C 
ATOM     20  O   UNL     1      37.435   3.693  14.104  0.00  0.00    +0.000 OA
ATOM     21  N   UNL     1      38.608   3.787  16.073  0.00  0.00    +0.000 NA
BRANCH  21  22
ATOM     22  C   UNL     1      38.689   5.214  16.124  0.00  0.00    +0.000 C 
BRANCH  22  23
ATOM     23  C   UNL     1      38.438   5.663  17.544  0.00  0.00    +0.000 C 
BRANCH  23  24
ATOM     24  C   UNL     1      39.752   5.998  18.151  0.00  0.00    +0.000 A 
ATOM     25  C   UNL     1      39.861   6.107  19.502  0.00  0.00    +0.000 A 
ATOM     26  C   UNL     1      41.072   6.422  20.123  0.00  0.00    +0.000 A 
ATOM     27  C   UNL     1      42.185   6.625  19.335  0.00  0.00    +0.000 A 
ATOM     28  C   UNL     1      42.099   6.519  17.953  0.00  0.00    +0.000 A 
ATOM     29  C   UNL     1      40.868   6.203  17.372  0.00  0.00    +0.000 A 
BRANCH  27  30
ATOM     30  O   UNL     1      43.398   6.938  19.931  0.00  0.00    +0.000 OA
ATOM     31  C   UNL     1      43.746   6.392  21.167  0.00  0.00    +0.000 C 
ENDBRANCH  27  30
BRANCH  28  32
ATOM     32  O   UNL     1      43.226   6.727  17.185  0.00  0.00    +0.000 OA
ATOM     33  C   UNL     1      43.114   6.629  15.771  0.00  0.00    +0.000 C 
ENDBRANCH  28  32
ENDBRANCH  23  24
ENDBRANCH  22  23
ENDBRANCH  21  22
ENDBRANCH   3  19
TORSDOF 8
ENDMDL
MODEL 4
REMARK VINA RESULT:      -7.9      3.364      9.030
REMARK  Name = 
REMARK  8 active torsions:
REMARK  status: ('A' for Active; 'I' for Inactive)
REMARK    1  A    between atoms: O_2  and  C_3
REMARK    2  A    between atoms: C_6  and  C_7
REMARK    3  A    between atoms: C_9  and  C_10
REMARK    4  A    between atoms: N_12  and  C_13
REMARK    5  A    between atoms: C_13  and  C_14
REMARK    6  A    between atoms: C_14  and  C_15
REMARK    7  A    between atoms: C_18  and  O_19
REMARK    8  A    between atoms: C_21  and  O_22
REMARK                            x       y       z     vdW  Elec       q    Type
REMARK                         _______ _______ _______ _____ _____    ______ ____
ROOT
ATOM      1  C   UNL     1      38.633  -0.846  14.703  0.00  0.00    +0.000 A 
ATOM      2  C   UNL     1      38.629   0.532  14.660  0.00  0.00    +0.000 A 
ATOM      3  C   UNL     1      37.589   1.206  15.268  0.00  0.00    +0.000 A 
ATOM      4  C   UNL     1      36.612   0.450  15.885  0.00  0.00    +0.000 A 
ATOM      5  C   UNL     1      35.567   1.103  16.496  0.00  0.00    +0.000 A 
ATOM      6  C   UNL     1      34.538   0.451  17.142  0.00  0.00    +0.000 A 
ATOM      7  C   UNL     1      34.583  -0.935  17.160  0.00  0.00    +0.000 A 
ATOM      8  C   UNL     1      35.628  -1.623  16.550  0.00  0.00    +0.000 A 
ATOM      9  C   UNL     1      36.632  -0.922  15.918  0.00  0.00    +0.000 A 
ATOM     10  N   UNL     1      37.665  -1.550  15.314  0.00  0.00    +0.000 NA
ENDROOT
BRANCH   1  14
ATOM     11  C   UNL     1      41.900  -2.898  12.875  0.00  0.00    +0.000 A 
ATOM     12  C   UNL     1      40.625  -2.973  12.359  0.00  0.00    +0.000 A 
ATOM     13  C   UNL     1      39.548  -2.324  12.925  0.00  0.00    +0.000 A 
ATOM     14  C   UNL     1      39.741  -1.562  14.057  0.00  0.00    +0.000 A 
ATOM     15  C   UNL     1      41.022  -1.496  14.560  0.00  0.00    +0.000 A 
ATOM     16  C   UNL     1      42.102  -2.140  14.004  0.00  0.00    +0.000 A 
BRANCH  11  18
ATOM     17  C   UNL     1      43.103  -3.345  10.854  0.00  0.00    +0.000 C 
ATOM     18  O   UNL     1      42.932  -3.590  12.236  0.00  0.00    +0.000 OA
ENDBRANCH  11  18
ENDBRANCH   1  14
BRANCH   3  19
ATOM     19  C   UNL     1      37.508   2.655  15.269  0.00  0.00    +0.000 C 
ATOM     20  O   UNL     1      36.915   3.263  14.350  0.00  0.00    +0.000 OA
ATOM     21  N   UNL     1      38.098   3.424  16.309  0.00  0.00    +0.000 NA
BRANCH  21  22
ATOM     22  C   UNL     1      38.061   4.853  16.382  0.00  0.00    +0.000 C 
BRANCH  22  23
ATOM     23  C   UNL     1      39.402   5.394  15.948  0.00  0.00    +0.000 C 
BRANCH  23  24
ATOM     24  C   UNL     1      40.081   5.938  17.152  0.00  0.00    +0.000 A 
ATOM     25  C   UNL     1      41.428   6.129  17.138  0.00  0.00    +0.000 A 
ATOM     26  C   UNL     1      42.115   6.635  18.243  0.00  0.00    +0.000 A 
ATOM     27  C   UNL     1      41.399   6.950  19.379  0.00  0.00    +0.000 A 
ATOM     28  C   UNL     1      40.022   6.764  19.418  0.00  0.00    +0.000 A 
ATOM     29  C   UNL     1      39.374   6.253  18.290  0.00  0.00    +0.000 A 
BRANCH  27  30
ATOM     30  O   UNL     1      42.061   7.455  20.488  0.00  0.00    +0.000 OA
ATOM     31  C   UNL     1      43.088   6.733  21.095  0.00  0.00    +0.000 C 
ENDBRANCH  27  30
BRANCH  28  32
ATOM     32  O   UNL     1      39.327   7.085  20.566  0.00  0.00    +0.000 OA
ATOM     33  C   UNL     1      38.575   8.291  20.590  0.00  0.00    +0.000 C 
ENDBRANCH  28  32
ENDBRANCH  23  24
ENDBRANCH  22  23
ENDBRANCH  21  22
ENDBRANCH   3  19
TORSDOF 8
ENDMDL
MODEL 5
REMARK VINA RESULT:      -7.9      2.316      3.152
REMARK  Name = 
REMARK  8 active torsions:
REMARK  status: ('A' for Active; 'I' for Inactive)
REMARK    1  A    between atoms: O_2  and  C_3
REMARK    2  A    between atoms: C_6  and  C_7
REMARK    3  A    between atoms: C_9  and  C_10
REMARK    4  A    between atoms: N_12  and  C_13
REMARK    5  A    between atoms: C_13  and  C_14
REMARK    6  A    between atoms: C_14  and  C_15
REMARK    7  A    between atoms: C_18  and  O_19
REMARK    8  A    between atoms: C_21  and  O_22
REMARK                            x       y       z     vdW  Elec       q    Type
REMARK                         _______ _______ _______ _____ _____    ______ ____
ROOT
ATOM      1  C   UNL     1      38.510   4.998  17.109  0.00  0.00    +0.000 A 
ATOM      2  C   UNL     1      37.499   4.088  17.335  0.00  0.00    +0.000 A 
ATOM      3  C   UNL     1      37.277   3.104  16.394  0.00  0.00    +0.000 A 
ATOM      4  C   UNL     1      38.089   3.093  15.277  0.00  0.00    +0.000 A 
ATOM      5  C   UNL     1      37.884   2.120  14.327  0.00  0.00    +0.000 A 
ATOM      6  C   UNL     1      38.634   2.013  13.175  0.00  0.00    +0.000 A 
ATOM      7  C   UNL     1      39.640   2.949  12.988  0.00  0.00    +0.000 A 
ATOM      8  C   UNL     1      39.871   3.946  13.933  0.00  0.00    +0.000 A 
ATOM      9  C   UNL     1      39.092   4.007  15.068  0.00  0.00    +0.000 A 
ATOM     10  N   UNL     1      39.282   4.957  16.009  0.00  0.00    +0.000 NA
ENDROOT
BRANCH   1  14
ATOM     11  C   UNL     1      39.148   8.086  19.986  0.00  0.00    +0.000 A 
ATOM     12  C   UNL     1      39.789   6.871  20.082  0.00  0.00    +0.000 A 
ATOM     13  C   UNL     1      39.605   5.852  19.172  0.00  0.00    +0.000 A 
ATOM     14  C   UNL     1      38.745   6.045  18.112  0.00  0.00    +0.000 A 
ATOM     15  C   UNL     1      38.112   7.266  18.028  0.00  0.00    +0.000 A 
ATOM     16  C   UNL     1      38.288   8.287  18.932  0.00  0.00    +0.000 A 
BRANCH  11  18
ATOM     17  C   UNL     1      39.268  10.411  20.549  0.00  0.00    +0.000 C 
ATOM     18  O   UNL     1      39.394   9.062  20.956  0.00  0.00    +0.000 OA
ENDBRANCH  11  18
ENDBRANCH   1  14
BRANCH   3  19
ATOM     19  C   UNL     1      36.234   2.108  16.554  0.00  0.00    +0.000 C 
ATOM     20  O   UNL     1      35.070   2.330  16.151  0.00  0.00    +0.000 OA
ATOM     21  N   UNL     1      36.501   0.854  17.170  0.00  0.00    +0.000 NA
BRANCH  21  22
ATOM     22  C   UNL     1      35.529  -0.177  17.365  0.00  0.00    +0.000 C 
BRANCH  22  23
ATOM     23  C   UNL     1      35.461  -1.020  16.114  0.00  0.00    +0.000 C 
BRANCH  23  24
ATOM     24  C   UNL     1      36.823  -1.557  15.857  0.00  0.00    +0.000 A 
ATOM     25  C   UNL     1      37.439  -1.292  14.673  0.00  0.00    +0.000 A 
ATOM     26  C   UNL     1      38.717  -1.774  14.380  0.00  0.00    +0.000 A 
ATOM     27  C   UNL     1      39.366  -2.539  15.325  0.00  0.00    +0.000 A 
ATOM     28  C   UNL     1      38.758  -2.823  16.542  0.00  0.00    +0.000 A 
ATOM     29  C   UNL     1      37.478  -2.322  16.794  0.00  0.00    +0.000 A 
BRANCH  27  30
ATOM     30  O   UNL     1      40.636  -3.027  15.056  0.00  0.00    +0.000 OA
ATOM     31  C   UNL     1      41.600  -2.213  14.460  0.00  0.00    +0.000 C 
ENDBRANCH  27  30
BRANCH  28  32
ATOM     32  O   UNL     1      39.427  -3.592  17.472  0.00  0.00    +0.000 OA
ATOM     33  C   UNL     1      38.673  -4.249  18.482  0.00  0.00    +0.000 C 
ENDBRANCH  28  32
ENDBRANCH  23  24
ENDBRANCH  22  23
ENDBRANCH  21  22
ENDBRANCH   3  19
TORSDOF 8
ENDMDL
MODEL 6
REMARK VINA RESULT:      -7.9     22.952     26.498
REMARK  Name = 
REMARK  8 active torsions:
REMARK  status: ('A' for Active; 'I' for Inactive)
REMARK    1  A    between atoms: O_2  and  C_3
REMARK    2  A    between atoms: C_6  and  C_7
REMARK    3  A    between atoms: C_9  and  C_10
REMARK    4  A    between atoms: N_12  and  C_13
REMARK    5  A    between atoms: C_13  and  C_14
REMARK    6  A    between atoms: C_14  and  C_15
REMARK    7  A    between atoms: C_18  and  O_19
REMARK    8  A    between atoms: C_21  and  O_22
REMARK                            x       y       z     vdW  Elec       q    Type
REMARK                         _______ _______ _______ _____ _____    ______ ____
ROOT
ATOM      1  C   UNL     1      11.799  -1.410  25.965  0.00  0.00    +0.000 A 
ATOM      2  C   UNL     1      13.021  -1.184  26.561  0.00  0.00    +0.000 A 
ATOM      3  C   UNL     1      13.325   0.098  26.974  0.00  0.00    +0.000 A 
ATOM      4  C   UNL     1      12.377   1.079  26.760  0.00  0.00    +0.000 A 
ATOM      5  C   UNL     1      12.661   2.362  27.163  0.00  0.00    +0.000 A 
ATOM      6  C   UNL     1      11.791   3.419  27.001  0.00  0.00    +0.000 A 
ATOM      7  C   UNL     1      10.573   3.147  26.396  0.00  0.00    +0.000 A 
ATOM      8  C   UNL     1      10.258   1.857  25.977  0.00  0.00    +0.000 A 
ATOM      9  C   UNL     1      11.164   0.836  26.164  0.00  0.00    +0.000 A 
ATOM     10  N   UNL     1      10.899  -0.430  25.773  0.00  0.00    +0.000 NA
ENDROOT
BRANCH   1  14
ATOM     11  C   UNL     1      10.913  -5.402  24.741  0.00  0.00    +0.000 A 
ATOM     12  C   UNL     1      10.274  -4.320  24.177  0.00  0.00    +0.000 A 
ATOM     13  C   UNL     1      10.536  -3.019  24.549  0.00  0.00    +0.000 A 
ATOM     14  C   UNL     1      11.476  -2.775  25.527  0.00  0.00    +0.000 A 
ATOM     15  C   UNL     1      12.107  -3.867  26.081  0.00  0.00    +0.000 A 
ATOM     16  C   UNL     1      11.852  -5.169  25.717  0.00  0.00    +0.000 A 
BRANCH  11  18
ATOM     17  C   UNL     1      10.372  -7.667  25.301  0.00  0.00    +0.000 C 
ATOM     18  O   UNL     1      10.584  -6.688  24.302  0.00  0.00    +0.000 OA
ENDBRANCH  11  18
ENDBRANCH   1  14
BRANCH   3  19
ATOM     19  C   UNL     1      14.588   0.421  27.609  0.00  0.00    +0.000 C 
ATOM     20  O   UNL     1      14.723   0.330  28.849  0.00  0.00    +0.000 OA
ATOM     21  N   UNL     1      15.708   0.850  26.844  0.00  0.00    +0.000 NA
BRANCH  21  22
ATOM     22  C   UNL     1      16.985   1.187  27.394  0.00  0.00    +0.000 C 
BRANCH  22  23
ATOM     23  C   UNL     1      17.739  -0.089  27.684  0.00  0.00    +0.000 C 
BRANCH  23  24
ATOM     24  C   UNL     1      18.339  -0.558  26.408  0.00  0.00    +0.000 A 
ATOM     25  C   UNL     1      18.476  -1.892  26.179  0.00  0.00    +0.000 A 
ATOM     26  C   UNL     1      19.035  -2.387  24.999  0.00  0.00    +0.000 A 
ATOM     27  C   UNL     1      19.456  -1.489  24.041  0.00  0.00    +0.000 A 
ATOM     28  C   UNL     1      19.326  -0.122  24.251  0.00  0.00    +0.000 A 
ATOM     29  C   UNL     1      18.762   0.331  25.447  0.00  0.00    +0.000 A 
BRANCH  27  30
ATOM     30  O   UNL     1      20.012  -1.958  22.860  0.00  0.00    +0.000 OA
ATOM     31  C   UNL     1      19.858  -3.291  22.481  0.00  0.00    +0.000 C 
ENDBRANCH  27  30
BRANCH  28  32
ATOM     32  O   UNL     1      19.755   0.758  23.278  0.00  0.00    +0.000 OA
ATOM     33  C   UNL     1      21.132   1.110  23.239  0.00  0.00    +0.000 C 
ENDBRANCH  28  32
ENDBRANCH  23  24
ENDBRANCH  22  23
ENDBRANCH  21  22
ENDBRANCH   3  19
TORSDOF 8
ENDMDL
MODEL 7
REMARK VINA RESULT:      -7.9      2.563      4.621
REMARK  Name = 
REMARK  8 active torsions:
REMARK  status: ('A' for Active; 'I' for Inactive)
REMARK    1  A    between atoms: O_2  and  C_3
REMARK    2  A    between atoms: C_6  and  C_7
REMARK    3  A    between atoms: C_9  and  C_10
REMARK    4  A    between atoms: N_12  and  C_13
REMARK    5  A    between atoms: C_13  and  C_14
REMARK    6  A    between atoms: C_14  and  C_15
REMARK    7  A    between atoms: C_18  and  O_19
REMARK    8  A    between atoms: C_21  and  O_22
REMARK                            x       y       z     vdW  Elec       q    Type
REMARK                         _______ _______ _______ _____ _____    ______ ____
ROOT
ATOM      1  C   UNL     1      41.552   6.764  19.716  0.00  0.00    +0.000 A 
ATOM      2  C   UNL     1      41.040   6.075  18.637  0.00  0.00    +0.000 A 
ATOM      3  C   UNL     1      39.745   6.343  18.241  0.00  0.00    +0.000 A 
ATOM      4  C   UNL     1      39.041   7.290  18.957  0.00  0.00    +0.000 A 
ATOM      5  C   UNL     1      37.748   7.570  18.578  0.00  0.00    +0.000 A 
ATOM      6  C   UNL     1      36.953   8.496  19.218  0.00  0.00    +0.000 A 
ATOM      7  C   UNL     1      37.509   9.166  20.298  0.00  0.00    +0.000 A 
ATOM      8  C   UNL     1      38.814   8.903  20.705  0.00  0.00    +0.000 A 
ATOM      9  C   UNL     1      39.566   7.967  20.029  0.00  0.00    +0.000 A 
ATOM     10  N   UNL     1      40.836   7.682  20.390  0.00  0.00    +0.000 NA
ENDROOT
BRANCH   1  14
ATOM     11  C   UNL     1      45.531   5.910  21.001  0.00  0.00    +0.000 A 
ATOM     12  C   UNL     1      45.283   6.526  19.795  0.00  0.00    +0.000 A 
ATOM     13  C   UNL     1      44.011   6.816  19.350  0.00  0.00    +0.000 A 
ATOM     14  C   UNL     1      42.930   6.480  20.137  0.00  0.00    +0.000 A 
ATOM     15  C   UNL     1      43.195   5.865  21.340  0.00  0.00    +0.000 A 
ATOM     16  C   UNL     1      44.460   5.571  21.793  0.00  0.00    +0.000 A 
BRANCH  11  18
ATOM     17  C   UNL     1      47.202   5.921  22.718  0.00  0.00    +0.000 C 
ATOM     18  O   UNL     1      46.855   5.654  21.373  0.00  0.00    +0.000 OA
ENDBRANCH  11  18
ENDBRANCH   1  14
BRANCH   3  19
ATOM     19  C   UNL     1      39.129   5.662  17.117  0.00  0.00    +0.000 C 
ATOM     20  O   UNL     1      39.166   6.159  15.969  0.00  0.00    +0.000 OA
ATOM     21  N   UNL     1      38.469   4.414  17.285  0.00  0.00    +0.000 NA
BRANCH  21  22
ATOM     22  C   UNL     1      37.839   3.681  16.230  0.00  0.00    +0.000 C 
BRANCH  22  23
ATOM     23  C   UNL     1      36.411   3.391  16.627  0.00  0.00    +0.000 C 
BRANCH  23  24
ATOM     24  C   UNL     1      36.176   1.937  16.434  0.00  0.00    +0.000 A 
ATOM     25  C   UNL     1      35.093   1.348  17.008  0.00  0.00    +0.000 A 
ATOM     26  C   UNL     1      34.826  -0.015  16.859  0.00  0.00    +0.000 A 
ATOM     27  C   UNL     1      35.692  -0.779  16.106  0.00  0.00    +0.000 A 
ATOM     28  C   UNL     1      36.805  -0.200  15.509  0.00  0.00    +0.000 A 
ATOM     29  C   UNL     1      37.036   1.167  15.684  0.00  0.00    +0.000 A 
BRANCH  27  30
ATOM     30  O   UNL     1      35.445  -2.134  15.944  0.00  0.00    +0.000 OA
ATOM     31  C   UNL     1      35.868  -3.055  16.903  0.00  0.00    +0.000 C 
ENDBRANCH  27  30
BRANCH  28  32
ATOM     32  O   UNL     1      37.658  -0.985  14.760  0.00  0.00    +0.000 OA
ATOM     33  C   UNL     1      38.924  -1.330  15.308  0.00  0.00    +0.000 C 
ENDBRANCH  28  32
ENDBRANCH  23  24
ENDBRANCH  22  23
ENDBRANCH  21  22
ENDBRANCH   3  19
TORSDOF 8
ENDMDL
MODEL 8
REMARK VINA RESULT:      -7.8      3.797      9.504
REMARK  Name = 
REMARK  8 active torsions:
REMARK  status: ('A' for Active; 'I' for Inactive)
REMARK    1  A    between atoms: O_2  and  C_3
REMARK    2  A    between atoms: C_6  and  C_7
REMARK    3  A    between atoms: C_9  and  C_10
REMARK    4  A    between atoms: N_12  and  C_13
REMARK    5  A    between atoms: C_13  and  C_14
REMARK    6  A    between atoms: C_14  and  C_15
REMARK    7  A    between atoms: C_18  and  O_19
REMARK    8  A    between atoms: C_21  and  O_22
REMARK                            x       y       z     vdW  Elec       q    Type
REMARK                         _______ _______ _______ _____ _____    ______ ____
ROOT
ATOM      1  C   UNL     1      37.692  -0.784  13.694  0.00  0.00    +0.000 A 
ATOM      2  C   UNL     1      37.618   0.528  14.111  0.00  0.00    +0.000 A 
ATOM      3  C   UNL     1      36.752   0.844  15.138  0.00  0.00    +0.000 A 
ATOM      4  C   UNL     1      36.010  -0.183  15.687  0.00  0.00    +0.000 A 
ATOM      5  C   UNL     1      35.141   0.112  16.711  0.00  0.00    +0.000 A 
ATOM      6  C   UNL     1      34.353  -0.832  17.334  0.00  0.00    +0.000 A 
ATOM      7  C   UNL     1      34.460  -2.140  16.883  0.00  0.00    +0.000 A 
ATOM      8  C   UNL     1      35.330  -2.468  15.847  0.00  0.00    +0.000 A 
ATOM      9  C   UNL     1      36.097  -1.485  15.260  0.00  0.00    +0.000 A 
ATOM     10  N   UNL     1      36.954  -1.759  14.253  0.00  0.00    +0.000 NA
ENDROOT
BRANCH   1  14
ATOM     11  C   UNL     1      40.362  -1.689  10.490  0.00  0.00    +0.000 A 
ATOM     12  C   UNL     1      40.051  -2.626  11.451  0.00  0.00    +0.000 A 
ATOM     13  C   UNL     1      39.193  -2.366  12.499  0.00  0.00    +0.000 A 
ATOM     14  C   UNL     1      38.614  -1.119  12.601  0.00  0.00    +0.000 A 
ATOM     15  C   UNL     1      38.935  -0.194  11.632  0.00  0.00    +0.000 A 
ATOM     16  C   UNL     1      39.790  -0.443  10.584  0.00  0.00    +0.000 A 
BRANCH  11  18
ATOM     17  C   UNL     1      40.729  -2.871   8.439  0.00  0.00    +0.000 C 
ATOM     18  O   UNL     1      41.243  -2.040   9.462  0.00  0.00    +0.000 OA
ENDBRANCH  11  18
ENDBRANCH   1  14
BRANCH   3  19
ATOM     19  C   UNL     1      36.612   2.200  15.636  0.00  0.00    +0.000 C 
ATOM     20  O   UNL     1      35.613   2.892  15.338  0.00  0.00    +0.000 OA
ATOM     21  N   UNL     1      37.602   2.781  16.475  0.00  0.00    +0.000 NA
BRANCH  21  22
ATOM     22  C   UNL     1      37.538   4.108  17.006  0.00  0.00    +0.000 C 
BRANCH  22  23
ATOM     23  C   UNL     1      38.914   4.726  16.934  0.00  0.00    +0.000 C 
BRANCH  23  24
ATOM     24  C   UNL     1      38.982   5.798  17.960  0.00  0.00    +0.000 A 
ATOM     25  C   UNL     1      37.999   6.737  18.020  0.00  0.00    +0.000 A 
ATOM     26  C   UNL     1      38.015   7.766  18.963  0.00  0.00    +0.000 A 
ATOM     27  C   UNL     1      39.062   7.824  19.859  0.00  0.00    +0.000 A 
ATOM     28  C   UNL     1      40.077   6.877  19.819  0.00  0.00    +0.000 A 
ATOM     29  C   UNL     1      40.023   5.864  18.858  0.00  0.00    +0.000 A 
BRANCH  27  30
ATOM     30  O   UNL     1      39.097   8.838  20.805  0.00  0.00    +0.000 OA
ATOM     31  C   UNL     1      38.273   9.956  20.683  0.00  0.00    +0.000 C 
ENDBRANCH  27  30
BRANCH  28  32
ATOM     32  O   UNL     1      41.115   6.956  20.725  0.00  0.00    +0.000 OA
ATOM     33  C   UNL     1      42.320   6.257  20.442  0.00  0.00    +0.000 C 
ENDBRANCH  28  32
ENDBRANCH  23  24
ENDBRANCH  22  23
ENDBRANCH  21  22
ENDBRANCH   3  19
TORSDOF 8
ENDMDL
MODEL 9
REMARK VINA RESULT:      -7.8      3.924      9.454
REMARK  Name = 
REMARK  8 active torsions:
REMARK  status: ('A' for Active; 'I' for Inactive)
REMARK    1  A    between atoms: O_2  and  C_3
REMARK    2  A    between atoms: C_6  and  C_7
REMARK    3  A    between atoms: C_9  and  C_10
REMARK    4  A    between atoms: N_12  and  C_13
REMARK    5  A    between atoms: C_13  and  C_14
REMARK    6  A    between atoms: C_14  and  C_15
REMARK    7  A    between atoms: C_18  and  O_19
REMARK    8  A    between atoms: C_21  and  O_22
REMARK                            x       y       z     vdW  Elec       q    Type
REMARK                         _______ _______ _______ _____ _____    ______ ____
ROOT
ATOM      1  C   UNL     1      38.262  -0.640  14.192  0.00  0.00    +0.000 A 
ATOM      2  C   UNL     1      38.214   0.717  14.429  0.00  0.00    +0.000 A 
ATOM      3  C   UNL     1      37.245   1.201  15.285  0.00  0.00    +0.000 A 
ATOM      4  C   UNL     1      36.380   0.287  15.853  0.00  0.00    +0.000 A 
ATOM      5  C   UNL     1      35.407   0.749  16.708  0.00  0.00    +0.000 A 
ATOM      6  C   UNL     1      34.492  -0.071  17.332  0.00  0.00    +0.000 A 
ATOM      7  C   UNL     1      34.577  -1.430  17.064  0.00  0.00    +0.000 A 
ATOM      8  C   UNL     1      35.551  -1.927  16.203  0.00  0.00    +0.000 A 
ATOM      9  C   UNL     1      36.443  -1.063  15.606  0.00  0.00    +0.000 A 
ATOM     10  N   UNL     1      37.403  -1.502  14.763  0.00  0.00    +0.000 NA
ENDROOT
BRANCH   1  14
ATOM     11  C   UNL     1      41.221  -2.109  11.489  0.00  0.00    +0.000 A 
ATOM     12  C   UNL     1      41.343  -2.281  12.850  0.00  0.00    +0.000 A 
ATOM     13  C   UNL     1      40.407  -1.819  13.750  0.00  0.00    +0.000 A 
ATOM     14  C   UNL     1      39.294  -1.154  13.281  0.00  0.00    +0.000 A 
ATOM     15  C   UNL     1      39.186  -0.990  11.918  0.00  0.00    +0.000 A 
ATOM     16  C   UNL     1      40.115  -1.447  11.012  0.00  0.00    +0.000 A 
BRANCH  11  18
ATOM     17  C   UNL     1      42.254  -4.013  10.466  0.00  0.00    +0.000 C 
ATOM     18  O   UNL     1      42.220  -2.610  10.649  0.00  0.00    +0.000 OA
ENDBRANCH  11  18
ENDBRANCH   1  14
BRANCH   3  19
ATOM     19  C   UNL     1      37.124   2.615  15.588  0.00  0.00    +0.000 C 
ATOM     20  O   UNL     1      36.305   3.333  14.973  0.00  0.00    +0.000 OA
ATOM     21  N   UNL     1      37.928   3.224  16.590  0.00  0.00    +0.000 NA
BRANCH  21  22
ATOM     22  C   UNL     1      37.869   4.608  16.947  0.00  0.00    +0.000 C 
BRANCH  22  23
ATOM     23  C   UNL     1      39.165   4.990  17.620  0.00  0.00    +0.000 C 
BRANCH  23  24
ATOM     24  C   UNL     1      38.900   6.184  18.464  0.00  0.00    +0.000 A 
ATOM     25  C   UNL     1      39.623   6.380  19.600  0.00  0.00    +0.000 A 
ATOM     26  C   UNL     1      39.413   7.484  20.429  0.00  0.00    +0.000 A 
ATOM     27  C   UNL     1      38.443   8.399  20.078  0.00  0.00    +0.000 A 
ATOM     28  C   UNL     1      37.692   8.221  18.923  0.00  0.00    +0.000 A 
ATOM     29  C   UNL     1      37.934   7.102  18.122  0.00  0.00    +0.000 A 
BRANCH  27  30
ATOM     30  O   UNL     1      38.219   9.503  20.886  0.00  0.00    +0.000 OA
ATOM     31  C   UNL     1      39.211  10.468  21.065  0.00  0.00    +0.000 C 
ENDBRANCH  27  30
BRANCH  28  32
ATOM     32  O   UNL     1      36.726   9.150  18.592  0.00  0.00    +0.000 OA
ATOM     33  C   UNL     1      36.462   9.397  17.217  0.00  0.00    +0.000 C 
ENDBRANCH  28  32
ENDBRANCH  23  24
ENDBRANCH  22  23
ENDBRANCH  21  22
ENDBRANCH   3  19
TORSDOF 8
ENDMDL
MODEL 10
REMARK VINA RESULT:      -7.8      2.498      4.501
REMARK  Name = 
REMARK  8 active torsions:
REMARK  status: ('A' for Active; 'I' for Inactive)
REMARK    1  A    between atoms: O_2  and  C_3
REMARK    2  A    between atoms: C_6  and  C_7
REMARK    3  A    between atoms: C_9  and  C_10
REMARK    4  A    between atoms: N_12  and  C_13
REMARK    5  A    between atoms: C_13  and  C_14
REMARK    6  A    between atoms: C_14  and  C_15
REMARK    7  A    between atoms: C_18  and  O_19
REMARK    8  A    between atoms: C_21  and  O_22
REMARK                            x       y       z     vdW  Elec       q    Type
REMARK                         _______ _______ _______ _____ _____    ______ ____
ROOT
ATOM      1  C   UNL     1      37.471   3.095  16.519  0.00  0.00    +0.000 A 
ATOM      2  C   UNL     1      37.663   2.578  15.255  0.00  0.00    +0.000 A 
ATOM      3  C   UNL     1      37.114   1.347  14.958  0.00  0.00    +0.000 A 
ATOM      4  C   UNL     1      36.402   0.709  15.954  0.00  0.00    +0.000 A 
ATOM      5  C   UNL     1      35.847  -0.519  15.677  0.00  0.00    +0.000 A 
ATOM      6  C   UNL     1      35.116  -1.246  16.593  0.00  0.00    +0.000 A 
ATOM      7  C   UNL     1      34.949  -0.687  17.852  0.00  0.00    +0.000 A 
ATOM      8  C   UNL     1      35.499   0.554  18.160  0.00  0.00    +0.000 A 
ATOM      9  C   UNL     1      36.220   1.239  17.207  0.00  0.00    +0.000 A 
ATOM     10  N   UNL     1      36.771   2.445  17.464  0.00  0.00    +0.000 NA
ENDROOT
BRANCH   1  14
ATOM     11  C   UNL     1      39.186   6.879  17.502  0.00  0.00    +0.000 A 
ATOM     12  C   UNL     1      38.615   6.647  16.270  0.00  0.00    +0.000 A 
ATOM     13  C   UNL     1      38.054   5.438  15.920  0.00  0.00    +0.000 A 
ATOM     14  C   UNL     1      38.056   4.406  16.833  0.00  0.00    +0.000 A 
ATOM     15  C   UNL     1      38.630   4.653  18.061  0.00  0.00    +0.000 A 
ATOM     16  C   UNL     1      39.193   5.855  18.419  0.00  0.00    +0.000 A 
BRANCH  11  18
ATOM     17  C   UNL     1      39.564   9.130  16.778  0.00  0.00    +0.000 C 
ATOM     18  O   UNL     1      39.733   8.137  17.770  0.00  0.00    +0.000 OA
ENDBRANCH  11  18
ENDBRANCH   1  14
BRANCH   3  19
ATOM     19  C   UNL     1      37.269   0.731  13.654  0.00  0.00    +0.000 C 
ATOM     20  O   UNL     1      36.442   0.948  12.740  0.00  0.00    +0.000 OA
ATOM     21  N   UNL     1      38.362  -0.134  13.374  0.00  0.00    +0.000 NA
BRANCH  21  22
ATOM     22  C   UNL     1      38.585  -0.779  12.117  0.00  0.00    +0.000 C 
BRANCH  22  23
ATOM     23  C   UNL     1      39.302  -2.085  12.363  0.00  0.00    +0.000 C 
BRANCH  23  24
ATOM     24  C   UNL     1      38.865  -2.596  13.688  0.00  0.00    +0.000 A 
ATOM     25  C   UNL     1      39.632  -2.362  14.786  0.00  0.00    +0.000 A 
ATOM     26  C   UNL     1      39.268  -2.821  16.055  0.00  0.00    +0.000 A 
ATOM     27  C   UNL     1      38.094  -3.533  16.187  0.00  0.00    +0.000 A 
ATOM     28  C   UNL     1      37.294  -3.785  15.080  0.00  0.00    +0.000 A 
ATOM     29  C   UNL     1      37.695  -3.308  13.829  0.00  0.00    +0.000 A 
BRANCH  27  30
ATOM     30  O   UNL     1      37.713  -3.997  17.437  0.00  0.00    +0.000 OA
ATOM     31  C   UNL     1      38.442  -5.001  18.077  0.00  0.00    +0.000 C 
ENDBRANCH  27  30
BRANCH  28  32
ATOM     32  O   UNL     1      36.124  -4.500  15.238  0.00  0.00    +0.000 OA
ATOM     33  C   UNL     1      35.005  -4.159  14.430  0.00  0.00    +0.000 C 
ENDBRANCH  28  32
ENDBRANCH  23  24
ENDBRANCH  22  23
ENDBRANCH  21  22
ENDBRANCH   3  19
TORSDOF 8
ENDMDL
