MODEL 1
REMARK VINA RESULT:      -6.7      0.000      0.000
REMARK  Name = 
REMARK  4 active torsions:
REMARK  status: ('A' for Active; 'I' for Inactive)
REMARK    1  A    between atoms: C_2  and  C_3
REMARK    2  A    between atoms: C_3  and  C_4
REMARK    3  A    between atoms: C_3  and  C_15
REMARK    4  A    between atoms: N_6  and  C_7
REMARK                            x       y       z     vdW  Elec       q    Type
REMARK                         _______ _______ _______ _____ _____    ______ ____
ROOT
ATOM      1  C   UNL     1      15.939  11.606  35.919  0.00  0.00    +0.000 C 
ATOM      2  O   UNL     1      16.607  12.606  35.971  0.00  0.00    +0.000 OA
ATOM      3  N   UNL     1      16.361  10.375  36.496  0.00  0.00    +0.000 NA
ENDROOT
BRANCH   3   4
ATOM      4  C   UNL     1      17.606  10.239  37.176  0.00  0.00    +0.000 A 
ATOM      5  C   UNL     1      17.741  10.337  38.546  0.00  0.00    +0.000 A 
ATOM      6  C   UNL     1      18.951  10.203  39.199  0.00  0.00    +0.000 A 
ATOM      7  C   UNL     1      20.096   9.960  38.467  0.00  0.00    +0.000 A 
ATOM      8  C   UNL     1      21.422   9.808  39.125  0.00  0.00    +0.000 C 
ATOM      9  C   UNL     1      19.972   9.860  37.097  0.00  0.00    +0.000 A 
ATOM     10  O   UNL     1      21.140   9.614  36.378  0.00  0.00    +0.000 OA
ATOM     11  C   UNL     1      18.746   9.997  36.456  0.00  0.00    +0.000 A 
ENDBRANCH   3   4
BRANCH   1  12
ATOM     12  C   UNL     1      14.507  11.563  35.196  0.00  0.00    +0.000 C 
BRANCH  12  13
ATOM     13  C   UNL     1      15.051  11.628  33.684  0.00  0.00    +0.000 A 
ATOM     14  C   UNL     1      14.723  12.652  32.908  0.00  0.00    +0.000 A 
ATOM     15  C   UNL     1      15.200  12.691  31.614  0.00  0.00    +0.000 A 
ATOM     16  C   UNL     1      16.000  11.690  31.133  0.00  0.00    +0.000 A 
ATOM     17  C   UNL     1      16.316  10.644  31.977  0.00  0.00    +0.000 A 
ATOM     18  C   UNL     1      15.840  10.605  33.271  0.00  0.00    +0.000 A 
ENDBRANCH  12  13
BRANCH  12  20
ATOM     19  C   UNL     1      12.985  13.324  36.150  0.00  0.00    +0.000 C 
ATOM     20  C   UNL     1      14.216  13.195  35.324  0.00  0.00    +0.000 C 
ENDBRANCH  12  20
ENDBRANCH   1  12
TORSDOF 4
ENDMDL
MODEL 2
REMARK VINA RESULT:      -6.7      1.776      6.551
REMARK  Name = 
REMARK  4 active torsions:
REMARK  status: ('A' for Active; 'I' for Inactive)
REMARK    1  A    between atoms: C_2  and  C_3
REMARK    2  A    between atoms: C_3  and  C_4
REMARK    3  A    between atoms: C_3  and  C_15
REMARK    4  A    between atoms: N_6  and  C_7
REMARK                            x       y       z     vdW  Elec       q    Type
REMARK                         _______ _______ _______ _____ _____    ______ ____
ROOT
ATOM      1  C   UNL     1      18.153  11.432  37.436  0.00  0.00    +0.000 C 
ATOM      2  O   UNL     1      18.254  12.606  37.193  0.00  0.00    +0.000 OA
ATOM      3  N   UNL     1      17.362  10.554  36.643  0.00  0.00    +0.000 NA
ENDROOT
BRANCH   3   4
ATOM      4  C   UNL     1      16.634  11.003  35.503  0.00  0.00    +0.000 A 
ATOM      5  C   UNL     1      15.595  11.909  35.571  0.00  0.00    +0.000 A 
ATOM      6  C   UNL     1      14.893  12.341  34.463  0.00  0.00    +0.000 A 
ATOM      7  C   UNL     1      15.227  11.856  33.214  0.00  0.00    +0.000 A 
ATOM      8  C   UNL     1      14.500  12.291  31.991  0.00  0.00    +0.000 C 
ATOM      9  C   UNL     1      16.265  10.950  33.135  0.00  0.00    +0.000 A 
ATOM     10  O   UNL     1      16.586  10.474  31.864  0.00  0.00    +0.000 OA
ATOM     11  C   UNL     1      16.961  10.526  34.261  0.00  0.00    +0.000 A 
ENDBRANCH   3   4
BRANCH   1  12
ATOM     12  C   UNL     1      18.899  10.741  38.678  0.00  0.00    +0.000 C 
BRANCH  12  13
ATOM     13  C   UNL     1      20.371  10.717  38.030  0.00  0.00    +0.000 A 
ATOM     14  C   UNL     1      20.650   9.861  37.056  0.00  0.00    +0.000 A 
ATOM     15  C   UNL     1      21.918   9.855  36.512  0.00  0.00    +0.000 A 
ATOM     16  C   UNL     1      22.878  10.718  36.968  0.00  0.00    +0.000 A 
ATOM     17  C   UNL     1      22.543  11.590  37.983  0.00  0.00    +0.000 A 
ATOM     18  C   UNL     1      21.275  11.597  38.527  0.00  0.00    +0.000 A 
ENDBRANCH  12  13
BRANCH  12  20
ATOM     19  C   UNL     1      18.398   8.425  39.520  0.00  0.00    +0.000 C 
ATOM     20  C   UNL     1      18.517   9.183  38.244  0.00  0.00    +0.000 C 
ENDBRANCH  12  20
ENDBRANCH   1  12
TORSDOF 4
ENDMDL
MODEL 3
REMARK VINA RESULT:      -6.4      2.125      6.784
REMARK  Name = 
REMARK  4 active torsions:
REMARK  status: ('A' for Active; 'I' for Inactive)
REMARK    1  A    between atoms: C_2  and  C_3
REMARK    2  A    between atoms: C_3  and  C_4
REMARK    3  A    between atoms: C_3  and  C_15
REMARK    4  A    between atoms: N_6  and  C_7
REMARK                            x       y       z     vdW  Elec       q    Type
REMARK                         _______ _______ _______ _____ _____    ______ ____
ROOT
ATOM      1  C   UNL     1      18.255   9.753  36.755  0.00  0.00    +0.000 C 
ATOM      2  O   UNL     1      17.778   8.754  36.282  0.00  0.00    +0.000 OA
ATOM      3  N   UNL     1      17.926  11.054  36.281  0.00  0.00    +0.000 NA
ENDROOT
BRANCH   3   4
ATOM      4  C   UNL     1      17.008  11.267  35.213  0.00  0.00    +0.000 A 
ATOM      5  C   UNL     1      15.855  12.016  35.335  0.00  0.00    +0.000 A 
ATOM      6  C   UNL     1      14.969  12.218  34.295  0.00  0.00    +0.000 A 
ATOM      7  C   UNL     1      15.227  11.654  33.061  0.00  0.00    +0.000 A 
ATOM      8  C   UNL     1      14.303  11.843  31.911  0.00  0.00    +0.000 C 
ATOM      9  C   UNL     1      16.377  10.903  32.928  0.00  0.00    +0.000 A 
ATOM     10  O   UNL     1      16.617  10.343  31.675  0.00  0.00    +0.000 OA
ATOM     11  C   UNL     1      17.257  10.710  33.987  0.00  0.00    +0.000 A 
ENDBRANCH   3   4
BRANCH   1  12
ATOM     12  C   UNL     1      19.308   9.716  37.966  0.00  0.00    +0.000 C 
BRANCH  12  13
ATOM     13  C   UNL     1      18.291   9.179  39.091  0.00  0.00    +0.000 A 
ATOM     14  C   UNL     1      17.248   9.918  39.443  0.00  0.00    +0.000 A 
ATOM     15  C   UNL     1      16.386   9.441  40.409  0.00  0.00    +0.000 A 
ATOM     16  C   UNL     1      16.601   8.224  40.999  0.00  0.00    +0.000 A 
ATOM     17  C   UNL     1      17.701   7.491  40.601  0.00  0.00    +0.000 A 
ATOM     18  C   UNL     1      18.562   7.967  39.634  0.00  0.00    +0.000 A 
ENDBRANCH  12  13
BRANCH  12  20
ATOM     19  C   UNL     1      20.460  11.735  38.927  0.00  0.00    +0.000 C 
ATOM     20  C   UNL     1      19.144  11.321  38.366  0.00  0.00    +0.000 C 
ENDBRANCH  12  20
ENDBRANCH   1  12
TORSDOF 4
ENDMDL
MODEL 4
REMARK VINA RESULT:      -6.3     28.677     31.619
REMARK  Name = 
REMARK  4 active torsions:
REMARK  status: ('A' for Active; 'I' for Inactive)
REMARK    1  A    between atoms: C_2  and  C_3
REMARK    2  A    between atoms: C_3  and  C_4
REMARK    3  A    between atoms: C_3  and  C_15
REMARK    4  A    between atoms: N_6  and  C_7
REMARK                            x       y       z     vdW  Elec       q    Type
REMARK                         _______ _______ _______ _____ _____    ______ ____
ROOT
ATOM      1  C   UNL     1      31.362  22.306   8.895  0.00  0.00    +0.000 C 
ATOM      2  O   UNL     1      30.816  23.324   8.557  0.00  0.00    +0.000 OA
ATOM      3  N   UNL     1      31.075  21.659  10.130  0.00  0.00    +0.000 NA
ENDROOT
BRANCH   3   4
ATOM      4  C   UNL     1      30.119  22.171  11.054  0.00  0.00    +0.000 A 
ATOM      5  C   UNL     1      30.460  22.877  12.191  0.00  0.00    +0.000 A 
ATOM      6  C   UNL     1      29.528  23.371  13.083  0.00  0.00    +0.000 A 
ATOM      7  C   UNL     1      28.184  23.162  12.849  0.00  0.00    +0.000 A 
ATOM      8  C   UNL     1      27.143  23.674  13.781  0.00  0.00    +0.000 C 
ATOM      9  C   UNL     1      27.832  22.458  11.716  0.00  0.00    +0.000 A 
ATOM     10  O   UNL     1      26.470  22.258  11.499  0.00  0.00    +0.000 OA
ATOM     11  C   UNL     1      28.784  21.967  10.828  0.00  0.00    +0.000 A 
ENDBRANCH   3   4
BRANCH   1  12
ATOM     12  C   UNL     1      32.468  21.578   7.987  0.00  0.00    +0.000 C 
BRANCH  12  13
ATOM     13  C   UNL     1      31.455  20.986   6.886  0.00  0.00    +0.000 A 
ATOM     14  C   UNL     1      31.387  21.544   5.685  0.00  0.00    +0.000 A 
ATOM     15  C   UNL     1      30.513  21.023   4.753  0.00  0.00    +0.000 A 
ATOM     16  C   UNL     1      29.724  19.946   5.060  0.00  0.00    +0.000 A 
ATOM     17  C   UNL     1      29.828  19.400   6.323  0.00  0.00    +0.000 A 
ATOM     18  C   UNL     1      30.703  19.920   7.255  0.00  0.00    +0.000 A 
ENDBRANCH  12  13
BRANCH  12  20
ATOM     19  C   UNL     1      33.955  19.759   8.883  0.00  0.00    +0.000 C 
ATOM     20  C   UNL     1      32.530  20.189   8.898  0.00  0.00    +0.000 C 
ENDBRANCH  12  20
ENDBRANCH   1  12
TORSDOF 4
ENDMDL
MODEL 5
REMARK VINA RESULT:      -6.1      3.651      6.243
REMARK  Name = 
REMARK  4 active torsions:
REMARK  status: ('A' for Active; 'I' for Inactive)
REMARK    1  A    between atoms: C_2  and  C_3
REMARK    2  A    between atoms: C_3  and  C_4
REMARK    3  A    between atoms: C_3  and  C_15
REMARK    4  A    between atoms: N_6  and  C_7
REMARK                            x       y       z     vdW  Elec       q    Type
REMARK                         _______ _______ _______ _____ _____    ______ ____
ROOT
ATOM      1  C   UNL     1      20.023  10.592  37.509  0.00  0.00    +0.000 C 
ATOM      2  O   UNL     1      20.438  11.311  38.381  0.00  0.00    +0.000 OA
ATOM      3  N   UNL     1      20.884   9.798  36.701  0.00  0.00    +0.000 NA
ENDROOT
BRANCH   3   4
ATOM      4  C   UNL     1      22.299   9.797  36.867  0.00  0.00    +0.000 A 
ATOM      5  C   UNL     1      23.173  10.375  35.968  0.00  0.00    +0.000 A 
ATOM      6  C   UNL     1      24.544  10.371  36.135  0.00  0.00    +0.000 A 
ATOM      7  C   UNL     1      25.093   9.764  37.247  0.00  0.00    +0.000 A 
ATOM      8  C   UNL     1      26.563   9.734  37.471  0.00  0.00    +0.000 C 
ATOM      9  C   UNL     1      24.228   9.184  38.152  0.00  0.00    +0.000 A 
ATOM     10  O   UNL     1      24.803   8.577  39.268  0.00  0.00    +0.000 OA
ATOM     11  C   UNL     1      22.850   9.197  37.968  0.00  0.00    +0.000 A 
ENDBRANCH   3   4
BRANCH   1  12
ATOM     12  C   UNL     1      18.459  10.459  37.172  0.00  0.00    +0.000 C 
BRANCH  12  13
ATOM     13  C   UNL     1      18.043   9.652  38.500  0.00  0.00    +0.000 A 
ATOM     14  C   UNL     1      17.030  10.079  39.241  0.00  0.00    +0.000 A 
ATOM     15  C   UNL     1      16.688   9.373  40.376  0.00  0.00    +0.000 A 
ATOM     16  C   UNL     1      17.381   8.248  40.736  0.00  0.00    +0.000 A 
ATOM     17  C   UNL     1      18.428   7.842  39.934  0.00  0.00    +0.000 A 
ATOM     18  C   UNL     1      18.770   8.547  38.798  0.00  0.00    +0.000 A 
ENDBRANCH  12  13
BRANCH  12  20
ATOM     19  C   UNL     1      17.474   9.149  35.265  0.00  0.00    +0.000 C 
ATOM     20  C   UNL     1      18.619   9.109  36.216  0.00  0.00    +0.000 C 
ENDBRANCH  12  20
ENDBRANCH   1  12
TORSDOF 4
ENDMDL
MODEL 6
REMARK VINA RESULT:      -6.0     17.912     19.606
REMARK  Name = 
REMARK  4 active torsions:
REMARK  status: ('A' for Active; 'I' for Inactive)
REMARK    1  A    between atoms: C_2  and  C_3
REMARK    2  A    between atoms: C_3  and  C_4
REMARK    3  A    between atoms: C_3  and  C_15
REMARK    4  A    between atoms: N_6  and  C_7
REMARK                            x       y       z     vdW  Elec       q    Type
REMARK                         _______ _______ _______ _____ _____    ______ ____
ROOT
ATOM      1  C   UNL     1      26.886  24.243  25.435  0.00  0.00    +0.000 C 
ATOM      2  O   UNL     1      27.260  25.385  25.504  0.00  0.00    +0.000 OA
ATOM      3  N   UNL     1      26.038  23.657  26.416  0.00  0.00    +0.000 NA
ENDROOT
BRANCH   3   4
ATOM      4  C   UNL     1      25.570  24.382  27.550  0.00  0.00    +0.000 A 
ATOM      5  C   UNL     1      24.696  25.447  27.468  0.00  0.00    +0.000 A 
ATOM      6  C   UNL     1      24.246  26.145  28.571  0.00  0.00    +0.000 A 
ATOM      7  C   UNL     1      24.678  25.780  29.831  0.00  0.00    +0.000 A 
ATOM      8  C   UNL     1      24.222  26.501  31.049  0.00  0.00    +0.000 C 
ATOM      9  C   UNL     1      25.552  24.717  29.924  0.00  0.00    +0.000 A 
ATOM     10  O   UNL     1      25.976  24.365  31.205  0.00  0.00    +0.000 OA
ATOM     11  C   UNL     1      25.995  24.025  28.802  0.00  0.00    +0.000 A 
ENDBRANCH   3   4
BRANCH   1  12
ATOM     12  C   UNL     1      27.308  23.269  24.231  0.00  0.00    +0.000 C 
BRANCH  12  13
ATOM     13  C   UNL     1      28.876  23.197  24.580  0.00  0.00    +0.000 A 
ATOM     14  C   UNL     1      29.757  23.788  23.784  0.00  0.00    +0.000 A 
ATOM     15  C   UNL     1      31.098  23.715  24.100  0.00  0.00    +0.000 A 
ATOM     16  C   UNL     1      31.519  23.044  25.217  0.00  0.00    +0.000 A 
ATOM     17  C   UNL     1      30.566  22.444  26.015  0.00  0.00    +0.000 A 
ATOM     18  C   UNL     1      29.224  22.517  25.700  0.00  0.00    +0.000 A 
ENDBRANCH  12  13
BRANCH  12  20
ATOM     19  C   UNL     1      26.780  23.970  21.874  0.00  0.00    +0.000 C 
ATOM     20  C   UNL     1      27.459  24.476  23.098  0.00  0.00    +0.000 C 
ENDBRANCH  12  20
ENDBRANCH   1  12
TORSDOF 4
ENDMDL
MODEL 7
REMARK VINA RESULT:      -5.9     18.899     21.001
REMARK  Name = 
REMARK  4 active torsions:
REMARK  status: ('A' for Active; 'I' for Inactive)
REMARK    1  A    between atoms: C_2  and  C_3
REMARK    2  A    between atoms: C_3  and  C_4
REMARK    3  A    between atoms: C_3  and  C_15
REMARK    4  A    between atoms: N_6  and  C_7
REMARK                            x       y       z     vdW  Elec       q    Type
REMARK                         _______ _______ _______ _____ _____    ______ ____
ROOT
ATOM      1  C   UNL     1      27.532  23.658  23.565  0.00  0.00    +0.000 C 
ATOM      2  O   UNL     1      26.565  22.975  23.347  0.00  0.00    +0.000 OA
ATOM      3  N   UNL     1      27.509  24.739  24.491  0.00  0.00    +0.000 NA
ENDROOT
BRANCH   3   4
ATOM      4  C   UNL     1      26.339  25.090  25.225  0.00  0.00    +0.000 A 
ATOM      5  C   UNL     1      26.017  24.545  26.452  0.00  0.00    +0.000 A 
ATOM      6  C   UNL     1      24.882  24.890  27.159  0.00  0.00    +0.000 A 
ATOM      7  C   UNL     1      24.010  25.823  26.634  0.00  0.00    +0.000 A 
ATOM      8  C   UNL     1      22.774  26.226  27.357  0.00  0.00    +0.000 C 
ATOM      9  C   UNL     1      24.323  26.373  25.408  0.00  0.00    +0.000 A 
ATOM     10  O   UNL     1      23.429  27.313  24.897  0.00  0.00    +0.000 OA
ATOM     11  C   UNL     1      25.470  26.014  24.710  0.00  0.00    +0.000 A 
ENDBRANCH   3   4
BRANCH   1  12
ATOM     12  C   UNL     1      28.941  23.417  22.835  0.00  0.00    +0.000 C 
BRANCH  12  13
ATOM     13  C   UNL     1      29.827  23.270  24.169  0.00  0.00    +0.000 A 
ATOM     14  C   UNL     1      29.426  22.464  25.142  0.00  0.00    +0.000 A 
ATOM     15  C   UNL     1      30.200  22.350  26.278  0.00  0.00    +0.000 A 
ATOM     16  C   UNL     1      31.366  23.058  26.405  0.00  0.00    +0.000 A 
ATOM     17  C   UNL     1      31.742  23.885  25.366  0.00  0.00    +0.000 A 
ATOM     18  C   UNL     1      30.969  23.998  24.229  0.00  0.00    +0.000 A 
ENDBRANCH  12  13
BRANCH  12  20
ATOM     19  C   UNL     1      29.237  25.245  21.133  0.00  0.00    +0.000 C 
ATOM     20  C   UNL     1      29.277  25.028  22.605  0.00  0.00    +0.000 C 
ENDBRANCH  12  20
ENDBRANCH   1  12
TORSDOF 4
ENDMDL
MODEL 8
REMARK VINA RESULT:      -5.9      3.101      7.309
REMARK  Name = 
REMARK  4 active torsions:
REMARK  status: ('A' for Active; 'I' for Inactive)
REMARK    1  A    between atoms: C_2  and  C_3
REMARK    2  A    between atoms: C_3  and  C_4
REMARK    3  A    between atoms: C_3  and  C_15
REMARK    4  A    between atoms: N_6  and  C_7
REMARK                            x       y       z     vdW  Elec       q    Type
REMARK                         _______ _______ _______ _____ _____    ______ ____
ROOT
ATOM      1  C   UNL     1      17.158   9.798  39.784  0.00  0.00    +0.000 C 
ATOM      2  O   UNL     1      15.968   9.858  39.616  0.00  0.00    +0.000 OA
ATOM      3  N   UNL     1      18.086   9.899  38.710  0.00  0.00    +0.000 NA
ENDROOT
BRANCH   3   4
ATOM      4  C   UNL     1      17.672  10.077  37.358  0.00  0.00    +0.000 A 
ATOM      5  C   UNL     1      18.006   9.210  36.337  0.00  0.00    +0.000 A 
ATOM      6  C   UNL     1      17.600   9.389  35.029  0.00  0.00    +0.000 A 
ATOM      7  C   UNL     1      16.823  10.481  34.700  0.00  0.00    +0.000 A 
ATOM      8  C   UNL     1      16.362  10.716  33.305  0.00  0.00    +0.000 C 
ATOM      9  C   UNL     1      16.483  11.354  35.713  0.00  0.00    +0.000 A 
ATOM     10  O   UNL     1      15.697  12.450  35.359  0.00  0.00    +0.000 OA
ATOM     11  C   UNL     1      16.900  11.159  37.025  0.00  0.00    +0.000 A 
ENDBRANCH   3   4
BRANCH   1  12
ATOM     12  C   UNL     1      17.815   9.600  41.235  0.00  0.00    +0.000 C 
BRANCH  12  13
ATOM     13  C   UNL     1      18.119   8.027  41.097  0.00  0.00    +0.000 A 
ATOM     14  C   UNL     1      19.345   7.615  40.807  0.00  0.00    +0.000 A 
ATOM     15  C   UNL     1      19.587   6.261  40.693  0.00  0.00    +0.000 A 
ATOM     16  C   UNL     1      18.578   5.352  40.874  0.00  0.00    +0.000 A 
ATOM     17  C   UNL     1      17.318   5.828  41.174  0.00  0.00    +0.000 A 
ATOM     18  C   UNL     1      17.075   7.182  41.289  0.00  0.00    +0.000 A 
ENDBRANCH  12  13
BRANCH  12  20
ATOM     19  C   UNL     1      16.539  10.100  43.343  0.00  0.00    +0.000 C 
ATOM     20  C   UNL     1      16.372   9.407  42.036  0.00  0.00    +0.000 C 
ENDBRANCH  12  20
ENDBRANCH   1  12
TORSDOF 4
ENDMDL
MODEL 9
REMARK VINA RESULT:      -5.9     19.567     22.264
REMARK  Name = 
REMARK  4 active torsions:
REMARK  status: ('A' for Active; 'I' for Inactive)
REMARK    1  A    between atoms: C_2  and  C_3
REMARK    2  A    between atoms: C_3  and  C_4
REMARK    3  A    between atoms: C_3  and  C_15
REMARK    4  A    between atoms: N_6  and  C_7
REMARK                            x       y       z     vdW  Elec       q    Type
REMARK                         _______ _______ _______ _____ _____    ______ ____
ROOT
ATOM      1  C   UNL     1      33.093  -2.330  34.915  0.00  0.00    +0.000 C 
ATOM      2  O   UNL     1      31.909  -2.403  34.711  0.00  0.00    +0.000 OA
ATOM      3  N   UNL     1      34.011  -3.302  34.427  0.00  0.00    +0.000 NA
ENDROOT
BRANCH   3   4
ATOM      4  C   UNL     1      33.594  -4.430  33.662  0.00  0.00    +0.000 A 
ATOM      5  C   UNL     1      33.210  -5.631  34.223  0.00  0.00    +0.000 A 
ATOM      6  C   UNL     1      32.806  -6.720  33.476  0.00  0.00    +0.000 A 
ATOM      7  C   UNL     1      32.777  -6.629  32.098  0.00  0.00    +0.000 A 
ATOM      8  C   UNL     1      32.350  -7.775  31.251  0.00  0.00    +0.000 C 
ATOM      9  C   UNL     1      33.159  -5.432  31.528  0.00  0.00    +0.000 A 
ATOM     10  O   UNL     1      33.122  -5.361  30.136  0.00  0.00    +0.000 OA
ATOM     11  C   UNL     1      33.563  -4.345  32.296  0.00  0.00    +0.000 A 
ENDBRANCH   3   4
BRANCH   1  12
ATOM     12  C   UNL     1      33.752  -1.132  35.755  0.00  0.00    +0.000 C 
BRANCH  12  13
ATOM     13  C   UNL     1      33.837  -0.073  34.548  0.00  0.00    +0.000 A 
ATOM     14  C   UNL     1      34.273  -0.462  33.359  0.00  0.00    +0.000 A 
ATOM     15  C   UNL     1      34.340   0.461  32.335  0.00  0.00    +0.000 A 
ATOM     16  C   UNL     1      33.962   1.761  32.540  0.00  0.00    +0.000 A 
ATOM     17  C   UNL     1      33.514   2.120  33.795  0.00  0.00    +0.000 A 
ATOM     18  C   UNL     1      33.447   1.198  34.819  0.00  0.00    +0.000 A 
ENDBRANCH  12  13
BRANCH  12  20
ATOM     19  C   UNL     1      36.032  -1.200  36.814  0.00  0.00    +0.000 C 
ATOM     20  C   UNL     1      35.316  -1.671  35.596  0.00  0.00    +0.000 C 
ENDBRANCH  12  20
ENDBRANCH   1  12
TORSDOF 4
ENDMDL
MODEL 10
REMARK VINA RESULT:      -5.8     19.955     22.535
REMARK  Name = 
REMARK  4 active torsions:
REMARK  status: ('A' for Active; 'I' for Inactive)
REMARK    1  A    between atoms: C_2  and  C_3
REMARK    2  A    between atoms: C_3  and  C_4
REMARK    3  A    between atoms: C_3  and  C_15
REMARK    4  A    between atoms: N_6  and  C_7
REMARK                            x       y       z     vdW  Elec       q    Type
REMARK                         _______ _______ _______ _____ _____    ______ ____
ROOT
ATOM      1  C   UNL     1      33.621  -4.900  34.135  0.00  0.00    +0.000 C 
ATOM      2  O   UNL     1      34.705  -4.772  34.641  0.00  0.00    +0.000 OA
ATOM      3  N   UNL     1      32.713  -3.813  33.990  0.00  0.00    +0.000 NA
ENDROOT
BRANCH   3   4
ATOM      4  C   UNL     1      33.025  -2.496  34.435  0.00  0.00    +0.000 A 
ATOM      5  C   UNL     1      33.664  -1.557  33.651  0.00  0.00    +0.000 A 
ATOM      6  C   UNL     1      33.962  -0.281  34.088  0.00  0.00    +0.000 A 
ATOM      7  C   UNL     1      33.615   0.098  35.370  0.00  0.00    +0.000 A 
ATOM      8  C   UNL     1      33.915   1.461  35.886  0.00  0.00    +0.000 C 
ATOM      9  C   UNL     1      32.976  -0.833  36.162  0.00  0.00    +0.000 A 
ATOM     10  O   UNL     1      32.634  -0.429  37.452  0.00  0.00    +0.000 OA
ATOM     11  C   UNL     1      32.683  -2.113  35.705  0.00  0.00    +0.000 A 
ENDBRANCH   3   4
BRANCH   1  12
ATOM     12  C   UNL     1      33.092  -6.308  33.573  0.00  0.00    +0.000 C 
BRANCH  12  13
ATOM     13  C   UNL     1      33.404  -6.026  32.020  0.00  0.00    +0.000 A 
ATOM     14  C   UNL     1      32.406  -5.798  31.178  0.00  0.00    +0.000 A 
ATOM     15  C   UNL     1      32.693  -5.558  29.850  0.00  0.00    +0.000 A 
ATOM     16  C   UNL     1      33.988  -5.555  29.403  0.00  0.00    +0.000 A 
ATOM     17  C   UNL     1      34.993  -5.798  30.316  0.00  0.00    +0.000 A 
ATOM     18  C   UNL     1      34.707  -6.037  31.645  0.00  0.00    +0.000 A 
ENDBRANCH  12  13
BRANCH  12  20
ATOM     19  C   UNL     1      30.754  -6.829  34.338  0.00  0.00    +0.000 C 
ATOM     20  C   UNL     1      31.495  -5.854  33.492  0.00  0.00    +0.000 C 
ENDBRANCH  12  20
ENDBRANCH   1  12
TORSDOF 4
ENDMDL
