MODEL 1
REMARK VINA RESULT:      -6.5      0.000      0.000
REMARK  Name = 
REMARK  3 active torsions:
REMARK  status: ('A' for Active; 'I' for Inactive)
REMARK    1  A    between atoms: C_2  and  C_13
REMARK    2  A    between atoms: N_3  and  C_4
REMARK    3  A    between atoms: C_8  and  N_9
REMARK                            x       y       z     vdW  Elec       q    Type
REMARK                         _______ _______ _______ _____ _____    ______ ____
ROOT
ATOM      1  O   UNL     1      29.925  24.231  28.197  0.00  0.00    +0.000 OA
ATOM      2  C   UNL     1      30.071  22.996  28.339  0.00  0.00    +0.000 C 
ATOM      3  N   UNL     1      29.829  22.142  27.259  0.00  0.00    +0.000 NA
ENDROOT
BRANCH   2   4
ATOM      4  C   UNL     1      30.499  22.535  29.676  0.00  0.00    +0.000 A 
ATOM      5  S   UNL     1      29.636  22.639  31.143  0.00  0.00    +0.000 S 
ATOM      6  C   UNL     1      30.778  21.911  32.179  0.00  0.00    +0.000 A 
ATOM      7  C   UNL     1      31.808  21.606  31.340  0.00  0.00    +0.000 A 
ATOM      8  C   UNL     1      31.659  21.933  30.036  0.00  0.00    +0.000 A 
ATOM      9  C   UNL     1      32.839  21.569  29.153  0.00  0.00    +0.000 C 
ATOM     10  C   UNL     1      34.088  22.176  29.763  0.00  0.00    +0.000 C 
ATOM     11  C   UNL     1      34.222  21.835  31.228  0.00  0.00    +0.000 C 
ATOM     12  C   UNL     1      33.109  20.936  31.717  0.00  0.00    +0.000 C 
ENDBRANCH   2   4
BRANCH   3  13
ATOM     13  C   UNL     1      29.417  22.566  25.966  0.00  0.00    +0.000 A 
ATOM     14  C   UNL     1      30.294  22.944  24.970  0.00  0.00    +0.000 A 
ATOM     15  C   UNL     1      29.895  23.355  23.717  0.00  0.00    +0.000 A 
ATOM     16  C   UNL     1      28.544  23.396  23.423  0.00  0.00    +0.000 A 
ATOM     17  C   UNL     1      27.637  23.024  24.394  0.00  0.00    +0.000 A 
ATOM     18  C   UNL     1      28.076  22.615  25.646  0.00  0.00    +0.000 A 
BRANCH  17  19
ATOM     19  N   UNL     1      26.261  23.073  24.073  0.00  0.00    +0.000 N 
ATOM     20  O   UNL     1      25.441  23.174  25.008  0.00  0.00    +0.000 OA
ATOM     21  O   UNL     1      25.821  23.014  22.782  0.00  0.00    +0.000 OA
ENDBRANCH  17  19
ENDBRANCH   3  13
TORSDOF 3
ENDMDL
MODEL 2
REMARK VINA RESULT:      -6.5     18.069     20.044
REMARK  Name = 
REMARK  3 active torsions:
REMARK  status: ('A' for Active; 'I' for Inactive)
REMARK    1  A    between atoms: C_2  and  C_13
REMARK    2  A    between atoms: N_3  and  C_4
REMARK    3  A    between atoms: C_8  and  N_9
REMARK                            x       y       z     vdW  Elec       q    Type
REMARK                         _______ _______ _______ _____ _____    ______ ____
ROOT
ATOM      1  O   UNL     1      17.859   9.182  36.571  0.00  0.00    +0.000 OA
ATOM      2  C   UNL     1      17.742  10.401  36.826  0.00  0.00    +0.000 C 
ATOM      3  N   UNL     1      18.733  11.051  37.567  0.00  0.00    +0.000 NA
ENDROOT
BRANCH   2   4
ATOM      4  C   UNL     1      16.530  11.068  36.304  0.00  0.00    +0.000 A 
ATOM      5  S   UNL     1      15.131  11.515  37.169  0.00  0.00    +0.000 S 
ATOM      6  C   UNL     1      14.235  12.205  35.892  0.00  0.00    +0.000 A 
ATOM      7  C   UNL     1      15.064  12.064  34.821  0.00  0.00    +0.000 A 
ATOM      8  C   UNL     1      16.260  11.472  35.039  0.00  0.00    +0.000 A 
ATOM      9  C   UNL     1      17.138  11.343  33.808  0.00  0.00    +0.000 C 
ATOM     10  C   UNL     1      16.335  10.645  32.727  0.00  0.00    +0.000 C 
ATOM     11  C   UNL     1      14.987  11.293  32.520  0.00  0.00    +0.000 C 
ATOM     12  C   UNL     1      14.786  12.505  33.402  0.00  0.00    +0.000 C 
ENDBRANCH   2   4
BRANCH   3  13
ATOM     13  C   UNL     1      19.905  10.428  38.076  0.00  0.00    +0.000 A 
ATOM     14  C   UNL     1      20.005   9.921  39.356  0.00  0.00    +0.000 A 
ATOM     15  C   UNL     1      21.141   9.317  39.850  0.00  0.00    +0.000 A 
ATOM     16  C   UNL     1      22.251   9.204  39.033  0.00  0.00    +0.000 A 
ATOM     17  C   UNL     1      22.187   9.699  37.747  0.00  0.00    +0.000 A 
ATOM     18  C   UNL     1      21.025  10.301  37.282  0.00  0.00    +0.000 A 
BRANCH  17  19
ATOM     19  N   UNL     1      23.332   9.572  36.927  0.00  0.00    +0.000 N 
ATOM     20  O   UNL     1      24.245   8.810  37.306  0.00  0.00    +0.000 OA
ATOM     21  O   UNL     1      23.456  10.254  35.752  0.00  0.00    +0.000 OA
ENDBRANCH  17  19
ENDBRANCH   3  13
TORSDOF 3
ENDMDL
MODEL 3
REMARK VINA RESULT:      -6.5     15.290     18.638
REMARK  Name = 
REMARK  3 active torsions:
REMARK  status: ('A' for Active; 'I' for Inactive)
REMARK    1  A    between atoms: C_2  and  C_13
REMARK    2  A    between atoms: N_3  and  C_4
REMARK    3  A    between atoms: C_8  and  N_9
REMARK                            x       y       z     vdW  Elec       q    Type
REMARK                         _______ _______ _______ _____ _____    ______ ____
ROOT
ATOM      1  O   UNL     1      31.654  22.801   9.791  0.00  0.00    +0.000 OA
ATOM      2  C   UNL     1      31.565  21.581  10.051  0.00  0.00    +0.000 C 
ATOM      3  N   UNL     1      30.635  21.141  10.996  0.00  0.00    +0.000 NA
ENDROOT
BRANCH   2   4
ATOM      4  C   UNL     1      32.478  20.683   9.312  0.00  0.00    +0.000 A 
ATOM      5  S   UNL     1      34.051  20.199   9.756  0.00  0.00    +0.000 S 
ATOM      6  C   UNL     1      34.411  19.200   8.422  0.00  0.00    +0.000 A 
ATOM      7  C   UNL     1      33.282  19.276   7.664  0.00  0.00    +0.000 A 
ATOM      8  C   UNL     1      32.276  20.050   8.131  0.00  0.00    +0.000 A 
ATOM      9  C   UNL     1      31.046  20.094   7.243  0.00  0.00    +0.000 C 
ATOM     10  C   UNL     1      31.485  20.496   5.849  0.00  0.00    +0.000 C 
ATOM     11  C   UNL     1      32.634  19.650   5.354  0.00  0.00    +0.000 C 
ATOM     12  C   UNL     1      33.033  18.580   6.345  0.00  0.00    +0.000 C 
ENDBRANCH   2   4
BRANCH   3  13
ATOM     13  C   UNL     1      29.748  21.987  11.717  0.00  0.00    +0.000 A 
ATOM     14  C   UNL     1      30.086  22.620  12.896  0.00  0.00    +0.000 A 
ATOM     15  C   UNL     1      29.226  23.440  13.595  0.00  0.00    +0.000 A 
ATOM     16  C   UNL     1      27.951  23.653  13.102  0.00  0.00    +0.000 A 
ATOM     17  C   UNL     1      27.579  23.037  11.924  0.00  0.00    +0.000 A 
ATOM     18  C   UNL     1      28.472  22.217  11.247  0.00  0.00    +0.000 A 
BRANCH  17  19
ATOM     19  N   UNL     1      26.272  23.268  11.438  0.00  0.00    +0.000 N 
ATOM     20  O   UNL     1      25.786  22.439  10.641  0.00  0.00    +0.000 OA
ATOM     21  O   UNL     1      25.545  24.360  11.816  0.00  0.00    +0.000 OA
ENDBRANCH  17  19
ENDBRANCH   3  13
TORSDOF 3
ENDMDL
MODEL 4
REMARK VINA RESULT:      -6.3      1.499      2.047
REMARK  Name = 
REMARK  3 active torsions:
REMARK  status: ('A' for Active; 'I' for Inactive)
REMARK    1  A    between atoms: C_2  and  C_13
REMARK    2  A    between atoms: N_3  and  C_4
REMARK    3  A    between atoms: C_8  and  N_9
REMARK                            x       y       z     vdW  Elec       q    Type
REMARK                         _______ _______ _______ _____ _____    ______ ____
ROOT
ATOM      1  O   UNL     1      29.361  24.301  28.443  0.00  0.00    +0.000 OA
ATOM      2  C   UNL     1      29.435  23.061  28.586  0.00  0.00    +0.000 C 
ATOM      3  N   UNL     1      28.841  22.218  27.644  0.00  0.00    +0.000 NA
ENDROOT
BRANCH   2   4
ATOM      4  C   UNL     1      30.169  22.580  29.777  0.00  0.00    +0.000 A 
ATOM      5  S   UNL     1      29.614  22.512  31.387  0.00  0.00    +0.000 S 
ATOM      6  C   UNL     1      31.008  21.861  32.124  0.00  0.00    +0.000 A 
ATOM      7  C   UNL     1      31.871  21.716  31.080  0.00  0.00    +0.000 A 
ATOM      8  C   UNL     1      31.430  22.092  29.858  0.00  0.00    +0.000 A 
ATOM      9  C   UNL     1      32.437  21.907  28.737  0.00  0.00    +0.000 C 
ATOM     10  C   UNL     1      33.718  22.615  29.133  0.00  0.00    +0.000 C 
ATOM     11  C   UNL     1      34.179  22.216  30.514  0.00  0.00    +0.000 C 
ATOM     12  C   UNL     1      33.281  21.175  31.145  0.00  0.00    +0.000 C 
ENDBRANCH   2   4
BRANCH   3  13
ATOM     13  C   UNL     1      28.132  22.659  26.494  0.00  0.00    +0.000 A 
ATOM     14  C   UNL     1      26.777  22.924  26.486  0.00  0.00    +0.000 A 
ATOM     15  C   UNL     1      26.090  23.351  25.371  0.00  0.00    +0.000 A 
ATOM     16  C   UNL     1      26.779  23.533  24.185  0.00  0.00    +0.000 A 
ATOM     17  C   UNL     1      28.135  23.279  24.156  0.00  0.00    +0.000 A 
ATOM     18  C   UNL     1      28.795  22.849  25.299  0.00  0.00    +0.000 A 
BRANCH  17  19
ATOM     19  N   UNL     1      28.821  23.471  22.934  0.00  0.00    +0.000 N 
ATOM     20  O   UNL     1      28.207  23.242  21.872  0.00  0.00    +0.000 OA
ATOM     21  O   UNL     1      30.118  23.893  22.895  0.00  0.00    +0.000 OA
ENDBRANCH  17  19
ENDBRANCH   3  13
TORSDOF 3
ENDMDL
MODEL 5
REMARK VINA RESULT:      -6.1     21.233     23.306
REMARK  Name = 
REMARK  3 active torsions:
REMARK  status: ('A' for Active; 'I' for Inactive)
REMARK    1  A    between atoms: C_2  and  C_13
REMARK    2  A    between atoms: N_3  and  C_4
REMARK    3  A    between atoms: C_8  and  N_9
REMARK                            x       y       z     vdW  Elec       q    Type
REMARK                         _______ _______ _______ _____ _____    ______ ____
ROOT
ATOM      1  O   UNL     1      17.927   9.990  39.356  0.00  0.00    +0.000 OA
ATOM      2  C   UNL     1      16.694  10.082  39.170  0.00  0.00    +0.000 C 
ATOM      3  N   UNL     1      15.809   9.610  40.143  0.00  0.00    +0.000 NA
ENDROOT
BRANCH   2   4
ATOM      4  C   UNL     1      16.267  10.703  37.897  0.00  0.00    +0.000 A 
ATOM      5  S   UNL     1      14.845  11.593  37.596  0.00  0.00    +0.000 S 
ATOM      6  C   UNL     1      15.095  11.947  35.946  0.00  0.00    +0.000 A 
ATOM      7  C   UNL     1      16.292  11.354  35.680  0.00  0.00    +0.000 A 
ATOM      8  C   UNL     1      16.900  10.706  36.699  0.00  0.00    +0.000 A 
ATOM      9  C   UNL     1      18.228  10.066  36.340  0.00  0.00    +0.000 C 
ATOM     10  C   UNL     1      18.010   9.171  35.135  0.00  0.00    +0.000 C 
ATOM     11  C   UNL     1      17.296   9.895  34.019  0.00  0.00    +0.000 C 
ATOM     12  C   UNL     1      17.017  11.343  34.353  0.00  0.00    +0.000 C 
ENDBRANCH   2   4
BRANCH   3  13
ATOM     13  C   UNL     1      16.199   9.011  41.371  0.00  0.00    +0.000 A 
ATOM     14  C   UNL     1      16.318   9.708  42.557  0.00  0.00    +0.000 A 
ATOM     15  C   UNL     1      16.697   9.127  43.748  0.00  0.00    +0.000 A 
ATOM     16  C   UNL     1      16.975   7.772  43.776  0.00  0.00    +0.000 A 
ATOM     17  C   UNL     1      16.865   7.044  42.610  0.00  0.00    +0.000 A 
ATOM     18  C   UNL     1      16.481   7.662  41.428  0.00  0.00    +0.000 A 
BRANCH  17  19
ATOM     19  N   UNL     1      17.153   5.660  42.661  0.00  0.00    +0.000 N 
ATOM     20  O   UNL     1      17.787   5.156  41.711  0.00  0.00    +0.000 OA
ATOM     21  O   UNL     1      16.758   4.880  43.709  0.00  0.00    +0.000 OA
ENDBRANCH  17  19
ENDBRANCH   3  13
TORSDOF 3
ENDMDL
MODEL 6
REMARK VINA RESULT:      -6.1     22.641     24.806
REMARK  Name = 
REMARK  3 active torsions:
REMARK  status: ('A' for Active; 'I' for Inactive)
REMARK    1  A    between atoms: C_2  and  C_13
REMARK    2  A    between atoms: N_3  and  C_4
REMARK    3  A    between atoms: C_8  and  N_9
REMARK                            x       y       z     vdW  Elec       q    Type
REMARK                         _______ _______ _______ _____ _____    ______ ____
ROOT
ATOM      1  O   UNL     1      32.839   0.083  36.621  0.00  0.00    +0.000 OA
ATOM      2  C   UNL     1      33.781   0.653  36.028  0.00  0.00    +0.000 C 
ATOM      3  N   UNL     1      34.555  -0.062  35.110  0.00  0.00    +0.000 NA
ENDROOT
BRANCH   2   4
ATOM      4  C   UNL     1      34.000   2.078  36.359  0.00  0.00    +0.000 A 
ATOM      5  S   UNL     1      34.246   2.765  37.899  0.00  0.00    +0.000 S 
ATOM      6  C   UNL     1      34.412   4.399  37.440  0.00  0.00    +0.000 A 
ATOM      7  C   UNL     1      34.269   4.357  36.086  0.00  0.00    +0.000 A 
ATOM      8  C   UNL     1      34.054   3.145  35.526  0.00  0.00    +0.000 A 
ATOM      9  C   UNL     1      33.903   3.163  34.016  0.00  0.00    +0.000 C 
ATOM     10  C   UNL     1      32.819   4.163  33.663  0.00  0.00    +0.000 C 
ATOM     11  C   UNL     1      33.050   5.501  34.325  0.00  0.00    +0.000 C 
ATOM     12  C   UNL     1      34.325   5.532  35.136  0.00  0.00    +0.000 C 
ENDBRANCH   2   4
BRANCH   3  13
ATOM     13  C   UNL     1      34.361  -1.431  34.778  0.00  0.00    +0.000 A 
ATOM     14  C   UNL     1      33.629  -1.856  33.689  0.00  0.00    +0.000 A 
ATOM     15  C   UNL     1      33.440  -3.183  33.367  0.00  0.00    +0.000 A 
ATOM     16  C   UNL     1      34.010  -4.156  34.169  0.00  0.00    +0.000 A 
ATOM     17  C   UNL     1      34.750  -3.767  35.266  0.00  0.00    +0.000 A 
ATOM     18  C   UNL     1      34.919  -2.421  35.560  0.00  0.00    +0.000 A 
BRANCH  17  19
ATOM     19  N   UNL     1      35.324  -4.778  36.072  0.00  0.00    +0.000 N 
ATOM     20  O   UNL     1      34.558  -5.580  36.644  0.00  0.00    +0.000 OA
ATOM     21  O   UNL     1      36.674  -4.890  36.233  0.00  0.00    +0.000 OA
ENDBRANCH  17  19
ENDBRANCH   3  13
TORSDOF 3
ENDMDL
MODEL 7
REMARK VINA RESULT:      -6.1      5.376      7.623
REMARK  Name = 
REMARK  3 active torsions:
REMARK  status: ('A' for Active; 'I' for Inactive)
REMARK    1  A    between atoms: C_2  and  C_13
REMARK    2  A    between atoms: N_3  and  C_4
REMARK    3  A    between atoms: C_8  and  N_9
REMARK                            x       y       z     vdW  Elec       q    Type
REMARK                         _______ _______ _______ _____ _____    ______ ____
ROOT
ATOM      1  O   UNL     1      26.323  26.364  27.527  0.00  0.00    +0.000 OA
ATOM      2  C   UNL     1      25.443  25.553  27.889  0.00  0.00    +0.000 C 
ATOM      3  N   UNL     1      25.380  24.289  27.297  0.00  0.00    +0.000 NA
ENDROOT
BRANCH   2   4
ATOM      4  C   UNL     1      24.518  26.016  28.946  0.00  0.00    +0.000 A 
ATOM      5  S   UNL     1      24.781  26.030  30.630  0.00  0.00    +0.000 S 
ATOM      6  C   UNL     1      23.289  26.689  31.129  0.00  0.00    +0.000 A 
ATOM      7  C   UNL     1      22.626  26.879  29.954  0.00  0.00    +0.000 A 
ATOM      8  C   UNL     1      23.270  26.527  28.819  0.00  0.00    +0.000 A 
ATOM      9  C   UNL     1      22.480  26.763  27.544  0.00  0.00    +0.000 C 
ATOM     10  C   UNL     1      21.138  26.071  27.686  0.00  0.00    +0.000 C 
ATOM     11  C   UNL     1      20.447  26.442  28.977  0.00  0.00    +0.000 C 
ATOM     12  C   UNL     1      21.235  27.447  29.786  0.00  0.00    +0.000 C 
ENDBRANCH   2   4
BRANCH   3  13
ATOM     13  C   UNL     1      26.259  23.825  26.280  0.00  0.00    +0.000 A 
ATOM     14  C   UNL     1      27.509  23.297  26.534  0.00  0.00    +0.000 A 
ATOM     15  C   UNL     1      28.361  22.847  25.549  0.00  0.00    +0.000 A 
ATOM     16  C   UNL     1      27.958  22.921  24.227  0.00  0.00    +0.000 A 
ATOM     17  C   UNL     1      26.714  23.442  23.936  0.00  0.00    +0.000 A 
ATOM     18  C   UNL     1      25.882  23.885  24.955  0.00  0.00    +0.000 A 
BRANCH  17  19
ATOM     19  N   UNL     1      26.322  23.508  22.579  0.00  0.00    +0.000 N 
ATOM     20  O   UNL     1      25.367  22.796  22.208  0.00  0.00    +0.000 OA
ATOM     21  O   UNL     1      26.957  24.320  21.685  0.00  0.00    +0.000 OA
ENDBRANCH  17  19
ENDBRANCH   3  13
TORSDOF 3
ENDMDL
MODEL 8
REMARK VINA RESULT:      -6.1      2.340      3.325
REMARK  Name = 
REMARK  3 active torsions:
REMARK  status: ('A' for Active; 'I' for Inactive)
REMARK    1  A    between atoms: C_2  and  C_13
REMARK    2  A    between atoms: N_3  and  C_4
REMARK    3  A    between atoms: C_8  and  N_9
REMARK                            x       y       z     vdW  Elec       q    Type
REMARK                         _______ _______ _______ _____ _____    ______ ____
ROOT
ATOM      1  O   UNL     1      29.966  25.351  26.256  0.00  0.00    +0.000 OA
ATOM      2  C   UNL     1      30.544  24.243  26.231  0.00  0.00    +0.000 C 
ATOM      3  N   UNL     1      29.884  23.128  25.708  0.00  0.00    +0.000 NA
ENDROOT
BRANCH   2   4
ATOM      4  C   UNL     1      31.919  24.207  26.774  0.00  0.00    +0.000 A 
ATOM      5  S   UNL     1      33.338  24.833  26.065  0.00  0.00    +0.000 S 
ATOM      6  C   UNL     1      34.456  24.402  27.278  0.00  0.00    +0.000 A 
ATOM      7  C   UNL     1      33.681  23.778  28.208  0.00  0.00    +0.000 A 
ATOM      8  C   UNL     1      32.359  23.678  27.942  0.00  0.00    +0.000 A 
ATOM      9  C   UNL     1      31.548  22.973  29.014  0.00  0.00    +0.000 C 
ATOM     10  C   UNL     1      32.188  21.624  29.277  0.00  0.00    +0.000 C 
ATOM     11  C   UNL     1      33.671  21.744  29.535  0.00  0.00    +0.000 C 
ATOM     12  C   UNL     1      34.146  23.180  29.516  0.00  0.00    +0.000 C 
ENDBRANCH   2   4
BRANCH   3  13
ATOM     13  C   UNL     1      28.563  23.142  25.182  0.00  0.00    +0.000 A 
ATOM     14  C   UNL     1      27.446  22.787  25.911  0.00  0.00    +0.000 A 
ATOM     15  C   UNL     1      26.167  22.799  25.401  0.00  0.00    +0.000 A 
ATOM     16  C   UNL     1      25.970  23.187  24.087  0.00  0.00    +0.000 A 
ATOM     17  C   UNL     1      27.064  23.550  23.328  0.00  0.00    +0.000 A 
ATOM     18  C   UNL     1      28.340  23.525  23.876  0.00  0.00    +0.000 A 
BRANCH  17  19
ATOM     19  N   UNL     1      26.842  23.943  21.988  0.00  0.00    +0.000 N 
ATOM     20  O   UNL     1      25.940  23.367  21.348  0.00  0.00    +0.000 OA
ATOM     21  O   UNL     1      27.582  24.924  21.394  0.00  0.00    +0.000 OA
ENDBRANCH  17  19
ENDBRANCH   3  13
TORSDOF 3
ENDMDL
MODEL 9
REMARK VINA RESULT:      -6.0      2.475      3.388
REMARK  Name = 
REMARK  3 active torsions:
REMARK  status: ('A' for Active; 'I' for Inactive)
REMARK    1  A    between atoms: C_2  and  C_13
REMARK    2  A    between atoms: N_3  and  C_4
REMARK    3  A    between atoms: C_8  and  N_9
REMARK                            x       y       z     vdW  Elec       q    Type
REMARK                         _______ _______ _______ _____ _____    ______ ____
ROOT
ATOM      1  O   UNL     1      30.655  25.839  25.513  0.00  0.00    +0.000 OA
ATOM      2  C   UNL     1      31.227  24.731  25.418  0.00  0.00    +0.000 C 
ATOM      3  N   UNL     1      30.766  23.791  24.493  0.00  0.00    +0.000 NA
ENDROOT
BRANCH   2   4
ATOM      4  C   UNL     1      32.376  24.505  26.322  0.00  0.00    +0.000 A 
ATOM      5  S   UNL     1      33.993  24.995  26.096  0.00  0.00    +0.000 S 
ATOM      6  C   UNL     1      34.665  24.372  27.535  0.00  0.00    +0.000 A 
ATOM      7  C   UNL     1      33.596  23.796  28.152  0.00  0.00    +0.000 A 
ATOM      8  C   UNL     1      32.404  23.867  27.517  0.00  0.00    +0.000 A 
ATOM      9  C   UNL     1      31.253  23.207  28.254  0.00  0.00    +0.000 C 
ATOM     10  C   UNL     1      31.654  21.779  28.572  0.00  0.00    +0.000 C 
ATOM     11  C   UNL     1      33.004  21.711  29.246  0.00  0.00    +0.000 C 
ATOM     12  C   UNL     1      33.603  23.079  29.483  0.00  0.00    +0.000 C 
ENDBRANCH   2   4
BRANCH   3  13
ATOM     13  C   UNL     1      29.664  23.988  23.616  0.00  0.00    +0.000 A 
ATOM     14  C   UNL     1      29.743  24.709  22.441  0.00  0.00    +0.000 A 
ATOM     15  C   UNL     1      28.675  24.901  21.592  0.00  0.00    +0.000 A 
ATOM     16  C   UNL     1      27.449  24.348  21.917  0.00  0.00    +0.000 A 
ATOM     17  C   UNL     1      27.334  23.620  23.084  0.00  0.00    +0.000 A 
ATOM     18  C   UNL     1      28.432  23.447  23.916  0.00  0.00    +0.000 A 
BRANCH  17  19
ATOM     19  N   UNL     1      26.073  23.063  23.398  0.00  0.00    +0.000 N 
ATOM     20  O   UNL     1      25.784  22.901  24.601  0.00  0.00    +0.000 OA
ATOM     21  O   UNL     1      25.183  22.705  22.428  0.00  0.00    +0.000 OA
ENDBRANCH  17  19
ENDBRANCH   3  13
TORSDOF 3
ENDMDL
MODEL 10
REMARK VINA RESULT:      -5.9      4.475      6.664
REMARK  Name = 
REMARK  3 active torsions:
REMARK  status: ('A' for Active; 'I' for Inactive)
REMARK    1  A    between atoms: C_2  and  C_13
REMARK    2  A    between atoms: N_3  and  C_4
REMARK    3  A    between atoms: C_8  and  N_9
REMARK                            x       y       z     vdW  Elec       q    Type
REMARK                         _______ _______ _______ _____ _____    ______ ____
ROOT
ATOM      1  O   UNL     1      26.070  23.241  27.281  0.00  0.00    +0.000 OA
ATOM      2  C   UNL     1      26.593  24.268  27.768  0.00  0.00    +0.000 C 
ATOM      3  N   UNL     1      27.868  24.660  27.351  0.00  0.00    +0.000 NA
ENDROOT
BRANCH   2   4
ATOM      4  C   UNL     1      25.791  24.999  28.772  0.00  0.00    +0.000 A 
ATOM      5  S   UNL     1      25.932  24.933  30.469  0.00  0.00    +0.000 S 
ATOM      6  C   UNL     1      24.692  26.028  30.884  0.00  0.00    +0.000 A 
ATOM      7  C   UNL     1      24.202  26.415  29.673  0.00  0.00    +0.000 A 
ATOM      8  C   UNL     1      24.778  25.877  28.574  0.00  0.00    +0.000 A 
ATOM      9  C   UNL     1      24.189  26.347  27.257  0.00  0.00    +0.000 C 
ATOM     10  C   UNL     1      22.692  26.111  27.299  0.00  0.00    +0.000 C 
ATOM     11  C   UNL     1      22.067  26.683  28.550  0.00  0.00    +0.000 C 
ATOM     12  C   UNL     1      23.074  27.391  29.428  0.00  0.00    +0.000 C 
ENDBRANCH   2   4
BRANCH   3  13
ATOM     13  C   UNL     1      28.654  23.971  26.388  0.00  0.00    +0.000 A 
ATOM     14  C   UNL     1      29.712  23.147  26.713  0.00  0.00    +0.000 A 
ATOM     15  C   UNL     1      30.475  22.479  25.780  0.00  0.00    +0.000 A 
ATOM     16  C   UNL     1      30.177  22.630  24.437  0.00  0.00    +0.000 A 
ATOM     17  C   UNL     1      29.124  23.445  24.074  0.00  0.00    +0.000 A 
ATOM     18  C   UNL     1      28.378  24.102  25.043  0.00  0.00    +0.000 A 
BRANCH  17  19
ATOM     19  N   UNL     1      28.836  23.585  22.697  0.00  0.00    +0.000 N 
ATOM     20  O   UNL     1      27.767  23.104  22.268  0.00  0.00    +0.000 OA
ATOM     21  O   UNL     1      29.689  24.224  21.844  0.00  0.00    +0.000 OA
ENDBRANCH  17  19
ENDBRANCH   3  13
TORSDOF 3
ENDMDL
