MODEL 1
REMARK VINA RESULT:      -6.2      0.000      0.000
REMARK  Name = 
REMARK  4 active torsions:
REMARK  status: ('A' for Active; 'I' for Inactive)
REMARK    1  A    between atoms: O_2  and  C_3
REMARK    2  A    between atoms: C_9  and  N_10
REMARK    3  A    between atoms: N_10  and  C_11
REMARK    4  A    between atoms: C_11  and  C_12
REMARK                            x       y       z     vdW  Elec       q    Type
REMARK                         _______ _______ _______ _____ _____    ______ ____
ROOT
ATOM      1  C   UNL     1      29.036  24.157  22.057  0.00  0.00    +0.000 A 
ATOM      2  C   UNL     1      27.707  23.851  22.242  0.00  0.00    +0.000 A 
ATOM      3  C   UNL     1      27.260  23.437  23.476  0.00  0.00    +0.000 A 
ATOM      4  C   UNL     1      28.103  23.311  24.559  0.00  0.00    +0.000 A 
ATOM      5  N   UNL     1      27.957  22.945  25.827  0.00  0.00    +0.000 NA
ATOM      6  C   UNL     1      29.134  22.995  26.494  0.00  0.00    +0.000 A 
ATOM      7  C   UNL     1      29.477  22.710  27.819  0.00  0.00    +0.000 A 
ATOM      8  N   UNL     1      30.746  22.858  28.180  0.00  0.00    +0.000 NA
ATOM      9  C   UNL     1      31.664  23.267  27.308  0.00  0.00    +0.000 A 
ATOM     10  N   UNL     1      31.336  23.547  26.020  0.00  0.00    +0.000 NA
ATOM     11  C   UNL     1      30.060  23.414  25.595  0.00  0.00    +0.000 A 
ATOM     12  C   UNL     1      29.435  23.613  24.391  0.00  0.00    +0.000 A 
ATOM     13  C   UNL     1      29.869  24.027  23.148  0.00  0.00    +0.000 A 
ENDROOT
BRANCH   1  15
ATOM     14  C   UNL     1      29.524  25.893  20.376  0.00  0.00    +0.000 C 
ATOM     15  O   UNL     1      29.580  24.577  20.876  0.00  0.00    +0.000 OA
ENDBRANCH   1  15
BRANCH   7  16
ATOM     16  N   UNL     1      28.406  22.311  28.637  0.00  0.00    +0.000 NA
BRANCH  16  17
ATOM     17  C   UNL     1      28.247  22.737  29.976  0.00  0.00    +0.000 C 
BRANCH  17  18
ATOM     18  C   UNL     1      26.812  22.832  30.362  0.00  0.00    +0.000 C 
ATOM     19  C   UNL     1      26.198  21.479  30.506  0.00  0.00    +0.000 C 
ATOM     20  C   UNL     1      26.078  23.583  29.256  0.00  0.00    +0.000 C 
ENDBRANCH  17  18
ENDBRANCH  16  17
ENDBRANCH   7  16
TORSDOF 4
ENDMDL
MODEL 2
REMARK VINA RESULT:      -6.1     30.657     32.391
REMARK  Name = 
REMARK  4 active torsions:
REMARK  status: ('A' for Active; 'I' for Inactive)
REMARK    1  A    between atoms: O_2  and  C_3
REMARK    2  A    between atoms: C_9  and  N_10
REMARK    3  A    between atoms: N_10  and  C_11
REMARK    4  A    between atoms: C_11  and  C_12
REMARK                            x       y       z     vdW  Elec       q    Type
REMARK                         _______ _______ _______ _____ _____    ______ ____
ROOT
ATOM      1  C   UNL     1      23.722  -7.305  24.146  0.00  0.00    +0.000 A 
ATOM      2  C   UNL     1      23.711  -8.658  24.402  0.00  0.00    +0.000 A 
ATOM      3  C   UNL     1      22.640  -9.227  25.053  0.00  0.00    +0.000 A 
ATOM      4  C   UNL     1      21.555  -8.487  25.470  0.00  0.00    +0.000 A 
ATOM      5  N   UNL     1      20.418  -8.758  26.100  0.00  0.00    +0.000 NA
ATOM      6  C   UNL     1      19.672  -7.642  26.275  0.00  0.00    +0.000 A 
ATOM      7  C   UNL     1      18.425  -7.427  26.870  0.00  0.00    +0.000 A 
ATOM      8  N   UNL     1      17.947  -6.189  26.886  0.00  0.00    +0.000 NA
ATOM      9  C   UNL     1      18.632  -5.182  26.350  0.00  0.00    +0.000 A 
ATOM     10  N   UNL     1      19.843  -5.385  25.769  0.00  0.00    +0.000 NA
ATOM     11  C   UNL     1      20.380  -6.624  25.724  0.00  0.00    +0.000 A 
ATOM     12  C   UNL     1      21.551  -7.134  25.222  0.00  0.00    +0.000 A 
ATOM     13  C   UNL     1      22.630  -6.577  24.568  0.00  0.00    +0.000 A 
ENDROOT
BRANCH   1  15
ATOM     14  C   UNL     1      25.989  -7.194  23.185  0.00  0.00    +0.000 C 
ATOM     15  O   UNL     1      24.733  -6.644  23.507  0.00  0.00    +0.000 OA
ENDBRANCH   1  15
BRANCH   7  16
ATOM     16  N   UNL     1      17.801  -8.581  27.374  0.00  0.00    +0.000 NA
BRANCH  16  17
ATOM     17  C   UNL     1      17.750  -8.902  28.750  0.00  0.00    +0.000 C 
BRANCH  17  18
ATOM     18  C   UNL     1      19.019  -9.519  29.224  0.00  0.00    +0.000 C 
ATOM     19  C   UNL     1      19.164 -10.917  28.721  0.00  0.00    +0.000 C 
ATOM     20  C   UNL     1      18.983  -9.553  30.748  0.00  0.00    +0.000 C 
ENDBRANCH  17  18
ENDBRANCH  16  17
ENDBRANCH   7  16
TORSDOF 4
ENDMDL
MODEL 3
REMARK VINA RESULT:      -5.7      4.507      9.016
REMARK  Name = 
REMARK  4 active torsions:
REMARK  status: ('A' for Active; 'I' for Inactive)
REMARK    1  A    between atoms: O_2  and  C_3
REMARK    2  A    between atoms: C_9  and  N_10
REMARK    3  A    between atoms: N_10  and  C_11
REMARK    4  A    between atoms: C_11  and  C_12
REMARK                            x       y       z     vdW  Elec       q    Type
REMARK                         _______ _______ _______ _____ _____    ______ ____
ROOT
ATOM      1  C   UNL     1      27.566  24.643  23.784  0.00  0.00    +0.000 A 
ATOM      2  C   UNL     1      27.957  23.531  23.073  0.00  0.00    +0.000 A 
ATOM      3  C   UNL     1      28.640  23.677  21.887  0.00  0.00    +0.000 A 
ATOM      4  C   UNL     1      28.956  24.914  21.368  0.00  0.00    +0.000 A 
ATOM      5  N   UNL     1      29.586  25.345  20.281  0.00  0.00    +0.000 NA
ATOM      6  C   UNL     1      29.630  26.697  20.239  0.00  0.00    +0.000 A 
ATOM      7  C   UNL     1      30.174  27.593  19.314  0.00  0.00    +0.000 A 
ATOM      8  N   UNL     1      30.053  28.892  19.558  0.00  0.00    +0.000 NA
ATOM      9  C   UNL     1      29.432  29.330  20.651  0.00  0.00    +0.000 A 
ATOM     10  N   UNL     1      28.902  28.465  21.554  0.00  0.00    +0.000 NA
ATOM     11  C   UNL     1      28.995  27.131  21.358  0.00  0.00    +0.000 A 
ATOM     12  C   UNL     1      28.572  26.035  22.067  0.00  0.00    +0.000 A 
ATOM     13  C   UNL     1      27.888  25.874  23.254  0.00  0.00    +0.000 A 
ENDROOT
BRANCH   1  15
ATOM     14  C   UNL     1      26.631  23.446  25.726  0.00  0.00    +0.000 C 
ATOM     15  O   UNL     1      26.886  24.607  24.969  0.00  0.00    +0.000 OA
ENDBRANCH   1  15
BRANCH   7  16
ATOM     16  N   UNL     1      30.822  26.995  18.219  0.00  0.00    +0.000 NA
BRANCH  16  17
ATOM     17  C   UNL     1      30.777  27.518  16.907  0.00  0.00    +0.000 C 
BRANCH  17  18
ATOM     18  C   UNL     1      29.406  27.461  16.332  0.00  0.00    +0.000 C 
ATOM     19  C   UNL     1      29.245  26.283  15.429  0.00  0.00    +0.000 C 
ATOM     20  C   UNL     1      29.186  28.731  15.516  0.00  0.00    +0.000 C 
ENDBRANCH  17  18
ENDBRANCH  16  17
ENDBRANCH   7  16
TORSDOF 4
ENDMDL
MODEL 4
REMARK VINA RESULT:      -5.7     24.325     26.344
REMARK  Name = 
REMARK  4 active torsions:
REMARK  status: ('A' for Active; 'I' for Inactive)
REMARK    1  A    between atoms: O_2  and  C_3
REMARK    2  A    between atoms: C_9  and  N_10
REMARK    3  A    between atoms: N_10  and  C_11
REMARK    4  A    between atoms: C_11  and  C_12
REMARK                            x       y       z     vdW  Elec       q    Type
REMARK                         _______ _______ _______ _____ _____    ______ ____
ROOT
ATOM      1  C   UNL     1      33.731   3.311  34.663  0.00  0.00    +0.000 A 
ATOM      2  C   UNL     1      33.806   3.266  33.289  0.00  0.00    +0.000 A 
ATOM      3  C   UNL     1      33.805   2.054  32.638  0.00  0.00    +0.000 A 
ATOM      4  C   UNL     1      33.730   0.855  33.315  0.00  0.00    +0.000 A 
ATOM      5  N   UNL     1      33.710  -0.424  32.962  0.00  0.00    +0.000 NA
ATOM      6  C   UNL     1      33.624  -1.234  34.044  0.00  0.00    +0.000 A 
ATOM      7  C   UNL     1      33.573  -2.624  34.176  0.00  0.00    +0.000 A 
ATOM      8  N   UNL     1      33.490  -3.131  35.401  0.00  0.00    +0.000 NA
ATOM      9  C   UNL     1      33.455  -2.340  36.470  0.00  0.00    +0.000 A 
ATOM     10  N   UNL     1      33.504  -0.988  36.347  0.00  0.00    +0.000 NA
ATOM     11  C   UNL     1      33.589  -0.415  35.126  0.00  0.00    +0.000 A 
ATOM     12  C   UNL     1      33.654   0.883  34.688  0.00  0.00    +0.000 A 
ATOM     13  C   UNL     1      33.657   2.105  35.328  0.00  0.00    +0.000 A 
ENDROOT
BRANCH   1  15
ATOM     14  C   UNL     1      33.306   5.723  34.942  0.00  0.00    +0.000 C 
ATOM     15  O   UNL     1      33.725   4.459  35.404  0.00  0.00    +0.000 OA
ENDBRANCH   1  15
BRANCH   7  16
ATOM     16  N   UNL     1      33.594  -3.338  32.965  0.00  0.00    +0.000 NA
BRANCH  16  17
ATOM     17  C   UNL     1      33.640  -4.749  32.893  0.00  0.00    +0.000 C 
BRANCH  17  18
ATOM     18  C   UNL     1      33.340  -5.245  31.522  0.00  0.00    +0.000 C 
ATOM     19  C   UNL     1      32.392  -6.397  31.558  0.00  0.00    +0.000 C 
ATOM     20  C   UNL     1      34.649  -5.713  30.895  0.00  0.00    +0.000 C 
ENDBRANCH  17  18
ENDBRANCH  16  17
ENDBRANCH   7  16
TORSDOF 4
ENDMDL
MODEL 5
REMARK VINA RESULT:      -5.6      2.058      3.784
REMARK  Name = 
REMARK  4 active torsions:
REMARK  status: ('A' for Active; 'I' for Inactive)
REMARK    1  A    between atoms: O_2  and  C_3
REMARK    2  A    between atoms: C_9  and  N_10
REMARK    3  A    between atoms: N_10  and  C_11
REMARK    4  A    between atoms: C_11  and  C_12
REMARK                            x       y       z     vdW  Elec       q    Type
REMARK                         _______ _______ _______ _____ _____    ______ ____
ROOT
ATOM      1  C   UNL     1      28.683  22.984  23.983  0.00  0.00    +0.000 A 
ATOM      2  C   UNL     1      29.942  22.511  24.272  0.00  0.00    +0.000 A 
ATOM      3  C   UNL     1      30.309  22.283  25.579  0.00  0.00    +0.000 A 
ATOM      4  C   UNL     1      29.453  22.513  26.634  0.00  0.00    +0.000 A 
ATOM      5  N   UNL     1      29.532  22.388  27.953  0.00  0.00    +0.000 NA
ATOM      6  C   UNL     1      28.378  22.759  28.555  0.00  0.00    +0.000 A 
ATOM      7  C   UNL     1      27.987  22.800  29.896  0.00  0.00    +0.000 A 
ATOM      8  N   UNL     1      26.759  23.221  30.175  0.00  0.00    +0.000 NA
ATOM      9  C   UNL     1      25.924  23.592  29.207  0.00  0.00    +0.000 A 
ATOM     10  N   UNL     1      26.299  23.553  27.902  0.00  0.00    +0.000 NA
ATOM     11  C   UNL     1      27.536  23.133  27.558  0.00  0.00    +0.000 A 
ATOM     12  C   UNL     1      28.191  22.986  26.361  0.00  0.00    +0.000 A 
ATOM     13  C   UNL     1      27.836  23.210  25.047  0.00  0.00    +0.000 A 
ENDROOT
BRANCH   1  15
ATOM     14  C   UNL     1      27.246  24.206  22.395  0.00  0.00    +0.000 C 
ATOM     15  O   UNL     1      28.220  23.242  22.723  0.00  0.00    +0.000 OA
ENDBRANCH   1  15
BRANCH   7  16
ATOM     16  N   UNL     1      28.957  22.358  30.812  0.00  0.00    +0.000 NA
BRANCH  16  17
ATOM     17  C   UNL     1      29.916  23.211  31.405  0.00  0.00    +0.000 C 
BRANCH  17  18
ATOM     18  C   UNL     1      31.068  22.451  31.961  0.00  0.00    +0.000 C 
ATOM     19  C   UNL     1      31.779  21.685  30.895  0.00  0.00    +0.000 C 
ATOM     20  C   UNL     1      30.525  21.463  32.988  0.00  0.00    +0.000 C 
ENDBRANCH  17  18
ENDBRANCH  16  17
ENDBRANCH   7  16
TORSDOF 4
ENDMDL
MODEL 6
REMARK VINA RESULT:      -5.6      2.824      6.202
REMARK  Name = 
REMARK  4 active torsions:
REMARK  status: ('A' for Active; 'I' for Inactive)
REMARK    1  A    between atoms: O_2  and  C_3
REMARK    2  A    between atoms: C_9  and  N_10
REMARK    3  A    between atoms: N_10  and  C_11
REMARK    4  A    between atoms: C_11  and  C_12
REMARK                            x       y       z     vdW  Elec       q    Type
REMARK                         _______ _______ _______ _____ _____    ______ ____
ROOT
ATOM      1  C   UNL     1      29.152  22.664  30.267  0.00  0.00    +0.000 A 
ATOM      2  C   UNL     1      27.824  22.415  30.010  0.00  0.00    +0.000 A 
ATOM      3  C   UNL     1      27.366  22.389  28.712  0.00  0.00    +0.000 A 
ATOM      4  C   UNL     1      28.198  22.607  27.634  0.00  0.00    +0.000 A 
ATOM      5  N   UNL     1      28.041  22.642  26.317  0.00  0.00    +0.000 NA
ATOM      6  C   UNL     1      29.210  22.904  25.686  0.00  0.00    +0.000 A 
ATOM      7  C   UNL     1      29.540  23.036  24.335  0.00  0.00    +0.000 A 
ATOM      8  N   UNL     1      30.804  23.302  24.025  0.00  0.00    +0.000 NA
ATOM      9  C   UNL     1      31.729  23.437  24.973  0.00  0.00    +0.000 A 
ATOM     10  N   UNL     1      31.413  23.309  26.288  0.00  0.00    +0.000 NA
ATOM     11  C   UNL     1      30.143  23.039  26.662  0.00  0.00    +0.000 A 
ATOM     12  C   UNL     1      29.529  22.858  27.876  0.00  0.00    +0.000 A 
ATOM     13  C   UNL     1      29.974  22.881  29.182  0.00  0.00    +0.000 A 
ENDROOT
BRANCH   1  15
ATOM     14  C   UNL     1      30.721  21.856  31.989  0.00  0.00    +0.000 C 
ATOM     15  O   UNL     1      29.706  22.711  31.516  0.00  0.00    +0.000 OA
ENDBRANCH   1  15
BRANCH   7  16
ATOM     16  N   UNL     1      28.473  22.844  23.440  0.00  0.00    +0.000 NA
BRANCH  16  17
ATOM     17  C   UNL     1      28.094  23.794  22.464  0.00  0.00    +0.000 C 
BRANCH  17  18
ATOM     18  C   UNL     1      26.810  24.463  22.809  0.00  0.00    +0.000 C 
ATOM     19  C   UNL     1      27.027  25.605  23.744  0.00  0.00    +0.000 C 
ATOM     20  C   UNL     1      25.917  23.436  23.497  0.00  0.00    +0.000 C 
ENDBRANCH  17  18
ENDBRANCH  16  17
ENDBRANCH   7  16
TORSDOF 4
ENDMDL
MODEL 7
REMARK VINA RESULT:      -5.6     31.413     33.412
REMARK  Name = 
REMARK  4 active torsions:
REMARK  status: ('A' for Active; 'I' for Inactive)
REMARK    1  A    between atoms: O_2  and  C_3
REMARK    2  A    between atoms: C_9  and  N_10
REMARK    3  A    between atoms: N_10  and  C_11
REMARK    4  A    between atoms: C_11  and  C_12
REMARK                            x       y       z     vdW  Elec       q    Type
REMARK                         _______ _______ _______ _____ _____    ______ ____
ROOT
ATOM      1  C   UNL     1      14.735  -9.483  25.883  0.00  0.00    +0.000 A 
ATOM      2  C   UNL     1      15.419 -10.500  25.257  0.00  0.00    +0.000 A 
ATOM      3  C   UNL     1      16.757 -10.354  24.967  0.00  0.00    +0.000 A 
ATOM      4  C   UNL     1      17.457  -9.210  25.283  0.00  0.00    +0.000 A 
ATOM      5  N   UNL     1      18.712  -8.803  25.130  0.00  0.00    +0.000 NA
ATOM      6  C   UNL     1      18.891  -7.557  25.628  0.00  0.00    +0.000 A 
ATOM      7  C   UNL     1      20.011  -6.724  25.698  0.00  0.00    +0.000 A 
ATOM      8  N   UNL     1      19.866  -5.529  26.259  0.00  0.00    +0.000 NA
ATOM      9  C   UNL     1      18.690  -5.137  26.741  0.00  0.00    +0.000 A 
ATOM     10  N   UNL     1      17.598  -5.942  26.677  0.00  0.00    +0.000 NA
ATOM     11  C   UNL     1      17.686  -7.169  26.117  0.00  0.00    +0.000 A 
ATOM     12  C   UNL     1      16.788  -8.184  25.909  0.00  0.00    +0.000 A 
ATOM     13  C   UNL     1      15.447  -8.344  26.193  0.00  0.00    +0.000 A 
ENDROOT
BRANCH   1  15
ATOM     14  C   UNL     1      12.527  -8.430  26.187  0.00  0.00    +0.000 C 
ATOM     15  O   UNL     1      13.410  -9.527  26.214  0.00  0.00    +0.000 OA
ENDBRANCH   1  15
BRANCH   7  16
ATOM     16  N   UNL     1      21.194  -7.273  25.172  0.00  0.00    +0.000 NA
BRANCH  16  17
ATOM     17  C   UNL     1      22.333  -6.503  24.845  0.00  0.00    +0.000 C 
BRANCH  17  18
ATOM     18  C   UNL     1      23.349  -7.300  24.105  0.00  0.00    +0.000 C 
ATOM     19  C   UNL     1      24.602  -6.518  23.892  0.00  0.00    +0.000 C 
ATOM     20  C   UNL     1      22.763  -7.658  22.743  0.00  0.00    +0.000 C 
ENDBRANCH  17  18
ENDBRANCH  16  17
ENDBRANCH   7  16
TORSDOF 4
ENDMDL
MODEL 8
REMARK VINA RESULT:      -5.6      3.712      5.954
REMARK  Name = 
REMARK  4 active torsions:
REMARK  status: ('A' for Active; 'I' for Inactive)
REMARK    1  A    between atoms: O_2  and  C_3
REMARK    2  A    between atoms: C_9  and  N_10
REMARK    3  A    between atoms: N_10  and  C_11
REMARK    4  A    between atoms: C_11  and  C_12
REMARK                            x       y       z     vdW  Elec       q    Type
REMARK                         _______ _______ _______ _____ _____    ______ ____
ROOT
ATOM      1  C   UNL     1      23.214  26.463  26.671  0.00  0.00    +0.000 A 
ATOM      2  C   UNL     1      23.614  26.484  25.355  0.00  0.00    +0.000 A 
ATOM      3  C   UNL     1      24.690  25.727  24.949  0.00  0.00    +0.000 A 
ATOM      4  C   UNL     1      25.400  24.932  25.823  0.00  0.00    +0.000 A 
ATOM      5  N   UNL     1      26.446  24.121  25.717  0.00  0.00    +0.000 NA
ATOM      6  C   UNL     1      26.759  23.560  26.909  0.00  0.00    +0.000 A 
ATOM      7  C   UNL     1      27.757  22.660  27.292  0.00  0.00    +0.000 A 
ATOM      8  N   UNL     1      27.807  22.290  28.567  0.00  0.00    +0.000 NA
ATOM      9  C   UNL     1      26.932  22.761  29.453  0.00  0.00    +0.000 A 
ATOM     10  N   UNL     1      25.960  23.635  29.086  0.00  0.00    +0.000 NA
ATOM     11  C   UNL     1      25.860  24.047  27.802  0.00  0.00    +0.000 A 
ATOM     12  C   UNL     1      25.012  24.899  27.142  0.00  0.00    +0.000 A 
ATOM     13  C   UNL     1      23.932  25.663  27.534  0.00  0.00    +0.000 A 
ENDROOT
BRANCH   1  15
ATOM     14  C   UNL     1      20.925  27.367  26.527  0.00  0.00    +0.000 C 
ATOM     15  O   UNL     1      22.161  27.175  27.174  0.00  0.00    +0.000 OA
ENDBRANCH   1  15
BRANCH   7  16
ATOM     16  N   UNL     1      28.597  22.225  26.252  0.00  0.00    +0.000 NA
BRANCH  16  17
ATOM     17  C   UNL     1      29.961  22.580  26.152  0.00  0.00    +0.000 C 
BRANCH  17  18
ATOM     18  C   UNL     1      30.460  22.482  24.753  0.00  0.00    +0.000 C 
ATOM     19  C   UNL     1      31.664  23.339  24.545  0.00  0.00    +0.000 C 
ATOM     20  C   UNL     1      29.352  22.969  23.826  0.00  0.00    +0.000 C 
ENDBRANCH  17  18
ENDBRANCH  16  17
ENDBRANCH   7  16
TORSDOF 4
ENDMDL
MODEL 9
REMARK VINA RESULT:      -5.5      2.886      6.441
REMARK  Name = 
REMARK  4 active torsions:
REMARK  status: ('A' for Active; 'I' for Inactive)
REMARK    1  A    between atoms: O_2  and  C_3
REMARK    2  A    between atoms: C_9  and  N_10
REMARK    3  A    between atoms: N_10  and  C_11
REMARK    4  A    between atoms: C_11  and  C_12
REMARK                            x       y       z     vdW  Elec       q    Type
REMARK                         _______ _______ _______ _____ _____    ______ ____
ROOT
ATOM      1  C   UNL     1      25.818  24.477  29.565  0.00  0.00    +0.000 A 
ATOM      2  C   UNL     1      25.028  24.979  28.556  0.00  0.00    +0.000 A 
ATOM      3  C   UNL     1      25.416  24.840  27.243  0.00  0.00    +0.000 A 
ATOM      4  C   UNL     1      26.587  24.206  26.885  0.00  0.00    +0.000 A 
ATOM      5  N   UNL     1      27.195  23.934  25.737  0.00  0.00    +0.000 NA
ATOM      6  C   UNL     1      28.358  23.272  25.939  0.00  0.00    +0.000 A 
ATOM      7  C   UNL     1      29.327  22.781  25.059  0.00  0.00    +0.000 A 
ATOM      8  N   UNL     1      30.381  22.161  25.575  0.00  0.00    +0.000 NA
ATOM      9  C   UNL     1      30.512  22.010  26.891  0.00  0.00    +0.000 A 
ATOM     10  N   UNL     1      29.574  22.483  27.751  0.00  0.00    +0.000 NA
ATOM     11  C   UNL     1      28.479  23.123  27.283  0.00  0.00    +0.000 A 
ATOM     12  C   UNL     1      27.387  23.699  27.882  0.00  0.00    +0.000 A 
ATOM     13  C   UNL     1      26.986  23.845  29.193  0.00  0.00    +0.000 A 
ENDROOT
BRANCH   1  15
ATOM     14  C   UNL     1      26.166  25.411  31.820  0.00  0.00    +0.000 C 
ATOM     15  O   UNL     1      25.524  24.561  30.897  0.00  0.00    +0.000 OA
ENDBRANCH   1  15
BRANCH   7  16
ATOM     16  N   UNL     1      29.051  22.988  23.696  0.00  0.00    +0.000 NA
BRANCH  16  17
ATOM     17  C   UNL     1      29.496  24.119  22.974  0.00  0.00    +0.000 C 
BRANCH  17  18
ATOM     18  C   UNL     1      28.800  24.252  21.666  0.00  0.00    +0.000 C 
ATOM     19  C   UNL     1      29.289  25.441  20.908  0.00  0.00    +0.000 C 
ATOM     20  C   UNL     1      27.311  24.433  21.943  0.00  0.00    +0.000 C 
ENDBRANCH  17  18
ENDBRANCH  16  17
ENDBRANCH   7  16
TORSDOF 4
ENDMDL
MODEL 10
REMARK VINA RESULT:      -5.4     23.715     26.012
REMARK  Name = 
REMARK  4 active torsions:
REMARK  status: ('A' for Active; 'I' for Inactive)
REMARK    1  A    between atoms: O_2  and  C_3
REMARK    2  A    between atoms: C_9  and  N_10
REMARK    3  A    between atoms: N_10  and  C_11
REMARK    4  A    between atoms: C_11  and  C_12
REMARK                            x       y       z     vdW  Elec       q    Type
REMARK                         _______ _______ _______ _____ _____    ______ ____
ROOT
ATOM      1  C   UNL     1      33.028  -3.283  34.722  0.00  0.00    +0.000 A 
ATOM      2  C   UNL     1      33.395  -2.634  33.566  0.00  0.00    +0.000 A 
ATOM      3  C   UNL     1      33.753  -1.305  33.605  0.00  0.00    +0.000 A 
ATOM      4  C   UNL     1      33.759  -0.580  34.777  0.00  0.00    +0.000 A 
ATOM      5  N   UNL     1      34.048   0.674  35.105  0.00  0.00    +0.000 NA
ATOM      6  C   UNL     1      33.889   0.886  36.433  0.00  0.00    +0.000 A 
ATOM      7  C   UNL     1      34.069   2.018  37.232  0.00  0.00    +0.000 A 
ATOM      8  N   UNL     1      33.825   1.907  38.533  0.00  0.00    +0.000 NA
ATOM      9  C   UNL     1      33.423   0.754  39.060  0.00  0.00    +0.000 A 
ATOM     10  N   UNL     1      33.247  -0.350  38.288  0.00  0.00    +0.000 NA
ATOM     11  C   UNL     1      33.480  -0.297  36.958  0.00  0.00    +0.000 A 
ATOM     12  C   UNL     1      33.395  -1.215  35.942  0.00  0.00    +0.000 A 
ATOM     13  C   UNL     1      33.039  -2.547  35.888  0.00  0.00    +0.000 A 
ENDROOT
BRANCH   1  15
ATOM     14  C   UNL     1      31.922  -5.288  33.809  0.00  0.00    +0.000 C 
ATOM     15  O   UNL     1      32.658  -4.597  34.792  0.00  0.00    +0.000 OA
ENDBRANCH   1  15
BRANCH   7  16
ATOM     16  N   UNL     1      34.519   3.162  36.551  0.00  0.00    +0.000 NA
BRANCH  16  17
ATOM     17  C   UNL     1      33.669   4.222  36.161  0.00  0.00    +0.000 C 
BRANCH  17  18
ATOM     18  C   UNL     1      34.017   4.746  34.812  0.00  0.00    +0.000 C 
ATOM     19  C   UNL     1      35.116   5.753  34.888  0.00  0.00    +0.000 C 
ATOM     20  C   UNL     1      32.777   5.425  34.239  0.00  0.00    +0.000 C 
ENDBRANCH  17  18
ENDBRANCH  16  17
ENDBRANCH   7  16
TORSDOF 4
ENDMDL
