MODEL 1
REMARK VINA RESULT:      -6.5      0.000      0.000
REMARK  Name = 
REMARK  5 active torsions:
REMARK  status: ('A' for Active; 'I' for Inactive)
REMARK    1  A    between atoms: C_2  and  C_3
REMARK    2  A    between atoms: C_3  and  C_4
REMARK    3  A    between atoms: C_4  and  C_5
REMARK    4  A    between atoms: C_5  and  C_6
REMARK    5  A    between atoms: C_9  and  C_10
REMARK                            x       y       z     vdW  Elec       q    Type
REMARK                         _______ _______ _______ _____ _____    ______ ____
ROOT
ATOM      1  C   UNL     1      16.026  11.170  32.801  0.00  0.00    +0.000 A 
ATOM      2  C   UNL     1      15.510  11.754  33.937  0.00  0.00    +0.000 A 
ATOM      3  C   UNL     1      16.031  11.463  35.179  0.00  0.00    +0.000 A 
ATOM      4  C   UNL     1      17.071  10.588  35.309  0.00  0.00    +0.000 A 
ATOM      5  C   UNL     1      17.589  10.003  34.187  0.00  0.00    +0.000 A 
ATOM      6  C   UNL     1      17.071  10.291  32.942  0.00  0.00    +0.000 A 
ENDROOT
BRANCH   4   7
ATOM      7  C   UNL     1      17.628  10.274  36.619  0.00  0.00    +0.000 A 
ATOM      8  N   UNL     1      17.027  10.280  37.802  0.00  0.00    +0.000 NA
ATOM      9  N   UNL     1      17.664   9.980  38.845  0.00  0.00    +0.000 NA
ATOM     10  C   UNL     1      18.952   9.653  38.763  0.00  0.00    +0.000 A 
ATOM     11  N   UNL     1      19.855   9.282  39.819  0.00  0.00    +0.000 NA
ATOM     12  S   UNL     1      19.219   9.802  37.067  0.00  0.00    +0.000 S 
ENDBRANCH   4   7
BRANCH   1  13
ATOM     13  C   UNL     1      15.445  11.498  31.451  0.00  0.00    +0.000 C 
BRANCH  13  14
ATOM     14  C   UNL     1      16.261  12.697  30.951  0.00  0.00    +0.000 C 
BRANCH  14  15
ATOM     15  C   UNL     1      15.231  13.655  30.341  0.00  0.00    +0.000 C 
BRANCH  15  17
ATOM     16  C   UNL     1      13.697  14.575  32.084  0.00  0.00    +0.000 C 
ATOM     17  C   UNL     1      13.949  13.437  31.120  0.00  0.00    +0.000 C 
ENDBRANCH  15  17
ENDBRANCH  14  15
ENDBRANCH  13  14
ENDBRANCH   1  13
TORSDOF 5
ENDMDL
MODEL 2
REMARK VINA RESULT:      -6.1     28.066     29.852
REMARK  Name = 
REMARK  5 active torsions:
REMARK  status: ('A' for Active; 'I' for Inactive)
REMARK    1  A    between atoms: C_2  and  C_3
REMARK    2  A    between atoms: C_3  and  C_4
REMARK    3  A    between atoms: C_4  and  C_5
REMARK    4  A    between atoms: C_5  and  C_6
REMARK    5  A    between atoms: C_9  and  C_10
REMARK                            x       y       z     vdW  Elec       q    Type
REMARK                         _______ _______ _______ _____ _____    ______ ____
ROOT
ATOM      1  C   UNL     1      29.946  22.855  12.602  0.00  0.00    +0.000 A 
ATOM      2  C   UNL     1      29.983  23.149  11.257  0.00  0.00    +0.000 A 
ATOM      3  C   UNL     1      30.781  22.423  10.399  0.00  0.00    +0.000 A 
ATOM      4  C   UNL     1      31.553  21.398  10.866  0.00  0.00    +0.000 A 
ATOM      5  C   UNL     1      31.521  21.100  12.201  0.00  0.00    +0.000 A 
ATOM      6  C   UNL     1      30.725  21.823  13.063  0.00  0.00    +0.000 A 
ENDROOT
BRANCH   4   7
ATOM      7  C   UNL     1      32.400  20.625   9.966  0.00  0.00    +0.000 A 
ATOM      8  N   UNL     1      33.396  19.801  10.265  0.00  0.00    +0.000 NA
ATOM      9  N   UNL     1      34.030  19.208   9.354  0.00  0.00    +0.000 NA
ATOM     10  C   UNL     1      33.701  19.408   8.079  0.00  0.00    +0.000 A 
ATOM     11  N   UNL     1      34.289  18.838   6.897  0.00  0.00    +0.000 NA
ATOM     12  S   UNL     1      32.398  20.523   8.251  0.00  0.00    +0.000 S 
ENDBRANCH   4   7
BRANCH   1  13
ATOM     13  C   UNL     1      29.068  23.657  13.526  0.00  0.00    +0.000 C 
BRANCH  13  14
ATOM     14  C   UNL     1      27.665  23.063  13.354  0.00  0.00    +0.000 C 
BRANCH  14  15
ATOM     15  C   UNL     1      26.784  24.237  12.910  0.00  0.00    +0.000 C 
BRANCH  15  17
ATOM     16  C   UNL     1      26.393  22.323  11.355  0.00  0.00    +0.000 C 
ATOM     17  C   UNL     1      26.066  23.767  11.661  0.00  0.00    +0.000 C 
ENDBRANCH  15  17
ENDBRANCH  14  15
ENDBRANCH  13  14
ENDBRANCH   1  13
TORSDOF 5
ENDMDL
MODEL 3
REMARK VINA RESULT:      -6.1      3.711      7.416
REMARK  Name = 
REMARK  5 active torsions:
REMARK  status: ('A' for Active; 'I' for Inactive)
REMARK    1  A    between atoms: C_2  and  C_3
REMARK    2  A    between atoms: C_3  and  C_4
REMARK    3  A    between atoms: C_4  and  C_5
REMARK    4  A    between atoms: C_5  and  C_6
REMARK    5  A    between atoms: C_9  and  C_10
REMARK                            x       y       z     vdW  Elec       q    Type
REMARK                         _______ _______ _______ _____ _____    ______ ____
ROOT
ATOM      1  C   UNL     1      17.968   9.597  37.029  0.00  0.00    +0.000 A 
ATOM      2  C   UNL     1      17.034  10.609  37.037  0.00  0.00    +0.000 A 
ATOM      3  C   UNL     1      16.478  11.065  35.861  0.00  0.00    +0.000 A 
ATOM      4  C   UNL     1      16.844  10.522  34.663  0.00  0.00    +0.000 A 
ATOM      5  C   UNL     1      17.771   9.517  34.647  0.00  0.00    +0.000 A 
ATOM      6  C   UNL     1      18.330   9.057  35.820  0.00  0.00    +0.000 A 
ENDROOT
BRANCH   4   7
ATOM      7  C   UNL     1      16.262  10.998  33.414  0.00  0.00    +0.000 A 
ATOM      8  N   UNL     1      16.492  10.578  32.177  0.00  0.00    +0.000 NA
ATOM      9  N   UNL     1      15.896  11.105  31.202  0.00  0.00    +0.000 NA
ATOM     10  C   UNL     1      15.027  12.093  31.411  0.00  0.00    +0.000 A 
ATOM     11  N   UNL     1      14.248  12.825  30.451  0.00  0.00    +0.000 NA
ATOM     12  S   UNL     1      15.107  12.237  33.127  0.00  0.00    +0.000 S 
ENDBRANCH   4   7
BRANCH   1  13
ATOM     13  C   UNL     1      18.565   9.110  38.324  0.00  0.00    +0.000 C 
BRANCH  13  14
ATOM     14  C   UNL     1      17.792   9.852  39.420  0.00  0.00    +0.000 C 
BRANCH  14  15
ATOM     15  C   UNL     1      17.240   8.753  40.335  0.00  0.00    +0.000 C 
BRANCH  15  17
ATOM     16  C   UNL     1      16.315   9.631  42.483  0.00  0.00    +0.000 C 
ATOM     17  C   UNL     1      16.031   9.355  41.023  0.00  0.00    +0.000 C 
ENDBRANCH  15  17
ENDBRANCH  14  15
ENDBRANCH  13  14
ENDBRANCH   1  13
TORSDOF 5
ENDMDL
MODEL 4
REMARK VINA RESULT:      -6.0      3.531      6.931
REMARK  Name = 
REMARK  5 active torsions:
REMARK  status: ('A' for Active; 'I' for Inactive)
REMARK    1  A    between atoms: C_2  and  C_3
REMARK    2  A    between atoms: C_3  and  C_4
REMARK    3  A    between atoms: C_4  and  C_5
REMARK    4  A    between atoms: C_5  and  C_6
REMARK    5  A    between atoms: C_9  and  C_10
REMARK                            x       y       z     vdW  Elec       q    Type
REMARK                         _______ _______ _______ _____ _____    ______ ____
ROOT
ATOM      1  C   UNL     1      17.916   9.604  37.222  0.00  0.00    +0.000 A 
ATOM      2  C   UNL     1      16.916  10.553  37.202  0.00  0.00    +0.000 A 
ATOM      3  C   UNL     1      16.381  10.988  36.009  0.00  0.00    +0.000 A 
ATOM      4  C   UNL     1      16.831  10.488  34.821  0.00  0.00    +0.000 A 
ATOM      5  C   UNL     1      17.823   9.546  34.832  0.00  0.00    +0.000 A 
ATOM      6  C   UNL     1      18.362   9.107  36.023  0.00  0.00    +0.000 A 
ENDROOT
BRANCH   4   7
ATOM      7  C   UNL     1      16.271  10.943  33.555  0.00  0.00    +0.000 A 
ATOM      8  N   UNL     1      16.551  10.530  32.326  0.00  0.00    +0.000 NA
ATOM      9  N   UNL     1      15.967  11.036  31.332  0.00  0.00    +0.000 NA
ATOM     10  C   UNL     1      15.060  11.994  31.514  0.00  0.00    +0.000 A 
ATOM     11  N   UNL     1      14.285  12.699  30.529  0.00  0.00    +0.000 NA
ATOM     12  S   UNL     1      15.084  12.142  33.230  0.00  0.00    +0.000 S 
ENDBRANCH   4   7
BRANCH   1  13
ATOM     13  C   UNL     1      18.490   9.139  38.534  0.00  0.00    +0.000 C 
BRANCH  13  14
ATOM     14  C   UNL     1      18.859  10.426  39.282  0.00  0.00    +0.000 C 
BRANCH  14  15
ATOM     15  C   UNL     1      20.159  10.910  38.630  0.00  0.00    +0.000 C 
BRANCH  15  17
ATOM     16  C   UNL     1      19.479  13.239  38.036  0.00  0.00    +0.000 C 
ATOM     17  C   UNL     1      20.280  12.378  38.987  0.00  0.00    +0.000 C 
ENDBRANCH  15  17
ENDBRANCH  14  15
ENDBRANCH  13  14
ENDBRANCH   1  13
TORSDOF 5
ENDMDL
MODEL 5
REMARK VINA RESULT:      -5.8      3.456      7.752
REMARK  Name = 
REMARK  5 active torsions:
REMARK  status: ('A' for Active; 'I' for Inactive)
REMARK    1  A    between atoms: C_2  and  C_3
REMARK    2  A    between atoms: C_3  and  C_4
REMARK    3  A    between atoms: C_4  and  C_5
REMARK    4  A    between atoms: C_5  and  C_6
REMARK    5  A    between atoms: C_9  and  C_10
REMARK                            x       y       z     vdW  Elec       q    Type
REMARK                         _______ _______ _______ _____ _____    ______ ____
ROOT
ATOM      1  C   UNL     1      17.898   9.700  37.490  0.00  0.00    +0.000 A 
ATOM      2  C   UNL     1      18.239   9.280  36.223  0.00  0.00    +0.000 A 
ATOM      3  C   UNL     1      17.611   9.803  35.113  0.00  0.00    +0.000 A 
ATOM      4  C   UNL     1      16.636  10.750  35.248  0.00  0.00    +0.000 A 
ATOM      5  C   UNL     1      16.291  11.172  36.503  0.00  0.00    +0.000 A 
ATOM      6  C   UNL     1      16.916  10.652  37.616  0.00  0.00    +0.000 A 
ENDROOT
BRANCH   4   7
ATOM      7  C   UNL     1      15.966  11.309  34.081  0.00  0.00    +0.000 A 
ATOM      8  N   UNL     1      15.063  12.279  34.026  0.00  0.00    +0.000 NA
ATOM      9  N   UNL     1      14.581  12.643  32.921  0.00  0.00    +0.000 NA
ATOM     10  C   UNL     1      14.981  12.051  31.797  0.00  0.00    +0.000 A 
ATOM     11  N   UNL     1      14.564  12.310  30.446  0.00  0.00    +0.000 NA
ATOM     12  S   UNL     1      16.114  10.910  32.416  0.00  0.00    +0.000 S 
ENDBRANCH   4   7
BRANCH   1  13
ATOM     13  C   UNL     1      18.594   9.118  38.692  0.00  0.00    +0.000 C 
BRANCH  13  14
ATOM     14  C   UNL     1      17.597   9.284  39.845  0.00  0.00    +0.000 C 
BRANCH  14  15
ATOM     15  C   UNL     1      17.998   8.222  40.876  0.00  0.00    +0.000 C 
BRANCH  15  17
ATOM     16  C   UNL     1      18.317   5.745  40.913  0.00  0.00    +0.000 C 
ATOM     17  C   UNL     1      18.410   7.002  40.077  0.00  0.00    +0.000 C 
ENDBRANCH  15  17
ENDBRANCH  14  15
ENDBRANCH  13  14
ENDBRANCH   1  13
TORSDOF 5
ENDMDL
MODEL 6
REMARK VINA RESULT:      -5.7     19.308     20.269
REMARK  Name = 
REMARK  5 active torsions:
REMARK  status: ('A' for Active; 'I' for Inactive)
REMARK    1  A    between atoms: C_2  and  C_3
REMARK    2  A    between atoms: C_3  and  C_4
REMARK    3  A    between atoms: C_4  and  C_5
REMARK    4  A    between atoms: C_5  and  C_6
REMARK    5  A    between atoms: C_9  and  C_10
REMARK                            x       y       z     vdW  Elec       q    Type
REMARK                         _______ _______ _______ _____ _____    ______ ____
ROOT
ATOM      1  C   UNL     1      33.913   3.847  34.458  0.00  0.00    +0.000 A 
ATOM      2  C   UNL     1      33.660   3.240  33.247  0.00  0.00    +0.000 A 
ATOM      3  C   UNL     1      33.465   1.878  33.168  0.00  0.00    +0.000 A 
ATOM      4  C   UNL     1      33.520   1.102  34.290  0.00  0.00    +0.000 A 
ATOM      5  C   UNL     1      33.770   1.696  35.496  0.00  0.00    +0.000 A 
ATOM      6  C   UNL     1      33.967   3.058  35.580  0.00  0.00    +0.000 A 
ENDROOT
BRANCH   4   7
ATOM      7  C   UNL     1      33.314  -0.340  34.216  0.00  0.00    +0.000 A 
ATOM      8  N   UNL     1      33.878  -1.219  33.397  0.00  0.00    +0.000 NA
ATOM      9  N   UNL     1      33.584  -2.440  33.470  0.00  0.00    +0.000 NA
ATOM     10  C   UNL     1      32.700  -2.856  34.374  0.00  0.00    +0.000 A 
ATOM     11  N   UNL     1      32.227  -4.191  34.623  0.00  0.00    +0.000 NA
ATOM     12  S   UNL     1      32.295  -1.368  35.142  0.00  0.00    +0.000 S 
ENDBRANCH   4   7
BRANCH   1  13
ATOM     13  C   UNL     1      34.124   5.336  34.527  0.00  0.00    +0.000 C 
BRANCH  13  14
ATOM     14  C   UNL     1      35.156   5.539  35.643  0.00  0.00    +0.000 C 
BRANCH  14  15
ATOM     15  C   UNL     1      36.251   6.415  35.022  0.00  0.00    +0.000 C 
BRANCH  15  17
ATOM     16  C   UNL     1      36.974   7.708  37.033  0.00  0.00    +0.000 C 
ATOM     17  C   UNL     1      36.178   7.744  35.747  0.00  0.00    +0.000 C 
ENDBRANCH  15  17
ENDBRANCH  14  15
ENDBRANCH  13  14
ENDBRANCH   1  13
TORSDOF 5
ENDMDL
MODEL 7
REMARK VINA RESULT:      -5.6     18.183     19.731
REMARK  Name = 
REMARK  5 active torsions:
REMARK  status: ('A' for Active; 'I' for Inactive)
REMARK    1  A    between atoms: C_2  and  C_3
REMARK    2  A    between atoms: C_3  and  C_4
REMARK    3  A    between atoms: C_4  and  C_5
REMARK    4  A    between atoms: C_5  and  C_6
REMARK    5  A    between atoms: C_9  and  C_10
REMARK                            x       y       z     vdW  Elec       q    Type
REMARK                         _______ _______ _______ _____ _____    ______ ____
ROOT
ATOM      1  C   UNL     1      26.753  22.980  28.393  0.00  0.00    +0.000 A 
ATOM      2  C   UNL     1      27.850  22.332  27.869  0.00  0.00    +0.000 A 
ATOM      3  C   UNL     1      28.218  22.519  26.554  0.00  0.00    +0.000 A 
ATOM      4  C   UNL     1      27.499  23.350  25.742  0.00  0.00    +0.000 A 
ATOM      5  C   UNL     1      26.408  23.997  26.255  0.00  0.00    +0.000 A 
ATOM      6  C   UNL     1      26.037  23.813  27.570  0.00  0.00    +0.000 A 
ENDROOT
BRANCH   4   7
ATOM      7  C   UNL     1      27.880  23.553  24.350  0.00  0.00    +0.000 A 
ATOM      8  N   UNL     1      27.258  23.149  23.250  0.00  0.00    +0.000 NA
ATOM      9  N   UNL     1      27.730  23.414  22.114  0.00  0.00    +0.000 NA
ATOM     10  C   UNL     1      28.864  24.105  22.013  0.00  0.00    +0.000 A 
ATOM     11  N   UNL     1      29.568  24.510  20.826  0.00  0.00    +0.000 NA
ATOM     12  S   UNL     1      29.235  24.366  23.675  0.00  0.00    +0.000 S 
ENDBRANCH   4   7
BRANCH   1  13
ATOM     13  C   UNL     1      26.365  22.765  29.832  0.00  0.00    +0.000 C 
BRANCH  13  14
ATOM     14  C   UNL     1      26.197  24.175  30.411  0.00  0.00    +0.000 C 
BRANCH  14  15
ATOM     15  C   UNL     1      27.577  24.547  30.968  0.00  0.00    +0.000 C 
BRANCH  15  17
ATOM     16  C   UNL     1      28.702  25.952  29.236  0.00  0.00    +0.000 C 
ATOM     17  C   UNL     1      27.851  25.958  30.487  0.00  0.00    +0.000 C 
ENDBRANCH  15  17
ENDBRANCH  14  15
ENDBRANCH  13  14
ENDBRANCH   1  13
TORSDOF 5
ENDMDL
MODEL 8
REMARK VINA RESULT:      -5.5     18.688     20.088
REMARK  Name = 
REMARK  5 active torsions:
REMARK  status: ('A' for Active; 'I' for Inactive)
REMARK    1  A    between atoms: C_2  and  C_3
REMARK    2  A    between atoms: C_3  and  C_4
REMARK    3  A    between atoms: C_4  and  C_5
REMARK    4  A    between atoms: C_5  and  C_6
REMARK    5  A    between atoms: C_9  and  C_10
REMARK                            x       y       z     vdW  Elec       q    Type
REMARK                         _______ _______ _______ _____ _____    ______ ____
ROOT
ATOM      1  C   UNL     1      33.338   1.908  34.146  0.00  0.00    +0.000 A 
ATOM      2  C   UNL     1      33.288   2.979  33.280  0.00  0.00    +0.000 A 
ATOM      3  C   UNL     1      33.710   4.228  33.679  0.00  0.00    +0.000 A 
ATOM      4  C   UNL     1      34.185   4.431  34.943  0.00  0.00    +0.000 A 
ATOM      5  C   UNL     1      34.237   3.373  35.809  0.00  0.00    +0.000 A 
ATOM      6  C   UNL     1      33.816   2.121  35.415  0.00  0.00    +0.000 A 
ENDROOT
BRANCH   4   7
ATOM      7  C   UNL     1      34.633   5.749  35.374  0.00  0.00    +0.000 A 
ATOM      8  N   UNL     1      33.908   6.774  35.803  0.00  0.00    +0.000 NA
ATOM      9  N   UNL     1      34.462   7.853  36.139  0.00  0.00    +0.000 NA
ATOM     10  C   UNL     1      35.787   7.969  36.065  0.00  0.00    +0.000 A 
ATOM     11  N   UNL     1      36.612   9.099  36.396  0.00  0.00    +0.000 NA
ATOM     12  S   UNL     1      36.216   6.410  35.471  0.00  0.00    +0.000 S 
ENDBRANCH   4   7
BRANCH   1  13
ATOM     13  C   UNL     1      32.873   0.549  33.693  0.00  0.00    +0.000 C 
BRANCH  13  14
ATOM     14  C   UNL     1      34.158  -0.218  33.360  0.00  0.00    +0.000 C 
BRANCH  14  15
ATOM     15  C   UNL     1      33.857  -1.679  33.715  0.00  0.00    +0.000 C 
BRANCH  15  17
ATOM     16  C   UNL     1      35.471  -1.335  35.591  0.00  0.00    +0.000 C 
ATOM     17  C   UNL     1      34.081  -1.796  35.210  0.00  0.00    +0.000 C 
ENDBRANCH  15  17
ENDBRANCH  14  15
ENDBRANCH  13  14
ENDBRANCH   1  13
TORSDOF 5
ENDMDL
MODEL 9
REMARK VINA RESULT:      -5.5     27.399     29.532
REMARK  Name = 
REMARK  5 active torsions:
REMARK  status: ('A' for Active; 'I' for Inactive)
REMARK    1  A    between atoms: C_2  and  C_3
REMARK    2  A    between atoms: C_3  and  C_4
REMARK    3  A    between atoms: C_4  and  C_5
REMARK    4  A    between atoms: C_5  and  C_6
REMARK    5  A    between atoms: C_9  and  C_10
REMARK                            x       y       z     vdW  Elec       q    Type
REMARK                         _______ _______ _______ _____ _____    ______ ____
ROOT
ATOM      1  C   UNL     1      33.744  21.017  11.389  0.00  0.00    +0.000 A 
ATOM      2  C   UNL     1      32.971  20.326  12.297  0.00  0.00    +0.000 A 
ATOM      3  C   UNL     1      31.723  20.786  12.655  0.00  0.00    +0.000 A 
ATOM      4  C   UNL     1      31.226  21.939  12.117  0.00  0.00    +0.000 A 
ATOM      5  C   UNL     1      31.987  22.631  11.216  0.00  0.00    +0.000 A 
ATOM      6  C   UNL     1      33.237  22.175  10.854  0.00  0.00    +0.000 A 
ENDROOT
BRANCH   4   7
ATOM      7  C   UNL     1      29.906  22.433  12.491  0.00  0.00    +0.000 A 
ATOM      8  N   UNL     1      29.460  22.789  13.688  0.00  0.00    +0.000 NA
ATOM      9  N   UNL     1      28.279  23.198  13.835  0.00  0.00    +0.000 NA
ATOM     10  C   UNL     1      27.469  23.275  12.781  0.00  0.00    +0.000 A 
ATOM     11  N   UNL     1      26.099  23.710  12.728  0.00  0.00    +0.000 NA
ATOM     12  S   UNL     1      28.511  22.715  11.528  0.00  0.00    +0.000 S 
ENDBRANCH   4   7
BRANCH   1  13
ATOM     13  C   UNL     1      35.106  20.501  11.008  0.00  0.00    +0.000 C 
BRANCH  13  14
ATOM     14  C   UNL     1      35.906  20.492  12.317  0.00  0.00    +0.000 C 
BRANCH  14  15
ATOM     15  C   UNL     1      36.160  19.011  12.622  0.00  0.00    +0.000 C 
BRANCH  15  17
ATOM     16  C   UNL     1      36.227  17.620  14.695  0.00  0.00    +0.000 C 
ATOM     17  C   UNL     1      36.582  18.953  14.076  0.00  0.00    +0.000 C 
ENDBRANCH  15  17
ENDBRANCH  14  15
ENDBRANCH  13  14
ENDBRANCH   1  13
TORSDOF 5
ENDMDL
MODEL 10
REMARK VINA RESULT:      -5.5     20.874     22.718
REMARK  Name = 
REMARK  5 active torsions:
REMARK  status: ('A' for Active; 'I' for Inactive)
REMARK    1  A    between atoms: C_2  and  C_3
REMARK    2  A    between atoms: C_3  and  C_4
REMARK    3  A    between atoms: C_4  and  C_5
REMARK    4  A    between atoms: C_5  and  C_6
REMARK    5  A    between atoms: C_9  and  C_10
REMARK                            x       y       z     vdW  Elec       q    Type
REMARK                         _______ _______ _______ _____ _____    ______ ____
ROOT
ATOM      1  C   UNL     1      27.259  23.731  24.067  0.00  0.00    +0.000 A 
ATOM      2  C   UNL     1      26.930  25.059  23.897  0.00  0.00    +0.000 A 
ATOM      3  C   UNL     1      27.525  25.811  22.907  0.00  0.00    +0.000 A 
ATOM      4  C   UNL     1      28.455  25.255  22.076  0.00  0.00    +0.000 A 
ATOM      5  C   UNL     1      28.786  23.939  22.238  0.00  0.00    +0.000 A 
ATOM      6  C   UNL     1      28.194  23.181  23.226  0.00  0.00    +0.000 A 
ENDROOT
BRANCH   4   7
ATOM      7  C   UNL     1      29.089  26.044  21.026  0.00  0.00    +0.000 A 
ATOM      8  N   UNL     1      29.759  25.624  19.961  0.00  0.00    +0.000 NA
ATOM      9  N   UNL     1      30.248  26.449  19.146  0.00  0.00    +0.000 NA
ATOM     10  C   UNL     1      30.091  27.755  19.353  0.00  0.00    +0.000 A 
ATOM     11  N   UNL     1      30.563  28.855  18.556  0.00  0.00    +0.000 NA
ATOM     12  S   UNL     1      29.184  27.747  20.817  0.00  0.00    +0.000 S 
ENDBRANCH   4   7
BRANCH   1  13
ATOM     13  C   UNL     1      26.599  22.923  25.153  0.00  0.00    +0.000 C 
BRANCH  13  14
ATOM     14  C   UNL     1      27.229  23.425  26.458  0.00  0.00    +0.000 C 
BRANCH  14  15
ATOM     15  C   UNL     1      28.138  22.283  26.929  0.00  0.00    +0.000 C 
BRANCH  15  17
ATOM     16  C   UNL     1      30.438  22.354  25.959  0.00  0.00    +0.000 C 
ATOM     17  C   UNL     1      29.526  22.879  27.046  0.00  0.00    +0.000 C 
ENDBRANCH  15  17
ENDBRANCH  14  15
ENDBRANCH  13  14
ENDBRANCH   1  13
TORSDOF 5
ENDMDL
