MODEL 1
REMARK VINA RESULT:      -7.6      0.000      0.000
REMARK  Name = 
REMARK  2 active torsions:
REMARK  status: ('A' for Active; 'I' for Inactive)
REMARK    1  A    between atoms: C_2  and  C_16
REMARK    2  A    between atoms: N_3  and  N_4
REMARK                            x       y       z     vdW  Elec       q    Type
REMARK                         _______ _______ _______ _____ _____    ______ ____
ROOT
ATOM      1  N   UNL     1      17.512  10.587  34.984  0.00  0.00    +0.000 NA
ATOM      2  C   UNL     1      17.974  10.633  36.147  0.00  0.00    +0.000 C 
ATOM      3  C   UNL     1      17.418  11.806  36.975  0.00  0.00    +0.000 C 
ATOM      4  C   UNL     1      16.755  10.874  38.167  0.00  0.00    +0.000 C 
ATOM      5  C   UNL     1      17.599   9.812  38.564  0.00  0.00    +0.000 C 
ATOM      6  C   UNL     1      18.129   8.837  37.687  0.00  0.00    +0.000 C 
ATOM      7  C   UNL     1      18.973   9.500  36.433  0.00  0.00    +0.000 C 
ATOM      8  C   UNL     1      20.053  10.308  37.364  0.00  0.00    +0.000 C 
ATOM      9  C   UNL     1      19.452  11.107  38.361  0.00  0.00    +0.000 C 
ATOM     10 CL   UNL     1      20.823  11.815  39.305  0.00  0.00    +0.000 Cl
ATOM     11  C   UNL     1      18.703  10.342  39.472  0.00  0.00    +0.000 C 
ATOM     12  C   UNL     1      18.764  12.216  37.811  0.00  0.00    +0.000 C 
ENDROOT
BRANCH   1  15
ATOM     13  O   UNL     1      16.912  10.301  32.338  0.00  0.00    +0.000 OA
ATOM     14  C   UNL     1      16.341  11.213  32.987  0.00  0.00    +0.000 C 
ATOM     15  N   UNL     1      16.611  11.415  34.375  0.00  0.00    +0.000 NA
BRANCH  14  16
ATOM     16  C   UNL     1      15.371  12.094  32.308  0.00  0.00    +0.000 A 
ATOM     17  C   UNL     1      14.630  12.974  33.040  0.00  0.00    +0.000 A 
ATOM     18  C   UNL     1      13.734  13.785  32.407  0.00  0.00    +0.000 A 
ATOM     19  C   UNL     1      13.612  13.682  31.033  0.00  0.00    +0.000 A 
ATOM     20  N   UNL     1      14.344  12.815  30.316  0.00  0.00    +0.000 NA
ATOM     21  C   UNL     1      15.210  12.032  30.943  0.00  0.00    +0.000 A 
ENDBRANCH  14  16
ENDBRANCH   1  15
TORSDOF 2
ENDMDL
MODEL 2
REMARK VINA RESULT:      -6.8     28.417     30.887
REMARK  Name = 
REMARK  2 active torsions:
REMARK  status: ('A' for Active; 'I' for Inactive)
REMARK    1  A    between atoms: C_2  and  C_16
REMARK    2  A    between atoms: N_3  and  N_4
REMARK                            x       y       z     vdW  Elec       q    Type
REMARK                         _______ _______ _______ _____ _____    ______ ____
ROOT
ATOM      1  N   UNL     1      31.467  22.105   9.293  0.00  0.00    +0.000 NA
ATOM      2  C   UNL     1      32.680  21.850   9.474  0.00  0.00    +0.000 C 
ATOM      3  C   UNL     1      33.181  22.241  10.876  0.00  0.00    +0.000 C 
ATOM      4  C   UNL     1      33.650  20.720  11.319  0.00  0.00    +0.000 C 
ATOM      5  C   UNL     1      34.321  20.031  10.283  0.00  0.00    +0.000 C 
ATOM      6  C   UNL     1      33.791  19.812   8.991  0.00  0.00    +0.000 C 
ATOM      7  C   UNL     1      33.341  21.212   8.241  0.00  0.00    +0.000 C 
ATOM      8  C   UNL     1      34.815  21.924   8.313  0.00  0.00    +0.000 C 
ATOM      9  C   UNL     1      35.380  21.922   9.608  0.00  0.00    +0.000 C 
ATOM     10 CL   UNL     1      37.018  22.665   9.421  0.00  0.00    +0.000 Cl
ATOM     11  C   UNL     1      35.756  20.536  10.173  0.00  0.00    +0.000 C 
ATOM     12  C   UNL     1      34.680  22.775  10.495  0.00  0.00    +0.000 C 
ENDROOT
BRANCH   1  15
ATOM     13  O   UNL     1      29.463  20.615  10.390  0.00  0.00    +0.000 OA
ATOM     14  C   UNL     1      29.537  21.832  10.690  0.00  0.00    +0.000 C 
ATOM     15  N   UNL     1      30.563  22.667  10.150  0.00  0.00    +0.000 NA
BRANCH  14  16
ATOM     16  C   UNL     1      28.549  22.416  11.618  0.00  0.00    +0.000 A 
ATOM     17  C   UNL     1      28.977  23.079  12.731  0.00  0.00    +0.000 A 
ATOM     18  C   UNL     1      28.059  23.615  13.586  0.00  0.00    +0.000 A 
ATOM     19  C   UNL     1      26.717  23.467  13.286  0.00  0.00    +0.000 A 
ATOM     20  N   UNL     1      26.300  22.815  12.189  0.00  0.00    +0.000 NA
ATOM     21  C   UNL     1      27.202  22.297  11.367  0.00  0.00    +0.000 A 
ENDBRANCH  14  16
ENDBRANCH   1  15
TORSDOF 2
ENDMDL
MODEL 3
REMARK VINA RESULT:      -6.7     24.021     26.148
REMARK  Name = 
REMARK  2 active torsions:
REMARK  status: ('A' for Active; 'I' for Inactive)
REMARK    1  A    between atoms: C_2  and  C_16
REMARK    2  A    between atoms: N_3  and  N_4
REMARK                            x       y       z     vdW  Elec       q    Type
REMARK                         _______ _______ _______ _____ _____    ______ ____
ROOT
ATOM      1  N   UNL     1      30.192  26.763  19.636  0.00  0.00    +0.000 NA
ATOM      2  C   UNL     1      30.246  27.589  18.696  0.00  0.00    +0.000 C 
ATOM      3  C   UNL     1      29.013  28.509  18.624  0.00  0.00    +0.000 C 
ATOM      4  C   UNL     1      29.848  29.923  18.810  0.00  0.00    +0.000 C 
ATOM      5  C   UNL     1      31.042  29.957  18.055  0.00  0.00    +0.000 C 
ATOM      6  C   UNL     1      32.072  28.993  18.140  0.00  0.00    +0.000 C 
ATOM      7  C   UNL     1      31.533  27.458  17.866  0.00  0.00    +0.000 C 
ATOM      8  C   UNL     1      30.933  27.754  16.370  0.00  0.00    +0.000 C 
ATOM      9  C   UNL     1      30.066  28.867  16.319  0.00  0.00    +0.000 C 
ATOM     10 CL   UNL     1      29.613  29.049  14.578  0.00  0.00    +0.000 Cl
ATOM     11  C   UNL     1      30.719  30.238  16.591  0.00  0.00    +0.000 C 
ATOM     12  C   UNL     1      28.848  28.623  17.000  0.00  0.00    +0.000 C 
ENDROOT
BRANCH   1  15
ATOM     13  O   UNL     1      29.782  24.318  20.773  0.00  0.00    +0.000 OA
ATOM     14  C   UNL     1      29.051  25.274  21.131  0.00  0.00    +0.000 C 
ATOM     15  N   UNL     1      29.214  26.580  20.574  0.00  0.00    +0.000 NA
BRANCH  14  16
ATOM     16  C   UNL     1      28.003  25.053  22.146  0.00  0.00    +0.000 A 
ATOM     17  C   UNL     1      27.360  23.851  22.203  0.00  0.00    +0.000 A 
ATOM     18  C   UNL     1      26.392  23.653  23.143  0.00  0.00    +0.000 A 
ATOM     19  C   UNL     1      26.097  24.688  24.011  0.00  0.00    +0.000 A 
ATOM     20  N   UNL     1      26.732  25.870  23.952  0.00  0.00    +0.000 NA
ATOM     21  C   UNL     1      27.671  26.050  23.034  0.00  0.00    +0.000 A 
ENDBRANCH  14  16
ENDBRANCH   1  15
TORSDOF 2
ENDMDL
MODEL 4
REMARK VINA RESULT:      -6.7     28.400     30.906
REMARK  Name = 
REMARK  2 active torsions:
REMARK  status: ('A' for Active; 'I' for Inactive)
REMARK    1  A    between atoms: C_2  and  C_16
REMARK    2  A    between atoms: N_3  and  N_4
REMARK                            x       y       z     vdW  Elec       q    Type
REMARK                         _______ _______ _______ _____ _____    ______ ____
ROOT
ATOM      1  N   UNL     1      32.325  22.100  11.521  0.00  0.00    +0.000 NA
ATOM      2  C   UNL     1      33.097  21.773  10.591  0.00  0.00    +0.000 C 
ATOM      3  C   UNL     1      32.464  21.923   9.195  0.00  0.00    +0.000 C 
ATOM      4  C   UNL     1      33.573  23.005   8.621  0.00  0.00    +0.000 C 
ATOM      5  C   UNL     1      34.899  22.671   8.977  0.00  0.00    +0.000 C 
ATOM      6  C   UNL     1      35.346  22.465  10.302  0.00  0.00    +0.000 C 
ATOM      7  C   UNL     1      34.473  21.312  11.097  0.00  0.00    +0.000 C 
ATOM      8  C   UNL     1      34.775  20.105  10.030  0.00  0.00    +0.000 C 
ATOM      9  C   UNL     1      34.498  20.455   8.690  0.00  0.00    +0.000 C 
ATOM     10 CL   UNL     1      34.988  19.019   7.705  0.00  0.00    +0.000 Cl
ATOM     11  C   UNL     1      35.405  21.545   8.081  0.00  0.00    +0.000 C 
ATOM     12  C   UNL     1      33.110  20.613   8.457  0.00  0.00    +0.000 C 
ENDROOT
BRANCH   1  15
ATOM     13  O   UNL     1      30.550  21.552  13.518  0.00  0.00    +0.000 OA
ATOM     14  C   UNL     1      30.157  22.233  12.538  0.00  0.00    +0.000 C 
ATOM     15  N   UNL     1      31.038  22.554  11.460  0.00  0.00    +0.000 NA
BRANCH  14  16
ATOM     16  C   UNL     1      28.762  22.713  12.495  0.00  0.00    +0.000 A 
ATOM     17  C   UNL     1      28.300  23.538  13.478  0.00  0.00    +0.000 A 
ATOM     18  C   UNL     1      27.010  23.978  13.433  0.00  0.00    +0.000 A 
ATOM     19  C   UNL     1      26.212  23.567  12.380  0.00  0.00    +0.000 A 
ATOM     20  N   UNL     1      26.671  22.755  11.414  0.00  0.00    +0.000 NA
ATOM     21  C   UNL     1      27.927  22.334  11.470  0.00  0.00    +0.000 A 
ENDBRANCH  14  16
ENDBRANCH   1  15
TORSDOF 2
ENDMDL
MODEL 5
REMARK VINA RESULT:      -6.6      3.527      4.659
REMARK  Name = 
REMARK  2 active torsions:
REMARK  status: ('A' for Active; 'I' for Inactive)
REMARK    1  A    between atoms: C_2  and  C_16
REMARK    2  A    between atoms: N_3  and  N_4
REMARK                            x       y       z     vdW  Elec       q    Type
REMARK                         _______ _______ _______ _____ _____    ______ ____
ROOT
ATOM      1  N   UNL     1      17.637   9.510  39.211  0.00  0.00    +0.000 NA
ATOM      2  C   UNL     1      17.404   9.079  40.363  0.00  0.00    +0.000 C 
ATOM      3  C   UNL     1      16.049   9.548  40.924  0.00  0.00    +0.000 C 
ATOM      4  C   UNL     1      15.420   8.034  41.132  0.00  0.00    +0.000 C 
ATOM      5  C   UNL     1      16.353   7.123  41.676  0.00  0.00    +0.000 C 
ATOM      6  C   UNL     1      17.620   6.842  41.115  0.00  0.00    +0.000 C 
ATOM      7  C   UNL     1      18.539   8.196  40.906  0.00  0.00    +0.000 C 
ATOM      8  C   UNL     1      18.525   8.655  42.479  0.00  0.00    +0.000 C 
ATOM      9  C   UNL     1      17.229   8.715  43.037  0.00  0.00    +0.000 C 
ATOM     10 CL   UNL     1      17.471   9.146  44.777  0.00  0.00    +0.000 Cl
ATOM     11  C   UNL     1      16.496   7.364  43.175  0.00  0.00    +0.000 C 
ATOM     12  C   UNL     1      16.463   9.774  42.492  0.00  0.00    +0.000 C 
ENDROOT
BRANCH   1  15
ATOM     13  O   UNL     1      17.790   9.346  36.492  0.00  0.00    +0.000 OA
ATOM     14  C   UNL     1      16.998  10.179  36.998  0.00  0.00    +0.000 C 
ATOM     15  N   UNL     1      16.870  10.314  38.415  0.00  0.00    +0.000 NA
BRANCH  14  16
ATOM     16  C   UNL     1      16.180  11.036  36.118  0.00  0.00    +0.000 A 
ATOM     17  C   UNL     1      15.182  11.798  36.653  0.00  0.00    +0.000 A 
ATOM     18  C   UNL     1      14.429  12.587  35.834  0.00  0.00    +0.000 A 
ATOM     19  C   UNL     1      14.709  12.585  34.480  0.00  0.00    +0.000 A 
ATOM     20  N   UNL     1      15.692  11.834  33.957  0.00  0.00    +0.000 NA
ATOM     21  C   UNL     1      16.417  11.071  34.763  0.00  0.00    +0.000 A 
ENDBRANCH  14  16
ENDBRANCH   1  15
TORSDOF 2
ENDMDL
MODEL 6
REMARK VINA RESULT:      -6.6     21.516     23.923
REMARK  Name = 
REMARK  2 active torsions:
REMARK  status: ('A' for Active; 'I' for Inactive)
REMARK    1  A    between atoms: C_2  and  C_16
REMARK    2  A    between atoms: N_3  and  N_4
REMARK                            x       y       z     vdW  Elec       q    Type
REMARK                         _______ _______ _______ _____ _____    ______ ____
ROOT
ATOM      1  N   UNL     1      34.020  -5.403  32.376  0.00  0.00    +0.000 NA
ATOM      2  C   UNL     1      33.709  -6.157  31.426  0.00  0.00    +0.000 C 
ATOM      3  C   UNL     1      32.900  -5.444  30.326  0.00  0.00    +0.000 C 
ATOM      4  C   UNL     1      33.980  -5.732  29.109  0.00  0.00    +0.000 C 
ATOM      5  C   UNL     1      34.498  -7.046  29.136  0.00  0.00    +0.000 C 
ATOM      6  C   UNL     1      35.146  -7.629  30.249  0.00  0.00    +0.000 C 
ATOM      7  C   UNL     1      34.221  -7.593  31.616  0.00  0.00    +0.000 C 
ATOM      8  C   UNL     1      32.958  -8.428  30.988  0.00  0.00    +0.000 C 
ATOM      9  C   UNL     1      32.492  -7.906  29.761  0.00  0.00    +0.000 C 
ATOM     10 CL   UNL     1      31.179  -9.029  29.226  0.00  0.00    +0.000 Cl
ATOM     11  C   UNL     1      33.469  -8.019  28.571  0.00  0.00    +0.000 C 
ATOM     12  C   UNL     1      31.866  -6.647  29.921  0.00  0.00    +0.000 C 
ENDROOT
BRANCH   1  15
ATOM     13  O   UNL     1      33.593  -4.390  34.872  0.00  0.00    +0.000 OA
ATOM     14  C   UNL     1      33.530  -3.609  33.891  0.00  0.00    +0.000 C 
ATOM     15  N   UNL     1      33.744  -4.077  32.557  0.00  0.00    +0.000 NA
BRANCH  14  16
ATOM     16  C   UNL     1      33.231  -2.181  34.112  0.00  0.00    +0.000 A 
ATOM     17  C   UNL     1      33.879  -1.233  33.375  0.00  0.00    +0.000 A 
ATOM     18  C   UNL     1      33.599   0.085  33.585  0.00  0.00    +0.000 A 
ATOM     19  C   UNL     1      32.659   0.413  34.546  0.00  0.00    +0.000 A 
ATOM     20  N   UNL     1      32.024  -0.524  35.268  0.00  0.00    +0.000 NA
ATOM     21  C   UNL     1      32.305  -1.801  35.055  0.00  0.00    +0.000 A 
ENDBRANCH  14  16
ENDBRANCH   1  15
TORSDOF 2
ENDMDL
MODEL 7
REMARK VINA RESULT:      -6.5     22.234     23.592
REMARK  Name = 
REMARK  2 active torsions:
REMARK  status: ('A' for Active; 'I' for Inactive)
REMARK    1  A    between atoms: C_2  and  C_16
REMARK    2  A    between atoms: N_3  and  N_4
REMARK                            x       y       z     vdW  Elec       q    Type
REMARK                         _______ _______ _______ _____ _____    ______ ____
ROOT
ATOM      1  N   UNL     1      23.161  -8.871  25.196  0.00  0.00    +0.000 NA
ATOM      2  C   UNL     1      23.934  -8.918  24.212  0.00  0.00    +0.000 C 
ATOM      3  C   UNL     1      23.808  -7.696  23.283  0.00  0.00    +0.000 C 
ATOM      4  C   UNL     1      25.377  -7.202  23.439  0.00  0.00    +0.000 C 
ATOM      5  C   UNL     1      26.295  -8.276  23.394  0.00  0.00    +0.000 C 
ATOM      6  C   UNL     1      26.254  -9.402  24.247  0.00  0.00    +0.000 C 
ATOM      7  C   UNL     1      24.802 -10.186  24.198  0.00  0.00    +0.000 C 
ATOM      8  C   UNL     1      24.828 -10.491  22.589  0.00  0.00    +0.000 C 
ATOM      9  C   UNL     1      25.082  -9.347  21.801  0.00  0.00    +0.000 C 
ATOM     10 CL   UNL     1      25.154  -9.940  20.094  0.00  0.00    +0.000 Cl
ATOM     11  C   UNL     1      26.489  -8.730  21.951  0.00  0.00    +0.000 C 
ATOM     12  C   UNL     1      24.005  -8.429  21.833  0.00  0.00    +0.000 C 
ENDROOT
BRANCH   1  15
ATOM     13  O   UNL     1      20.570  -9.528  25.743  0.00  0.00    +0.000 OA
ATOM     14  C   UNL     1      20.910  -8.321  25.814  0.00  0.00    +0.000 C 
ATOM     15  N   UNL     1      22.252  -7.911  25.540  0.00  0.00    +0.000 NA
BRANCH  14  16
ATOM     16  C   UNL     1      19.911  -7.302  26.189  0.00  0.00    +0.000 A 
ATOM     17  C   UNL     1      20.111  -5.998  25.842  0.00  0.00    +0.000 A 
ATOM     18  C   UNL     1      19.184  -5.061  26.193  0.00  0.00    +0.000 A 
ATOM     19  C   UNL     1      18.065  -5.473  26.892  0.00  0.00    +0.000 A 
ATOM     20  N   UNL     1      17.871  -6.758  27.232  0.00  0.00    +0.000 NA
ATOM     21  C   UNL     1      18.779  -7.659  26.886  0.00  0.00    +0.000 A 
ENDBRANCH  14  16
ENDBRANCH   1  15
TORSDOF 2
ENDMDL
MODEL 8
REMARK VINA RESULT:      -6.4     20.142     21.458
REMARK  Name = 
REMARK  2 active torsions:
REMARK  status: ('A' for Active; 'I' for Inactive)
REMARK    1  A    between atoms: C_2  and  C_16
REMARK    2  A    between atoms: N_3  and  N_4
REMARK                            x       y       z     vdW  Elec       q    Type
REMARK                         _______ _______ _______ _____ _____    ______ ____
ROOT
ATOM      1  N   UNL     1      25.254   4.512  18.548  0.00  0.00    +0.000 NA
ATOM      2  C   UNL     1      26.168   5.001  17.845  0.00  0.00    +0.000 C 
ATOM      3  C   UNL     1      25.760   5.201  16.374  0.00  0.00    +0.000 C 
ATOM      4  C   UNL     1      26.005   6.836  16.352  0.00  0.00    +0.000 C 
ATOM      5  C   UNL     1      27.191   7.220  17.018  0.00  0.00    +0.000 C 
ATOM      6  C   UNL     1      27.499   6.893  18.358  0.00  0.00    +0.000 C 
ATOM      7  C   UNL     1      27.452   5.269  18.645  0.00  0.00    +0.000 C 
ATOM      8  C   UNL     1      28.573   4.866  17.519  0.00  0.00    +0.000 C 
ATOM      9  C   UNL     1      28.307   5.403  16.241  0.00  0.00    +0.000 C 
ATOM     10 CL   UNL     1      29.707   4.907  15.208  0.00  0.00    +0.000 Cl
ATOM     11  C   UNL     1      28.397   6.939  16.128  0.00  0.00    +0.000 C 
ATOM     12  C   UNL     1      27.170   4.810  15.641  0.00  0.00    +0.000 C 
ENDROOT
BRANCH   1  15
ATOM     13  O   UNL     1      24.541   1.883  18.411  0.00  0.00    +0.000 OA
ATOM     14  C   UNL     1      23.677   2.752  18.138  0.00  0.00    +0.000 C 
ATOM     15  N   UNL     1      23.987   4.147  18.191  0.00  0.00    +0.000 NA
BRANCH  14  16
ATOM     16  C   UNL     1      22.314   2.333  17.756  0.00  0.00    +0.000 A 
ATOM     17  C   UNL     1      21.237   3.025  18.226  0.00  0.00    +0.000 A 
ATOM     18  C   UNL     1      19.981   2.632  17.870  0.00  0.00    +0.000 A 
ATOM     19  C   UNL     1      19.846   1.536  17.037  0.00  0.00    +0.000 A 
ATOM     20  N   UNL     1      20.909   0.858  16.576  0.00  0.00    +0.000 NA
ATOM     21  C   UNL     1      22.125   1.250  16.930  0.00  0.00    +0.000 A 
ENDBRANCH  14  16
ENDBRANCH   1  15
TORSDOF 2
ENDMDL
MODEL 9
REMARK VINA RESULT:      -6.4     18.971     21.263
REMARK  Name = 
REMARK  2 active torsions:
REMARK  status: ('A' for Active; 'I' for Inactive)
REMARK    1  A    between atoms: C_2  and  C_16
REMARK    2  A    between atoms: N_3  and  N_4
REMARK                            x       y       z     vdW  Elec       q    Type
REMARK                         _______ _______ _______ _____ _____    ______ ____
ROOT
ATOM      1  N   UNL     1      25.647   4.157  16.682  0.00  0.00    +0.000 NA
ATOM      2  C   UNL     1      26.535   5.025  16.523  0.00  0.00    +0.000 C 
ATOM      3  C   UNL     1      26.009   6.465  16.666  0.00  0.00    +0.000 C 
ATOM      4  C   UNL     1      26.996   6.881  17.924  0.00  0.00    +0.000 C 
ATOM      5  C   UNL     1      28.321   6.419  17.755  0.00  0.00    +0.000 C 
ATOM      6  C   UNL     1      28.678   5.069  17.534  0.00  0.00    +0.000 C 
ATOM      7  C   UNL     1      27.914   4.415  16.226  0.00  0.00    +0.000 C 
ATOM      8  C   UNL     1      28.476   5.505  15.139  0.00  0.00    +0.000 C 
ATOM      9  C   UNL     1      28.268   6.847  15.527  0.00  0.00    +0.000 C 
ATOM     10 CL   UNL     1      29.042   7.848  14.235  0.00  0.00    +0.000 Cl
ATOM     11  C   UNL     1      29.058   7.316  16.766  0.00  0.00    +0.000 C 
ATOM     12  C   UNL     1      26.897   7.201  15.505  0.00  0.00    +0.000 C 
ENDROOT
BRANCH   1  15
ATOM     13  O   UNL     1      24.544   3.086  18.935  0.00  0.00    +0.000 OA
ATOM     14  C   UNL     1      23.801   3.731  18.154  0.00  0.00    +0.000 C 
ATOM     15  N   UNL     1      24.318   4.317  16.957  0.00  0.00    +0.000 NA
BRANCH  14  16
ATOM     16  C   UNL     1      22.369   3.891  18.472  0.00  0.00    +0.000 A 
ATOM     17  C   UNL     1      21.962   4.935  19.250  0.00  0.00    +0.000 A 
ATOM     18  C   UNL     1      20.637   5.077  19.541  0.00  0.00    +0.000 A 
ATOM     19  C   UNL     1      19.749   4.147  19.032  0.00  0.00    +0.000 A 
ATOM     20  N   UNL     1      20.154   3.120  18.267  0.00  0.00    +0.000 NA
ATOM     21  C   UNL     1      21.444   2.994  17.991  0.00  0.00    +0.000 A 
ENDBRANCH  14  16
ENDBRANCH   1  15
TORSDOF 2
ENDMDL
MODEL 10
REMARK VINA RESULT:      -6.4      3.135      4.590
REMARK  Name = 
REMARK  2 active torsions:
REMARK  status: ('A' for Active; 'I' for Inactive)
REMARK    1  A    between atoms: C_2  and  C_16
REMARK    2  A    between atoms: N_3  and  N_4
REMARK                            x       y       z     vdW  Elec       q    Type
REMARK                         _______ _______ _______ _____ _____    ______ ____
ROOT
ATOM      1  N   UNL     1      20.058  10.072  37.103  0.00  0.00    +0.000 NA
ATOM      2  C   UNL     1      21.155  10.464  37.562  0.00  0.00    +0.000 C 
ATOM      3  C   UNL     1      21.014  11.616  38.574  0.00  0.00    +0.000 C 
ATOM      4  C   UNL     1      21.716  10.817  39.839  0.00  0.00    +0.000 C 
ATOM      5  C   UNL     1      22.866  10.091  39.456  0.00  0.00    +0.000 C 
ATOM      6  C   UNL     1      22.895   9.111  38.436  0.00  0.00    +0.000 C 
ATOM      7  C   UNL     1      22.349   9.685  36.988  0.00  0.00    +0.000 C 
ATOM      8  C   UNL     1      23.443  10.899  36.863  0.00  0.00    +0.000 C 
ATOM      9  C   UNL     1      23.508  11.719  38.010  0.00  0.00    +0.000 C 
ATOM     10 CL   UNL     1      24.828  12.911  37.679  0.00  0.00    +0.000 Cl
ATOM     11  C   UNL     1      24.046  11.043  39.288  0.00  0.00    +0.000 C 
ATOM     12  C   UNL     1      22.335  12.496  38.176  0.00  0.00    +0.000 C 
ENDROOT
BRANCH   1  15
ATOM     13  O   UNL     1      18.110  10.015  35.194  0.00  0.00    +0.000 OA
ATOM     14  C   UNL     1      17.820  10.463  36.332  0.00  0.00    +0.000 C 
ATOM     15  N   UNL     1      18.795  10.519  37.375  0.00  0.00    +0.000 NA
BRANCH  14  16
ATOM     16  C   UNL     1      16.450  10.939  36.602  0.00  0.00    +0.000 A 
ATOM     17  C   UNL     1      15.923  10.808  37.853  0.00  0.00    +0.000 A 
ATOM     18  C   UNL     1      14.655  11.249  38.095  0.00  0.00    +0.000 A 
ATOM     19  C   UNL     1      13.947  11.819  37.053  0.00  0.00    +0.000 A 
ATOM     20  N   UNL     1      14.470  11.947  35.823  0.00  0.00    +0.000 NA
ATOM     21  C   UNL     1      15.702  11.514  35.600  0.00  0.00    +0.000 A 
ENDBRANCH  14  16
ENDBRANCH   1  15
TORSDOF 2
ENDMDL
