MODEL 1
REMARK VINA RESULT:      -6.2      0.000      0.000
REMARK  Name = 
REMARK  3 active torsions:
REMARK  status: ('A' for Active; 'I' for Inactive)
REMARK    1  A    between atoms: C_6  and  N_7
REMARK    2  A    between atoms: N_7  and  C_8
REMARK    3  A    between atoms: C_11  and  C_12
REMARK                            x       y       z     vdW  Elec       q    Type
REMARK                         _______ _______ _______ _____ _____    ______ ____
ROOT
ATOM      1  C   UNL     1      24.703  25.916  30.902  0.00  0.00    +0.000 C 
ATOM      2  C   UNL     1      25.522  25.166  29.885  0.00  0.00    +0.000 A 
ATOM      3  C   UNL     1      26.090  23.958  30.164  0.00  0.00    +0.000 A 
ATOM      4  C   UNL     1      26.820  23.350  29.170  0.00  0.00    +0.000 A 
ATOM      5  N   UNL     1      26.971  23.924  27.965  0.00  0.00    +0.000 N 
ATOM      6  C   UNL     1      27.648  23.500  26.841  0.00  0.00    +0.000 A 
ATOM      7  C   UNL     1      27.502  24.443  25.866  0.00  0.00    +0.000 A 
ATOM      8  N   UNL     1      26.733  25.422  26.428  0.00  0.00    +0.000 NA
ATOM      9  C   UNL     1      26.417  25.107  27.685  0.00  0.00    +0.000 A 
ATOM     10  C   UNL     1      25.660  25.775  28.661  0.00  0.00    +0.000 A 
ENDROOT
BRANCH   7  11
ATOM     11  C   UNL     1      28.041  24.459  24.503  0.00  0.00    +0.000 A 
ATOM     12  C   UNL     1      27.627  23.612  23.497  0.00  0.00    +0.000 A 
ATOM     13  C   UNL     1      28.168  23.668  22.225  0.00  0.00    +0.000 A 
ATOM     14  C   UNL     1      29.151  24.575  21.895  0.00  0.00    +0.000 A 
ATOM     15  O   UNL     1      29.701  24.634  20.609  0.00  0.00    +0.000 OA
ATOM     16  C   UNL     1      29.567  25.424  22.898  0.00  0.00    +0.000 A 
ATOM     17  C   UNL     1      29.026  25.367  24.167  0.00  0.00    +0.000 A 
ENDBRANCH   7  11
BRANCH   6  18
ATOM     18  N   UNL     1      28.354  22.286  26.789  0.00  0.00    +0.000 NA
BRANCH  18  19
ATOM     19  C   UNL     1      29.763  22.134  26.942  0.00  0.00    +0.000 C 
ATOM     20  C   UNL     1      30.419  22.173  25.549  0.00  0.00    +0.000 C 
ATOM     21  C   UNL     1      30.348  23.341  27.721  0.00  0.00    +0.000 C 
ENDBRANCH  18  19
ENDBRANCH   6  18
TORSDOF 3
ENDMDL
MODEL 2
REMARK VINA RESULT:      -6.0      2.609      5.026
REMARK  Name = 
REMARK  3 active torsions:
REMARK  status: ('A' for Active; 'I' for Inactive)
REMARK    1  A    between atoms: C_6  and  N_7
REMARK    2  A    between atoms: N_7  and  C_8
REMARK    3  A    between atoms: C_11  and  C_12
REMARK                            x       y       z     vdW  Elec       q    Type
REMARK                         _______ _______ _______ _____ _____    ______ ____
ROOT
ATOM      1  C   UNL     1      33.855  20.938  31.417  0.00  0.00    +0.000 C 
ATOM      2  C   UNL     1      32.641  21.561  30.781  0.00  0.00    +0.000 A 
ATOM      3  C   UNL     1      31.735  22.279  31.505  0.00  0.00    +0.000 A 
ATOM      4  C   UNL     1      30.657  22.810  30.836  0.00  0.00    +0.000 A 
ATOM      5  N   UNL     1      30.499  22.629  29.514  0.00  0.00    +0.000 N 
ATOM      6  C   UNL     1      29.512  23.063  28.655  0.00  0.00    +0.000 A 
ATOM      7  C   UNL     1      29.803  22.615  27.400  0.00  0.00    +0.000 A 
ATOM      8  N   UNL     1      30.969  21.915  27.531  0.00  0.00    +0.000 NA
ATOM      9  C   UNL     1      31.382  21.926  28.799  0.00  0.00    +0.000 A 
ATOM     10  C   UNL     1      32.503  21.360  29.428  0.00  0.00    +0.000 A 
ENDROOT
BRANCH   7  11
ATOM     11  C   UNL     1      29.057  22.802  26.152  0.00  0.00    +0.000 A 
ATOM     12  C   UNL     1      27.681  22.881  26.077  0.00  0.00    +0.000 A 
ATOM     13  C   UNL     1      27.025  23.059  24.872  0.00  0.00    +0.000 A 
ATOM     14  C   UNL     1      27.711  23.168  23.682  0.00  0.00    +0.000 A 
ATOM     15  O   UNL     1      27.049  23.349  22.462  0.00  0.00    +0.000 OA
ATOM     16  C   UNL     1      29.084  23.091  23.754  0.00  0.00    +0.000 A 
ATOM     17  C   UNL     1      29.739  22.912  24.957  0.00  0.00    +0.000 A 
ENDBRANCH   7  11
BRANCH   6  18
ATOM     18  N   UNL     1      28.416  23.832  29.080  0.00  0.00    +0.000 NA
BRANCH  18  19
ATOM     19  C   UNL     1      27.354  23.380  29.917  0.00  0.00    +0.000 C 
ATOM     20  C   UNL     1      26.055  24.093  29.498  0.00  0.00    +0.000 C 
ATOM     21  C   UNL     1      27.102  21.867  29.686  0.00  0.00    +0.000 C 
ENDBRANCH  18  19
ENDBRANCH   6  18
TORSDOF 3
ENDMDL
MODEL 3
REMARK VINA RESULT:      -5.8      3.231      6.139
REMARK  Name = 
REMARK  3 active torsions:
REMARK  status: ('A' for Active; 'I' for Inactive)
REMARK    1  A    between atoms: C_6  and  N_7
REMARK    2  A    between atoms: N_7  and  C_8
REMARK    3  A    between atoms: C_11  and  C_12
REMARK                            x       y       z     vdW  Elec       q    Type
REMARK                         _______ _______ _______ _____ _____    ______ ____
ROOT
ATOM      1  C   UNL     1      26.950  23.668  22.187  0.00  0.00    +0.000 C 
ATOM      2  C   UNL     1      27.349  23.346  23.603  0.00  0.00    +0.000 A 
ATOM      3  C   UNL     1      26.426  23.068  24.568  0.00  0.00    +0.000 A 
ATOM      4  C   UNL     1      26.887  22.785  25.832  0.00  0.00    +0.000 A 
ATOM      5  N   UNL     1      28.201  22.781  26.110  0.00  0.00    +0.000 N 
ATOM      6  C   UNL     1      28.874  22.528  27.287  0.00  0.00    +0.000 A 
ATOM      7  C   UNL     1      30.213  22.650  27.054  0.00  0.00    +0.000 A 
ATOM      8  N   UNL     1      30.318  22.974  25.731  0.00  0.00    +0.000 NA
ATOM      9  C   UNL     1      29.110  23.051  25.170  0.00  0.00    +0.000 A 
ATOM     10  C   UNL     1      28.699  23.348  23.860  0.00  0.00    +0.000 A 
ENDROOT
BRANCH   7  11
ATOM     11  C   UNL     1      31.334  22.490  27.984  0.00  0.00    +0.000 A 
ATOM     12  C   UNL     1      31.736  21.281  28.513  0.00  0.00    +0.000 A 
ATOM     13  C   UNL     1      32.803  21.184  29.388  0.00  0.00    +0.000 A 
ATOM     14  C   UNL     1      33.522  22.293  29.779  0.00  0.00    +0.000 A 
ATOM     15  O   UNL     1      34.602  22.198  30.665  0.00  0.00    +0.000 OA
ATOM     16  C   UNL     1      33.124  23.502  29.253  0.00  0.00    +0.000 A 
ATOM     17  C   UNL     1      32.058  23.597  28.379  0.00  0.00    +0.000 A 
ENDBRANCH   7  11
BRANCH   6  18
ATOM     18  N   UNL     1      28.217  22.211  28.487  0.00  0.00    +0.000 NA
BRANCH  18  19
ATOM     19  C   UNL     1      27.802  23.143  29.483  0.00  0.00    +0.000 C 
ATOM     20  C   UNL     1      26.430  22.706  30.029  0.00  0.00    +0.000 C 
ATOM     21  C   UNL     1      28.774  23.099  30.691  0.00  0.00    +0.000 C 
ENDBRANCH  18  19
ENDBRANCH   6  18
TORSDOF 3
ENDMDL
MODEL 4
REMARK VINA RESULT:      -5.6      3.290      5.303
REMARK  Name = 
REMARK  3 active torsions:
REMARK  status: ('A' for Active; 'I' for Inactive)
REMARK    1  A    between atoms: C_6  and  N_7
REMARK    2  A    between atoms: N_7  and  C_8
REMARK    3  A    between atoms: C_11  and  C_12
REMARK                            x       y       z     vdW  Elec       q    Type
REMARK                         _______ _______ _______ _____ _____    ______ ____
ROOT
ATOM      1  C   UNL     1      33.887  21.318  30.989  0.00  0.00    +0.000 C 
ATOM      2  C   UNL     1      33.290  22.131  29.871  0.00  0.00    +0.000 A 
ATOM      3  C   UNL     1      33.798  23.344  29.510  0.00  0.00    +0.000 A 
ATOM      4  C   UNL     1      33.184  24.013  28.477  0.00  0.00    +0.000 A 
ATOM      5  N   UNL     1      32.121  23.491  27.843  0.00  0.00    +0.000 N 
ATOM      6  C   UNL     1      31.363  23.979  26.799  0.00  0.00    +0.000 A 
ATOM      7  C   UNL     1      30.385  23.072  26.514  0.00  0.00    +0.000 A 
ATOM      8  N   UNL     1      30.578  22.048  27.397  0.00  0.00    +0.000 NA
ATOM      9  C   UNL     1      31.618  22.304  28.192  0.00  0.00    +0.000 A 
ATOM     10  C   UNL     1      32.203  21.575  29.240  0.00  0.00    +0.000 A 
ENDROOT
BRANCH   7  11
ATOM     11  C   UNL     1      29.328  23.136  25.500  0.00  0.00    +0.000 A 
ATOM     12  C   UNL     1      27.979  23.109  25.786  0.00  0.00    +0.000 A 
ATOM     13  C   UNL     1      27.020  23.173  24.791  0.00  0.00    +0.000 A 
ATOM     14  C   UNL     1      27.362  23.268  23.460  0.00  0.00    +0.000 A 
ATOM     15  O   UNL     1      26.394  23.333  22.451  0.00  0.00    +0.000 OA
ATOM     16  C   UNL     1      28.709  23.296  23.171  0.00  0.00    +0.000 A 
ATOM     17  C   UNL     1      29.665  23.232  24.165  0.00  0.00    +0.000 A 
ENDBRANCH   7  11
BRANCH   6  18
ATOM     18  N   UNL     1      31.616  25.219  26.188  0.00  0.00    +0.000 NA
BRANCH  18  19
ATOM     19  C   UNL     1      32.581  25.465  25.168  0.00  0.00    +0.000 C 
ATOM     20  C   UNL     1      33.754  26.255  25.776  0.00  0.00    +0.000 C 
ATOM     21  C   UNL     1      33.183  24.125  24.672  0.00  0.00    +0.000 C 
ENDBRANCH  18  19
ENDBRANCH   6  18
TORSDOF 3
ENDMDL
MODEL 5
REMARK VINA RESULT:      -5.5      3.917      6.156
REMARK  Name = 
REMARK  3 active torsions:
REMARK  status: ('A' for Active; 'I' for Inactive)
REMARK    1  A    between atoms: C_6  and  N_7
REMARK    2  A    between atoms: N_7  and  C_8
REMARK    3  A    between atoms: C_11  and  C_12
REMARK                            x       y       z     vdW  Elec       q    Type
REMARK                         _______ _______ _______ _____ _____    ______ ____
ROOT
ATOM      1  C   UNL     1      25.346  23.163  23.643  0.00  0.00    +0.000 C 
ATOM      2  C   UNL     1      26.805  23.169  24.015  0.00  0.00    +0.000 A 
ATOM      3  C   UNL     1      27.787  23.340  23.084  0.00  0.00    +0.000 A 
ATOM      4  C   UNL     1      29.091  23.330  23.520  0.00  0.00    +0.000 A 
ATOM      5  N   UNL     1      29.391  23.159  24.818  0.00  0.00    +0.000 N 
ATOM      6  C   UNL     1      30.608  23.116  25.467  0.00  0.00    +0.000 A 
ATOM      7  C   UNL     1      30.382  22.918  26.797  0.00  0.00    +0.000 A 
ATOM      8  N   UNL     1      29.024  22.847  26.924  0.00  0.00    +0.000 NA
ATOM      9  C   UNL     1      28.434  22.991  25.736  0.00  0.00    +0.000 A 
ATOM     10  C   UNL     1      27.084  22.992  25.349  0.00  0.00    +0.000 A 
ENDROOT
BRANCH   7  11
ATOM     11  C   UNL     1      31.348  22.791  27.893  0.00  0.00    +0.000 A 
ATOM     12  C   UNL     1      31.811  21.586  28.381  0.00  0.00    +0.000 A 
ATOM     13  C   UNL     1      32.724  21.520  29.417  0.00  0.00    +0.000 A 
ATOM     14  C   UNL     1      33.222  22.656  30.018  0.00  0.00    +0.000 A 
ATOM     15  O   UNL     1      34.146  22.592  31.067  0.00  0.00    +0.000 OA
ATOM     16  C   UNL     1      32.763  23.861  29.532  0.00  0.00    +0.000 A 
ATOM     17  C   UNL     1      31.850  23.925  28.497  0.00  0.00    +0.000 A 
ENDBRANCH   7  11
BRANCH   6  18
ATOM     18  N   UNL     1      31.834  23.256  24.795  0.00  0.00    +0.000 NA
BRANCH  18  19
ATOM     19  C   UNL     1      32.538  24.478  24.588  0.00  0.00    +0.000 C 
ATOM     20  C   UNL     1      31.655  25.645  25.069  0.00  0.00    +0.000 C 
ATOM     21  C   UNL     1      33.811  24.515  25.472  0.00  0.00    +0.000 C 
ENDBRANCH  18  19
ENDBRANCH   6  18
TORSDOF 3
ENDMDL
MODEL 6
REMARK VINA RESULT:      -5.4      1.957      2.919
REMARK  Name = 
REMARK  3 active torsions:
REMARK  status: ('A' for Active; 'I' for Inactive)
REMARK    1  A    between atoms: C_6  and  N_7
REMARK    2  A    between atoms: N_7  and  C_8
REMARK    3  A    between atoms: C_11  and  C_12
REMARK                            x       y       z     vdW  Elec       q    Type
REMARK                         _______ _______ _______ _____ _____    ______ ____
ROOT
ATOM      1  C   UNL     1      21.933  27.596  31.181  0.00  0.00    +0.000 C 
ATOM      2  C   UNL     1      23.035  26.855  30.472  0.00  0.00    +0.000 A 
ATOM      3  C   UNL     1      24.093  26.317  31.145  0.00  0.00    +0.000 A 
ATOM      4  C   UNL     1      25.050  25.658  30.411  0.00  0.00    +0.000 A 
ATOM      5  N   UNL     1      24.950  25.545  29.076  0.00  0.00    +0.000 N 
ATOM      6  C   UNL     1      25.779  24.937  28.156  0.00  0.00    +0.000 A 
ATOM      7  C   UNL     1      25.237  25.098  26.914  0.00  0.00    +0.000 A 
ATOM      8  N   UNL     1      24.085  25.803  27.114  0.00  0.00    +0.000 NA
ATOM      9  C   UNL     1      23.917  26.069  28.411  0.00  0.00    +0.000 A 
ATOM     10  C   UNL     1      22.908  26.754  29.107  0.00  0.00    +0.000 A 
ENDROOT
BRANCH   7  11
ATOM     11  C   UNL     1      25.745  24.644  25.616  0.00  0.00    +0.000 A 
ATOM     12  C   UNL     1      25.565  23.372  25.115  0.00  0.00    +0.000 A 
ATOM     13  C   UNL     1      26.065  22.994  23.883  0.00  0.00    +0.000 A 
ATOM     14  C   UNL     1      26.771  23.870  23.087  0.00  0.00    +0.000 A 
ATOM     15  O   UNL     1      27.277  23.490  21.839  0.00  0.00    +0.000 OA
ATOM     16  C   UNL     1      26.952  25.142  23.583  0.00  0.00    +0.000 A 
ATOM     17  C   UNL     1      26.452  25.519  24.815  0.00  0.00    +0.000 A 
ENDBRANCH   7  11
BRANCH   6  18
ATOM     18  N   UNL     1      26.970  24.286  28.518  0.00  0.00    +0.000 NA
BRANCH  18  19
ATOM     19  C   UNL     1      27.147  22.877  28.640  0.00  0.00    +0.000 C 
ATOM     20  C   UNL     1      28.132  22.405  27.554  0.00  0.00    +0.000 C 
ATOM     21  C   UNL     1      27.817  22.541  29.997  0.00  0.00    +0.000 C 
ENDBRANCH  18  19
ENDBRANCH   6  18
TORSDOF 3
ENDMDL
MODEL 7
REMARK VINA RESULT:      -5.4      2.045      2.880
REMARK  Name = 
REMARK  3 active torsions:
REMARK  status: ('A' for Active; 'I' for Inactive)
REMARK    1  A    between atoms: C_6  and  N_7
REMARK    2  A    between atoms: N_7  and  C_8
REMARK    3  A    between atoms: C_11  and  C_12
REMARK                            x       y       z     vdW  Elec       q    Type
REMARK                         _______ _______ _______ _____ _____    ______ ____
ROOT
ATOM      1  C   UNL     1      21.196  26.805  28.031  0.00  0.00    +0.000 C 
ATOM      2  C   UNL     1      22.628  26.498  27.679  0.00  0.00    +0.000 A 
ATOM      3  C   UNL     1      23.597  26.381  28.632  0.00  0.00    +0.000 A 
ATOM      4  C   UNL     1      24.876  26.100  28.213  0.00  0.00    +0.000 A 
ATOM      5  N   UNL     1      25.164  25.945  26.910  0.00  0.00    +0.000 N 
ATOM      6  C   UNL     1      26.356  25.663  26.277  0.00  0.00    +0.000 A 
ATOM      7  C   UNL     1      26.129  25.607  24.933  0.00  0.00    +0.000 A 
ATOM      8  N   UNL     1      24.794  25.855  24.785  0.00  0.00    +0.000 NA
ATOM      9  C   UNL     1      24.220  26.057  25.972  0.00  0.00    +0.000 A 
ATOM     10  C   UNL     1      22.896  26.344  26.340  0.00  0.00    +0.000 A 
ENDROOT
BRANCH   7  11
ATOM     11  C   UNL     1      27.075  25.351  23.842  0.00  0.00    +0.000 A 
ATOM     12  C   UNL     1      28.027  26.253  23.415  0.00  0.00    +0.000 A 
ATOM     13  C   UNL     1      28.897  25.962  22.380  0.00  0.00    +0.000 A 
ATOM     14  C   UNL     1      28.860  24.753  21.721  0.00  0.00    +0.000 A 
ATOM     15  O   UNL     1      29.740  24.456  20.673  0.00  0.00    +0.000 OA
ATOM     16  C   UNL     1      27.912  23.849  22.145  0.00  0.00    +0.000 A 
ATOM     17  C   UNL     1      27.043  24.141  23.178  0.00  0.00    +0.000 A 
ENDBRANCH   7  11
BRANCH   6  18
ATOM     18  N   UNL     1      27.565  25.485  26.971  0.00  0.00    +0.000 NA
BRANCH  18  19
ATOM     19  C   UNL     1      28.172  24.232  27.281  0.00  0.00    +0.000 C 
ATOM     20  C   UNL     1      27.123  23.118  27.110  0.00  0.00    +0.000 C 
ATOM     21  C   UNL     1      29.295  23.919  26.258  0.00  0.00    +0.000 C 
ENDBRANCH  18  19
ENDBRANCH   6  18
TORSDOF 3
ENDMDL
MODEL 8
REMARK VINA RESULT:      -5.3     26.632     28.884
REMARK  Name = 
REMARK  3 active torsions:
REMARK  status: ('A' for Active; 'I' for Inactive)
REMARK    1  A    between atoms: C_6  and  N_7
REMARK    2  A    between atoms: N_7  and  C_8
REMARK    3  A    between atoms: C_11  and  C_12
REMARK                            x       y       z     vdW  Elec       q    Type
REMARK                         _______ _______ _______ _____ _____    ______ ____
ROOT
ATOM      1  C   UNL     1      30.751  -7.580  36.477  0.00  0.00    +0.000 C 
ATOM      2  C   UNL     1      31.666  -6.390  36.373  0.00  0.00    +0.000 A 
ATOM      3  C   UNL     1      32.787  -6.271  37.142  0.00  0.00    +0.000 A 
ATOM      4  C   UNL     1      33.561  -5.147  36.975  0.00  0.00    +0.000 A 
ATOM      5  N   UNL     1      33.228  -4.197  36.086  0.00  0.00    +0.000 N 
ATOM      6  C   UNL     1      33.848  -3.009  35.758  0.00  0.00    +0.000 A 
ATOM      7  C   UNL     1      33.114  -2.391  34.789  0.00  0.00    +0.000 A 
ATOM      8  N   UNL     1      32.060  -3.226  34.550  0.00  0.00    +0.000 NA
ATOM      9  C   UNL     1      32.132  -4.307  35.329  0.00  0.00    +0.000 A 
ATOM     10  C   UNL     1      31.303  -5.433  35.456  0.00  0.00    +0.000 A 
ENDROOT
BRANCH   7  11
ATOM     11  C   UNL     1      33.351  -1.106  34.124  0.00  0.00    +0.000 A 
ATOM     12  C   UNL     1      34.249  -0.922  33.093  0.00  0.00    +0.000 A 
ATOM     13  C   UNL     1      34.435   0.313  32.498  0.00  0.00    +0.000 A 
ATOM     14  C   UNL     1      33.733   1.426  32.904  0.00  0.00    +0.000 A 
ATOM     15  O   UNL     1      33.920   2.677  32.304  0.00  0.00    +0.000 OA
ATOM     16  C   UNL     1      32.835   1.246  33.933  0.00  0.00    +0.000 A 
ATOM     17  C   UNL     1      32.650   0.013  34.527  0.00  0.00    +0.000 A 
ENDBRANCH   7  11
BRANCH   6  18
ATOM     18  N   UNL     1      35.034  -2.575  36.373  0.00  0.00    +0.000 NA
BRANCH  18  19
ATOM     19  C   UNL     1      35.122  -1.686  37.484  0.00  0.00    +0.000 C 
ATOM     20  C   UNL     1      35.540  -0.295  36.973  0.00  0.00    +0.000 C 
ATOM     21  C   UNL     1      33.723  -1.499  38.127  0.00  0.00    +0.000 C 
ENDBRANCH  18  19
ENDBRANCH   6  18
TORSDOF 3
ENDMDL
MODEL 9
REMARK VINA RESULT:      -5.1      3.478      6.585
REMARK  Name = 
REMARK  3 active torsions:
REMARK  status: ('A' for Active; 'I' for Inactive)
REMARK    1  A    between atoms: C_6  and  N_7
REMARK    2  A    between atoms: N_7  and  C_8
REMARK    3  A    between atoms: C_11  and  C_12
REMARK                            x       y       z     vdW  Elec       q    Type
REMARK                         _______ _______ _______ _____ _____    ______ ____
ROOT
ATOM      1  C   UNL     1      28.555  23.557  22.561  0.00  0.00    +0.000 C 
ATOM      2  C   UNL     1      27.870  23.640  23.900  0.00  0.00    +0.000 A 
ATOM      3  C   UNL     1      28.246  22.857  24.952  0.00  0.00    +0.000 A 
ATOM      4  C   UNL     1      27.561  23.004  26.135  0.00  0.00    +0.000 A 
ATOM      5  N   UNL     1      26.557  23.888  26.254  0.00  0.00    +0.000 N 
ATOM      6  C   UNL     1      25.748  24.198  27.328  0.00  0.00    +0.000 A 
ATOM      7  C   UNL     1      24.871  25.169  26.943  0.00  0.00    +0.000 A 
ATOM      8  N   UNL     1      25.174  25.428  25.637  0.00  0.00    +0.000 NA
ATOM      9  C   UNL     1      26.184  24.659  25.228  0.00  0.00    +0.000 A 
ATOM     10  C   UNL     1      26.847  24.552  23.995  0.00  0.00    +0.000 A 
ENDROOT
BRANCH   7  11
ATOM     11  C   UNL     1      23.810  25.820  27.718  0.00  0.00    +0.000 A 
ATOM     12  C   UNL     1      22.511  25.969  27.278  0.00  0.00    +0.000 A 
ATOM     13  C   UNL     1      21.545  26.591  28.049  0.00  0.00    +0.000 A 
ATOM     14  C   UNL     1      21.830  27.095  29.299  0.00  0.00    +0.000 A 
ATOM     15  O   UNL     1      20.855  27.725  30.081  0.00  0.00    +0.000 OA
ATOM     16  C   UNL     1      23.126  26.947  29.742  0.00  0.00    +0.000 A 
ATOM     17  C   UNL     1      24.089  26.326  28.971  0.00  0.00    +0.000 A 
ENDBRANCH   7  11
BRANCH   6  18
ATOM     18  N   UNL     1      25.866  23.566  28.577  0.00  0.00    +0.000 NA
BRANCH  18  19
ATOM     19  C   UNL     1      26.931  23.749  29.508  0.00  0.00    +0.000 C 
ATOM     20  C   UNL     1      26.348  24.290  30.826  0.00  0.00    +0.000 C 
ATOM     21  C   UNL     1      27.573  22.381  29.857  0.00  0.00    +0.000 C 
ENDBRANCH  18  19
ENDBRANCH   6  18
TORSDOF 3
ENDMDL
MODEL 10
REMARK VINA RESULT:      -5.1      1.867      2.462
REMARK  Name = 
REMARK  3 active torsions:
REMARK  status: ('A' for Active; 'I' for Inactive)
REMARK    1  A    between atoms: C_6  and  N_7
REMARK    2  A    between atoms: N_7  and  C_8
REMARK    3  A    between atoms: C_11  and  C_12
REMARK                            x       y       z     vdW  Elec       q    Type
REMARK                         _______ _______ _______ _____ _____    ______ ____
ROOT
ATOM      1  C   UNL     1      27.041  26.635  32.530  0.00  0.00    +0.000 C 
ATOM      2  C   UNL     1      27.390  25.803  31.325  0.00  0.00    +0.000 A 
ATOM      3  C   UNL     1      28.347  24.832  31.370  0.00  0.00    +0.000 A 
ATOM      4  C   UNL     1      28.595  24.124  30.218  0.00  0.00    +0.000 A 
ATOM      5  N   UNL     1      27.920  24.377  29.085  0.00  0.00    +0.000 N 
ATOM      6  C   UNL     1      28.004  23.800  27.835  0.00  0.00    +0.000 A 
ATOM      7  C   UNL     1      27.102  24.412  27.015  0.00  0.00    +0.000 A 
ATOM      8  N   UNL     1      26.488  25.350  27.794  0.00  0.00    +0.000 NA
ATOM      9  C   UNL     1      26.981  25.326  29.033  0.00  0.00    +0.000 A 
ATOM     10  C   UNL     1      26.684  26.082  30.179  0.00  0.00    +0.000 A 
ENDROOT
BRANCH   7  11
ATOM     11  C   UNL     1      26.820  24.164  25.597  0.00  0.00    +0.000 A 
ATOM     12  C   UNL     1      27.451  24.815  24.557  0.00  0.00    +0.000 A 
ATOM     13  C   UNL     1      27.149  24.543  23.235  0.00  0.00    +0.000 A 
ATOM     14  C   UNL     1      26.201  23.606  22.886  0.00  0.00    +0.000 A 
ATOM     15  O   UNL     1      25.893  23.330  21.549  0.00  0.00    +0.000 OA
ATOM     16  C   UNL     1      25.570  22.954  23.922  0.00  0.00    +0.000 A 
ATOM     17  C   UNL     1      25.872  23.226  25.242  0.00  0.00    +0.000 A 
ENDBRANCH   7  11
BRANCH   6  18
ATOM     18  N   UNL     1      28.901  22.761  27.534  0.00  0.00    +0.000 NA
BRANCH  18  19
ATOM     19  C   UNL     1      30.179  22.914  26.922  0.00  0.00    +0.000 C 
ATOM     20  C   UNL     1      31.204  22.065  27.696  0.00  0.00    +0.000 C 
ATOM     21  C   UNL     1      30.151  22.339  25.482  0.00  0.00    +0.000 C 
ENDBRANCH  18  19
ENDBRANCH   6  18
TORSDOF 3
ENDMDL
