MODEL 1
REMARK VINA RESULT:      -8.6      0.000      0.000
REMARK  Name = 
REMARK  7 active torsions:
REMARK  status: ('A' for Active; 'I' for Inactive)
REMARK    1  A    between atoms: C_2  and  N_3
REMARK    2  A    between atoms: C_2  and  C_26
REMARK    3  A    between atoms: C_4  and  C_6
REMARK    4  A    between atoms: C_11  and  O_12
REMARK    5  A    between atoms: O_12  and  C_13
REMARK    6  A    between atoms: C_13  and  C_14
REMARK    7  A    between atoms: C_14  and  C_16
REMARK                            x       y       z     vdW  Elec       q    Type
REMARK                         _______ _______ _______ _____ _____    ______ ____
ROOT
ATOM      1  C   UNL     1      36.946  -0.497  16.640  0.00  0.00    +0.000 A 
ATOM      2  C   UNL     1      37.234  -1.640  17.348  0.00  0.00    +0.000 A 
ATOM      3  C   UNL     1      36.783  -1.788  18.639  0.00  0.00    +0.000 A 
ATOM      4  C   UNL     1      36.042  -0.810  19.251  0.00  0.00    +0.000 A 
ATOM      5  C   UNL     1      35.766   0.337  18.502  0.00  0.00    +0.000 A 
ATOM      6  C   UNL     1      36.204   0.495  17.229  0.00  0.00    +0.000 A 
ENDROOT
BRANCH   1   8
ATOM      7  N   UNL     1      38.717   0.189  14.997  0.00  0.00    +0.000 NA
ATOM      8  C   UNL     1      37.458  -0.362  15.278  0.00  0.00    +0.000 C 
ATOM      9  O   UNL     1      36.792  -0.730  14.304  0.00  0.00    +0.000 OA
BRANCH   7  11
ATOM     10  C   UNL     1      40.283   1.485  13.833  0.00  0.00    +0.000 C 
ATOM     11  C   UNL     1      39.144   0.274  13.494  0.00  0.00    +0.000 C 
BRANCH  11  12
ATOM     12  C   UNL     1      40.164  -0.930  13.471  0.00  0.00    +0.000 A 
ATOM     13  C   UNL     1      41.085  -1.222  14.354  0.00  0.00    +0.000 A 
ATOM     14  C   UNL     1      41.913  -2.322  14.170  0.00  0.00    +0.000 A 
ATOM     15  C   UNL     1      41.776  -3.126  13.054  0.00  0.00    +0.000 A 
ATOM     16  C   UNL     1      40.788  -2.788  12.136  0.00  0.00    +0.000 A 
ATOM     17  C   UNL     1      40.001  -1.694  12.365  0.00  0.00    +0.000 A 
ENDBRANCH  11  12
ENDBRANCH   7  11
ENDBRANCH   1   8
BRANCH   6  18
ATOM     18  O   UNL     1      35.934   1.627  16.473  0.00  0.00    +0.000 OA
BRANCH  18  19
ATOM     19  C   UNL     1      36.378   2.879  16.958  0.00  0.00    +0.000 C 
BRANCH  19  20
ATOM     20  C   UNL     1      37.339   3.441  16.001  0.00  0.00    +0.000 C 
ATOM     21  O   UNL     1      37.254   3.141  14.784  0.00  0.00    +0.000 OA
BRANCH  20  22
ATOM     22  C   UNL     1      38.405   4.367  16.439  0.00  0.00    +0.000 A 
ATOM     23  C   UNL     1      39.338   4.834  15.525  0.00  0.00    +0.000 A 
ATOM     24  C   UNL     1      40.330   5.720  15.889  0.00  0.00    +0.000 A 
ATOM     25  C   UNL     1      40.449   6.183  17.172  0.00  0.00    +0.000 A 
ATOM     26  C   UNL     1      39.514   5.714  18.099  0.00  0.00    +0.000 A 
ATOM     27  C   UNL     1      38.519   4.825  17.727  0.00  0.00    +0.000 A 
ATOM     28  C   UNL     1      39.670   6.220  19.481  0.00  0.00    +0.000 C 
ATOM     29  C   UNL     1      41.074   6.437  19.926  0.00  0.00    +0.000 C 
ATOM     30  C   UNL     1      42.117   6.467  18.848  0.00  0.00    +0.000 C 
ATOM     31  C   UNL     1      41.491   7.148  17.631  0.00  0.00    +0.000 C 
ENDBRANCH  20  22
ENDBRANCH  19  20
ENDBRANCH  18  19
ENDBRANCH   6  18
TORSDOF 7
ENDMDL
MODEL 2
REMARK VINA RESULT:      -8.3      1.928      3.759
REMARK  Name = 
REMARK  7 active torsions:
REMARK  status: ('A' for Active; 'I' for Inactive)
REMARK    1  A    between atoms: C_2  and  N_3
REMARK    2  A    between atoms: C_2  and  C_26
REMARK    3  A    between atoms: C_4  and  C_6
REMARK    4  A    between atoms: C_11  and  O_12
REMARK    5  A    between atoms: O_12  and  C_13
REMARK    6  A    between atoms: C_13  and  C_14
REMARK    7  A    between atoms: C_14  and  C_16
REMARK                            x       y       z     vdW  Elec       q    Type
REMARK                         _______ _______ _______ _____ _____    ______ ____
ROOT
ATOM      1  C   UNL     1      35.955   0.385  15.288  0.00  0.00    +0.000 A 
ATOM      2  C   UNL     1      35.278   0.626  16.461  0.00  0.00    +0.000 A 
ATOM      3  C   UNL     1      34.647   1.831  16.662  0.00  0.00    +0.000 A 
ATOM      4  C   UNL     1      34.675   2.818  15.710  0.00  0.00    +0.000 A 
ATOM      5  C   UNL     1      35.370   2.539  14.531  0.00  0.00    +0.000 A 
ATOM      6  C   UNL     1      35.996   1.355  14.320  0.00  0.00    +0.000 A 
ENDROOT
BRANCH   1   8
ATOM      7  N   UNL     1      37.926  -1.139  15.602  0.00  0.00    +0.000 NA
ATOM      8  C   UNL     1      36.633  -0.897  15.116  0.00  0.00    +0.000 C 
ATOM      9  O   UNL     1      36.087  -1.835  14.522  0.00  0.00    +0.000 OA
BRANCH   7  11
ATOM     10  C   UNL     1      40.111  -1.930  15.301  0.00  0.00    +0.000 C 
ATOM     11  C   UNL     1      38.534  -2.558  15.348  0.00  0.00    +0.000 C 
BRANCH  11  12
ATOM     12  C   UNL     1      38.588  -3.061  16.844  0.00  0.00    +0.000 A 
ATOM     13  C   UNL     1      38.816  -4.275  17.277  0.00  0.00    +0.000 A 
ATOM     14  C   UNL     1      38.816  -4.547  18.640  0.00  0.00    +0.000 A 
ATOM     15  C   UNL     1      38.576  -3.542  19.557  0.00  0.00    +0.000 A 
ATOM     16  C   UNL     1      38.338  -2.264  19.063  0.00  0.00    +0.000 A 
ATOM     17  C   UNL     1      38.348  -2.050  17.713  0.00  0.00    +0.000 A 
ENDBRANCH  11  12
ENDBRANCH   7  11
ENDBRANCH   1   8
BRANCH   6  18
ATOM     18  O   UNL     1      36.687   1.064  13.152  0.00  0.00    +0.000 OA
BRANCH  18  19
ATOM     19  C   UNL     1      37.584   2.031  12.645  0.00  0.00    +0.000 C 
BRANCH  19  20
ATOM     20  C   UNL     1      38.794   2.035  13.478  0.00  0.00    +0.000 C 
ATOM     21  O   UNL     1      39.560   1.039  13.467  0.00  0.00    +0.000 OA
BRANCH  20  22
ATOM     22  C   UNL     1      39.137   3.196  14.326  0.00  0.00    +0.000 A 
ATOM     23  C   UNL     1      40.028   4.154  13.865  0.00  0.00    +0.000 A 
ATOM     24  C   UNL     1      40.352   5.264  14.616  0.00  0.00    +0.000 A 
ATOM     25  C   UNL     1      39.813   5.480  15.855  0.00  0.00    +0.000 A 
ATOM     26  C   UNL     1      38.916   4.518  16.327  0.00  0.00    +0.000 A 
ATOM     27  C   UNL     1      38.594   3.405  15.568  0.00  0.00    +0.000 A 
ATOM     28  C   UNL     1      38.356   4.768  17.674  0.00  0.00    +0.000 C 
ATOM     29  C   UNL     1      39.282   5.418  18.640  0.00  0.00    +0.000 C 
ATOM     30  C   UNL     1      40.511   6.055  18.058  0.00  0.00    +0.000 C 
ATOM     31  C   UNL     1      40.112   6.664  16.714  0.00  0.00    +0.000 C 
ENDBRANCH  20  22
ENDBRANCH  19  20
ENDBRANCH  18  19
ENDBRANCH   6  18
TORSDOF 7
ENDMDL
MODEL 3
REMARK VINA RESULT:      -8.0      3.190      6.519
REMARK  Name = 
REMARK  7 active torsions:
REMARK  status: ('A' for Active; 'I' for Inactive)
REMARK    1  A    between atoms: C_2  and  N_3
REMARK    2  A    between atoms: C_2  and  C_26
REMARK    3  A    between atoms: C_4  and  C_6
REMARK    4  A    between atoms: C_11  and  O_12
REMARK    5  A    between atoms: O_12  and  C_13
REMARK    6  A    between atoms: C_13  and  C_14
REMARK    7  A    between atoms: C_14  and  C_16
REMARK                            x       y       z     vdW  Elec       q    Type
REMARK                         _______ _______ _______ _____ _____    ______ ____
ROOT
ATOM      1  C   UNL     1      37.195  -1.341  17.360  0.00  0.00    +0.000 A 
ATOM      2  C   UNL     1      36.879  -1.315  18.698  0.00  0.00    +0.000 A 
ATOM      3  C   UNL     1      37.536  -2.140  19.582  0.00  0.00    +0.000 A 
ATOM      4  C   UNL     1      38.515  -3.002  19.158  0.00  0.00    +0.000 A 
ATOM      5  C   UNL     1      38.812  -3.000  17.793  0.00  0.00    +0.000 A 
ATOM      6  C   UNL     1      38.172  -2.193  16.912  0.00  0.00    +0.000 A 
ENDROOT
BRANCH   1   8
ATOM      7  N   UNL     1      36.825   0.868  16.225  0.00  0.00    +0.000 NA
ATOM      8  C   UNL     1      36.463  -0.469  16.445  0.00  0.00    +0.000 C 
ATOM      9  O   UNL     1      35.477  -0.879  15.820  0.00  0.00    +0.000 OA
BRANCH   7  11
ATOM     10  C   UNL     1      35.586   2.849  16.404  0.00  0.00    +0.000 C 
ATOM     11  C   UNL     1      35.954   1.691  15.218  0.00  0.00    +0.000 C 
BRANCH  11  12
ATOM     12  C   UNL     1      37.110   2.509  14.522  0.00  0.00    +0.000 A 
ATOM     13  C   UNL     1      36.998   3.469  13.640  0.00  0.00    +0.000 A 
ATOM     14  C   UNL     1      38.132   4.079  13.116  0.00  0.00    +0.000 A 
ATOM     15  C   UNL     1      39.392   3.683  13.520  0.00  0.00    +0.000 A 
ATOM     16  C   UNL     1      39.476   2.661  14.459  0.00  0.00    +0.000 A 
ATOM     17  C   UNL     1      38.330   2.094  14.941  0.00  0.00    +0.000 A 
ENDBRANCH  11  12
ENDBRANCH   7  11
ENDBRANCH   1   8
BRANCH   6  18
ATOM     18  O   UNL     1      38.460  -2.179  15.554  0.00  0.00    +0.000 OA
BRANCH  18  19
ATOM     19  C   UNL     1      39.626  -1.507  15.123  0.00  0.00    +0.000 C 
BRANCH  19  20
ATOM     20  C   UNL     1      39.766  -1.690  13.673  0.00  0.00    +0.000 C 
ATOM     21  O   UNL     1      40.422  -2.666  13.229  0.00  0.00    +0.000 OA
BRANCH  20  22
ATOM     22  C   UNL     1      39.141  -0.750  12.718  0.00  0.00    +0.000 A 
ATOM     23  C   UNL     1      37.760  -0.631  12.665  0.00  0.00    +0.000 A 
ATOM     24  C   UNL     1      37.141   0.254  11.807  0.00  0.00    +0.000 A 
ATOM     25  C   UNL     1      37.856   1.059  10.962  0.00  0.00    +0.000 A 
ATOM     26  C   UNL     1      39.248   0.942  11.008  0.00  0.00    +0.000 A 
ATOM     27  C   UNL     1      39.863   0.052  11.872  0.00  0.00    +0.000 A 
ATOM     28  C   UNL     1      39.997   1.815  10.077  0.00  0.00    +0.000 C 
ATOM     29  C   UNL     1      39.342   2.058   8.763  0.00  0.00    +0.000 C 
ATOM     30  C   UNL     1      37.886   1.705   8.669  0.00  0.00    +0.000 C 
ATOM     31  C   UNL     1      37.250   2.045  10.017  0.00  0.00    +0.000 C 
ENDBRANCH  20  22
ENDBRANCH  19  20
ENDBRANCH  18  19
ENDBRANCH   6  18
TORSDOF 7
ENDMDL
MODEL 4
REMARK VINA RESULT:      -8.0      1.931      3.303
REMARK  Name = 
REMARK  7 active torsions:
REMARK  status: ('A' for Active; 'I' for Inactive)
REMARK    1  A    between atoms: C_2  and  N_3
REMARK    2  A    between atoms: C_2  and  C_26
REMARK    3  A    between atoms: C_4  and  C_6
REMARK    4  A    between atoms: C_11  and  O_12
REMARK    5  A    between atoms: O_12  and  C_13
REMARK    6  A    between atoms: C_13  and  C_14
REMARK    7  A    between atoms: C_14  and  C_16
REMARK                            x       y       z     vdW  Elec       q    Type
REMARK                         _______ _______ _______ _____ _____    ______ ____
ROOT
ATOM      1  C   UNL     1      35.986   0.657  15.719  0.00  0.00    +0.000 A 
ATOM      2  C   UNL     1      35.221   1.197  16.726  0.00  0.00    +0.000 A 
ATOM      3  C   UNL     1      34.494   2.344  16.506  0.00  0.00    +0.000 A 
ATOM      4  C   UNL     1      34.512   2.976  15.289  0.00  0.00    +0.000 A 
ATOM      5  C   UNL     1      35.298   2.400  14.288  0.00  0.00    +0.000 A 
ATOM      6  C   UNL     1      36.019   1.269  14.492  0.00  0.00    +0.000 A 
ENDROOT
BRANCH   1   8
ATOM      7  N   UNL     1      36.544  -1.758  15.314  0.00  0.00    +0.000 NA
ATOM      8  C   UNL     1      36.763  -0.549  15.992  0.00  0.00    +0.000 C 
ATOM      9  O   UNL     1      37.656  -0.556  16.847  0.00  0.00    +0.000 OA
BRANCH   7  11
ATOM     10  C   UNL     1      36.456  -4.052  14.848  0.00  0.00    +0.000 C 
ATOM     11  C   UNL     1      37.448  -2.974  15.705  0.00  0.00    +0.000 C 
BRANCH  11  12
ATOM     12  C   UNL     1      38.550  -2.816  14.585  0.00  0.00    +0.000 A 
ATOM     13  C   UNL     1      38.372  -2.674  13.296  0.00  0.00    +0.000 A 
ATOM     14  C   UNL     1      39.464  -2.560  12.444  0.00  0.00    +0.000 A 
ATOM     15  C   UNL     1      40.751  -2.594  12.944  0.00  0.00    +0.000 A 
ATOM     16  C   UNL     1      40.904  -2.745  14.318  0.00  0.00    +0.000 A 
ATOM     17  C   UNL     1      39.797  -2.855  15.111  0.00  0.00    +0.000 A 
ENDBRANCH  11  12
ENDBRANCH   7  11
ENDBRANCH   1   8
BRANCH   6  18
ATOM     18  O   UNL     1      36.800   0.685  13.506  0.00  0.00    +0.000 OA
BRANCH  18  19
ATOM     19  C   UNL     1      37.708   1.503  12.796  0.00  0.00    +0.000 C 
BRANCH  19  20
ATOM     20  C   UNL     1      38.933   1.650  13.594  0.00  0.00    +0.000 C 
ATOM     21  O   UNL     1      39.761   0.706  13.642  0.00  0.00    +0.000 OA
BRANCH  20  22
ATOM     22  C   UNL     1      39.218   2.895  14.338  0.00  0.00    +0.000 A 
ATOM     23  C   UNL     1      40.066   3.849  13.795  0.00  0.00    +0.000 A 
ATOM     24  C   UNL     1      40.335   5.035  14.446  0.00  0.00    +0.000 A 
ATOM     25  C   UNL     1      39.782   5.332  15.662  0.00  0.00    +0.000 A 
ATOM     26  C   UNL     1      38.928   4.374  16.216  0.00  0.00    +0.000 A 
ATOM     27  C   UNL     1      38.661   3.186  15.557  0.00  0.00    +0.000 A 
ATOM     28  C   UNL     1      38.352   4.714  17.536  0.00  0.00    +0.000 C 
ATOM     29  C   UNL     1      39.243   5.489  18.442  0.00  0.00    +0.000 C 
ATOM     30  C   UNL     1      40.443   6.129  17.807  0.00  0.00    +0.000 C 
ATOM     31  C   UNL     1      40.022   6.599  16.415  0.00  0.00    +0.000 C 
ENDBRANCH  20  22
ENDBRANCH  19  20
ENDBRANCH  18  19
ENDBRANCH   6  18
TORSDOF 7
ENDMDL
MODEL 5
REMARK VINA RESULT:      -8.0      2.676      4.479
REMARK  Name = 
REMARK  7 active torsions:
REMARK  status: ('A' for Active; 'I' for Inactive)
REMARK    1  A    between atoms: C_2  and  N_3
REMARK    2  A    between atoms: C_2  and  C_26
REMARK    3  A    between atoms: C_4  and  C_6
REMARK    4  A    between atoms: C_11  and  O_12
REMARK    5  A    between atoms: O_12  and  C_13
REMARK    6  A    between atoms: C_13  and  C_14
REMARK    7  A    between atoms: C_14  and  C_16
REMARK                            x       y       z     vdW  Elec       q    Type
REMARK                         _______ _______ _______ _____ _____    ______ ____
ROOT
ATOM      1  C   UNL     1      36.666  -3.382  15.553  0.00  0.00    +0.000 A 
ATOM      2  C   UNL     1      36.188  -4.393  14.753  0.00  0.00    +0.000 A 
ATOM      3  C   UNL     1      34.839  -4.657  14.699  0.00  0.00    +0.000 A 
ATOM      4  C   UNL     1      33.941  -3.926  15.435  0.00  0.00    +0.000 A 
ATOM      5  C   UNL     1      34.461  -2.906  16.236  0.00  0.00    +0.000 A 
ATOM      6  C   UNL     1      35.788  -2.636  16.297  0.00  0.00    +0.000 A 
ENDROOT
BRANCH   1   8
ATOM      7  N   UNL     1      38.771  -2.339  14.667  0.00  0.00    +0.000 NA
ATOM      8  C   UNL     1      38.106  -3.143  15.604  0.00  0.00    +0.000 C 
ATOM      9  O   UNL     1      38.809  -3.650  16.486  0.00  0.00    +0.000 OA
BRANCH   7  11
ATOM     10  C   UNL     1      40.613  -2.841  13.309  0.00  0.00    +0.000 C 
ATOM     11  C   UNL     1      40.317  -2.166  14.838  0.00  0.00    +0.000 C 
BRANCH  11  12
ATOM     12  C   UNL     1      40.435  -0.656  14.392  0.00  0.00    +0.000 A 
ATOM     13  C   UNL     1      41.461  -0.057  13.844  0.00  0.00    +0.000 A 
ATOM     14  C   UNL     1      41.398   1.294  13.523  0.00  0.00    +0.000 A 
ATOM     15  C   UNL     1      40.252   2.023  13.777  0.00  0.00    +0.000 A 
ATOM     16  C   UNL     1      39.181   1.356  14.360  0.00  0.00    +0.000 A 
ATOM     17  C   UNL     1      39.296   0.027  14.657  0.00  0.00    +0.000 A 
ENDBRANCH  11  12
ENDBRANCH   7  11
ENDBRANCH   1   8
BRANCH   6  18
ATOM     18  O   UNL     1      36.316  -1.623  17.084  0.00  0.00    +0.000 OA
BRANCH  18  19
ATOM     19  C   UNL     1      35.421  -0.767  17.765  0.00  0.00    +0.000 C 
BRANCH  19  20
ATOM     20  C   UNL     1      36.056   0.548  17.925  0.00  0.00    +0.000 C 
ATOM     21  O   UNL     1      36.597   0.849  19.018  0.00  0.00    +0.000 OA
BRANCH  20  22
ATOM     22  C   UNL     1      36.081   1.527  16.818  0.00  0.00    +0.000 A 
ATOM     23  C   UNL     1      35.308   1.314  15.685  0.00  0.00    +0.000 A 
ATOM     24  C   UNL     1      35.283   2.217  14.644  0.00  0.00    +0.000 A 
ATOM     25  C   UNL     1      36.021   3.370  14.670  0.00  0.00    +0.000 A 
ATOM     26  C   UNL     1      36.804   3.589  15.807  0.00  0.00    +0.000 A 
ATOM     27  C   UNL     1      36.824   2.679  16.850  0.00  0.00    +0.000 A 
ATOM     28  C   UNL     1      37.602   4.836  15.806  0.00  0.00    +0.000 C 
ATOM     29  C   UNL     1      38.130   5.255  14.480  0.00  0.00    +0.000 C 
ATOM     30  C   UNL     1      37.517   4.595  13.279  0.00  0.00    +0.000 C 
ATOM     31  C   UNL     1      36.032   4.393  13.583  0.00  0.00    +0.000 C 
ENDBRANCH  20  22
ENDBRANCH  19  20
ENDBRANCH  18  19
ENDBRANCH   6  18
TORSDOF 7
ENDMDL
MODEL 6
REMARK VINA RESULT:      -8.0      2.887      6.729
REMARK  Name = 
REMARK  7 active torsions:
REMARK  status: ('A' for Active; 'I' for Inactive)
REMARK    1  A    between atoms: C_2  and  N_3
REMARK    2  A    between atoms: C_2  and  C_26
REMARK    3  A    between atoms: C_4  and  C_6
REMARK    4  A    between atoms: C_11  and  O_12
REMARK    5  A    between atoms: O_12  and  C_13
REMARK    6  A    between atoms: C_13  and  C_14
REMARK    7  A    between atoms: C_14  and  C_16
REMARK                            x       y       z     vdW  Elec       q    Type
REMARK                         _______ _______ _______ _____ _____    ______ ____
ROOT
ATOM      1  C   UNL     1      36.704  -0.143  17.102  0.00  0.00    +0.000 A 
ATOM      2  C   UNL     1      35.662   0.171  17.943  0.00  0.00    +0.000 A 
ATOM      3  C   UNL     1      35.553  -0.439  19.171  0.00  0.00    +0.000 A 
ATOM      4  C   UNL     1      36.471  -1.370  19.587  0.00  0.00    +0.000 A 
ATOM      5  C   UNL     1      37.517  -1.664  18.709  0.00  0.00    +0.000 A 
ATOM      6  C   UNL     1      37.635  -1.069  17.496  0.00  0.00    +0.000 A 
ENDROOT
BRANCH   1   8
ATOM      7  N   UNL     1      37.710   1.514  15.506  0.00  0.00    +0.000 NA
ATOM      8  C   UNL     1      36.777   0.508  15.796  0.00  0.00    +0.000 C 
ATOM      9  O   UNL     1      36.007   0.195  14.881  0.00  0.00    +0.000 OA
BRANCH   7  11
ATOM     10  C   UNL     1      38.251   3.621  14.635  0.00  0.00    +0.000 C 
ATOM     11  C   UNL     1      37.680   2.126  14.066  0.00  0.00    +0.000 C 
BRANCH  11  12
ATOM     12  C   UNL     1      39.073   1.587  13.553  0.00  0.00    +0.000 A 
ATOM     13  C   UNL     1      40.094   1.188  14.267  0.00  0.00    +0.000 A 
ATOM     14  C   UNL     1      41.258   0.751  13.647  0.00  0.00    +0.000 A 
ATOM     15  C   UNL     1      41.354   0.730  12.269  0.00  0.00    +0.000 A 
ATOM     16  C   UNL     1      40.251   1.160  11.541  0.00  0.00    +0.000 A 
ATOM     17  C   UNL     1      39.130   1.581  12.200  0.00  0.00    +0.000 A 
ENDBRANCH  11  12
ENDBRANCH   7  11
ENDBRANCH   1   8
BRANCH   6  18
ATOM     18  O   UNL     1      38.671  -1.349  16.616  0.00  0.00    +0.000 OA
BRANCH  18  19
ATOM     19  C   UNL     1      38.801  -2.670  16.132  0.00  0.00    +0.000 C 
BRANCH  19  20
ATOM     20  C   UNL     1      38.540  -2.670  14.686  0.00  0.00    +0.000 C 
ATOM     21  O   UNL     1      37.357  -2.633  14.267  0.00  0.00    +0.000 OA
BRANCH  20  22
ATOM     22  C   UNL     1      39.648  -2.703  13.708  0.00  0.00    +0.000 A 
ATOM     23  C   UNL     1      40.959  -2.825  14.147  0.00  0.00    +0.000 A 
ATOM     24  C   UNL     1      42.016  -2.887  13.264  0.00  0.00    +0.000 A 
ATOM     25  C   UNL     1      41.830  -2.829  11.909  0.00  0.00    +0.000 A 
ATOM     26  C   UNL     1      40.513  -2.702  11.460  0.00  0.00    +0.000 A 
ATOM     27  C   UNL     1      39.454  -2.642  12.352  0.00  0.00    +0.000 A 
ATOM     28  C   UNL     1      40.338  -2.630   9.992  0.00  0.00    +0.000 C 
ATOM     29  C   UNL     1      41.418  -1.917   9.256  0.00  0.00    +0.000 C 
ATOM     30  C   UNL     1      42.694  -1.679  10.010  0.00  0.00    +0.000 C 
ATOM     31  C   UNL     1      42.928  -2.900  10.900  0.00  0.00    +0.000 C 
ENDBRANCH  20  22
ENDBRANCH  19  20
ENDBRANCH  18  19
ENDBRANCH   6  18
TORSDOF 7
ENDMDL
MODEL 7
REMARK VINA RESULT:      -8.0      2.294      4.393
REMARK  Name = 
REMARK  7 active torsions:
REMARK  status: ('A' for Active; 'I' for Inactive)
REMARK    1  A    between atoms: C_2  and  N_3
REMARK    2  A    between atoms: C_2  and  C_26
REMARK    3  A    between atoms: C_4  and  C_6
REMARK    4  A    between atoms: C_11  and  O_12
REMARK    5  A    between atoms: O_12  and  C_13
REMARK    6  A    between atoms: C_13  and  C_14
REMARK    7  A    between atoms: C_14  and  C_16
REMARK                            x       y       z     vdW  Elec       q    Type
REMARK                         _______ _______ _______ _____ _____    ______ ____
ROOT
ATOM      1  C   UNL     1      37.772   1.524  13.494  0.00  0.00    +0.000 A 
ATOM      2  C   UNL     1      38.453   1.045  12.399  0.00  0.00    +0.000 A 
ATOM      3  C   UNL     1      38.528   1.794  11.247  0.00  0.00    +0.000 A 
ATOM      4  C   UNL     1      37.931   3.026  11.157  0.00  0.00    +0.000 A 
ATOM      5  C   UNL     1      37.249   3.482  12.289  0.00  0.00    +0.000 A 
ATOM      6  C   UNL     1      37.168   2.754  13.430  0.00  0.00    +0.000 A 
ENDROOT
BRANCH   1   8
ATOM      7  N   UNL     1      36.515   0.040  15.082  0.00  0.00    +0.000 NA
ATOM      8  C   UNL     1      37.693   0.695  14.694  0.00  0.00    +0.000 C 
ATOM      9  O   UNL     1      38.675   0.536  15.428  0.00  0.00    +0.000 OA
BRANCH   7  11
ATOM     10  C   UNL     1      35.177  -0.064  17.002  0.00  0.00    +0.000 C 
ATOM     11  C   UNL     1      36.569  -0.817  16.390  0.00  0.00    +0.000 C 
BRANCH  11  12
ATOM     12  C   UNL     1      35.848  -2.114  15.850  0.00  0.00    +0.000 A 
ATOM     13  C   UNL     1      34.709  -2.624  16.244  0.00  0.00    +0.000 A 
ATOM     14  C   UNL     1      34.222  -3.788  15.664  0.00  0.00    +0.000 A 
ATOM     15  C   UNL     1      34.930  -4.424  14.662  0.00  0.00    +0.000 A 
ATOM     16  C   UNL     1      36.136  -3.855  14.267  0.00  0.00    +0.000 A 
ATOM     17  C   UNL     1      36.571  -2.709  14.872  0.00  0.00    +0.000 A 
ENDBRANCH  11  12
ENDBRANCH   7  11
ENDBRANCH   1   8
BRANCH   6  18
ATOM     18  O   UNL     1      36.498   3.197  14.561  0.00  0.00    +0.000 OA
BRANCH  18  19
ATOM     19  C   UNL     1      36.922   4.403  15.163  0.00  0.00    +0.000 C 
BRANCH  19  20
ATOM     20  C   UNL     1      37.625   4.084  16.413  0.00  0.00    +0.000 C 
ATOM     21  O   UNL     1      37.246   3.110  17.109  0.00  0.00    +0.000 OA
BRANCH  20  22
ATOM     22  C   UNL     1      38.783   4.884  16.866  0.00  0.00    +0.000 A 
ATOM     23  C   UNL     1      39.720   5.332  15.946  0.00  0.00    +0.000 A 
ATOM     24  C   UNL     1      40.798   6.103  16.327  0.00  0.00    +0.000 A 
ATOM     25  C   UNL     1      41.002   6.465  17.631  0.00  0.00    +0.000 A 
ATOM     26  C   UNL     1      40.064   6.015  18.563  0.00  0.00    +0.000 A 
ATOM     27  C   UNL     1      38.982   5.242  18.175  0.00  0.00    +0.000 A 
ATOM     28  C   UNL     1      40.312   6.410  19.968  0.00  0.00    +0.000 C 
ATOM     29  C   UNL     1      41.744   6.477  20.368  0.00  0.00    +0.000 C 
ATOM     30  C   UNL     1      42.748   6.492  19.251  0.00  0.00    +0.000 C 
ATOM     31  C   UNL     1      42.141   7.306  18.108  0.00  0.00    +0.000 C 
ENDBRANCH  20  22
ENDBRANCH  19  20
ENDBRANCH  18  19
ENDBRANCH   6  18
TORSDOF 7
ENDMDL
MODEL 8
REMARK VINA RESULT:      -7.9      1.914      3.600
REMARK  Name = 
REMARK  7 active torsions:
REMARK  status: ('A' for Active; 'I' for Inactive)
REMARK    1  A    between atoms: C_2  and  N_3
REMARK    2  A    between atoms: C_2  and  C_26
REMARK    3  A    between atoms: C_4  and  C_6
REMARK    4  A    between atoms: C_11  and  O_12
REMARK    5  A    between atoms: O_12  and  C_13
REMARK    6  A    between atoms: C_13  and  C_14
REMARK    7  A    between atoms: C_14  and  C_16
REMARK                            x       y       z     vdW  Elec       q    Type
REMARK                         _______ _______ _______ _____ _____    ______ ____
ROOT
ATOM      1  C   UNL     1      36.174   2.243  14.188  0.00  0.00    +0.000 A 
ATOM      2  C   UNL     1      35.106   2.017  15.025  0.00  0.00    +0.000 A 
ATOM      3  C   UNL     1      34.293   3.058  15.407  0.00  0.00    +0.000 A 
ATOM      4  C   UNL     1      34.521   4.339  14.970  0.00  0.00    +0.000 A 
ATOM      5  C   UNL     1      35.613   4.532  14.121  0.00  0.00    +0.000 A 
ATOM      6  C   UNL     1      36.422   3.514  13.736  0.00  0.00    +0.000 A 
ENDROOT
BRANCH   1   8
ATOM      7  N   UNL     1      38.194   0.791  14.533  0.00  0.00    +0.000 NA
ATOM      8  C   UNL     1      37.031   1.119  13.819  0.00  0.00    +0.000 C 
ATOM      9  O   UNL     1      36.765   0.403  12.847  0.00  0.00    +0.000 OA
BRANCH   7  11
ATOM     10  C   UNL     1      40.483   0.296  14.481  0.00  0.00    +0.000 C 
ATOM     11  C   UNL     1      39.021  -0.439  14.030  0.00  0.00    +0.000 C 
BRANCH  11  12
ATOM     12  C   UNL     1      38.879  -1.355  15.307  0.00  0.00    +0.000 A 
ATOM     13  C   UNL     1      38.165  -1.134  16.381  0.00  0.00    +0.000 A 
ATOM     14  C   UNL     1      38.164  -2.049  17.427  0.00  0.00    +0.000 A 
ATOM     15  C   UNL     1      38.916  -3.205  17.348  0.00  0.00    +0.000 A 
ATOM     16  C   UNL     1      39.663  -3.409  16.194  0.00  0.00    +0.000 A 
ATOM     17  C   UNL     1      39.629  -2.477  15.195  0.00  0.00    +0.000 A 
ENDBRANCH  11  12
ENDBRANCH   7  11
ENDBRANCH   1   8
BRANCH   6  18
ATOM     18  O   UNL     1      37.507   3.692  12.890  0.00  0.00    +0.000 OA
BRANCH  18  19
ATOM     19  C   UNL     1      38.360   4.796  13.115  0.00  0.00    +0.000 C 
BRANCH  19  20
ATOM     20  C   UNL     1      39.455   4.375  13.999  0.00  0.00    +0.000 C 
ATOM     21  O   UNL     1      40.341   3.598  13.564  0.00  0.00    +0.000 OA
BRANCH  20  22
ATOM     22  C   UNL     1      39.542   4.856  15.394  0.00  0.00    +0.000 A 
ATOM     23  C   UNL     1      38.625   4.418  16.338  0.00  0.00    +0.000 A 
ATOM     24  C   UNL     1      38.690   4.822  17.655  0.00  0.00    +0.000 A 
ATOM     25  C   UNL     1      39.661   5.678  18.100  0.00  0.00    +0.000 A 
ATOM     26  C   UNL     1      40.586   6.126  17.153  0.00  0.00    +0.000 A 
ATOM     27  C   UNL     1      40.516   5.716  15.832  0.00  0.00    +0.000 A 
ATOM     28  C   UNL     1      41.619   7.060  17.656  0.00  0.00    +0.000 C 
ATOM     29  C   UNL     1      41.167   8.001  18.716  0.00  0.00    +0.000 C 
ATOM     30  C   UNL     1      39.867   7.669  19.390  0.00  0.00    +0.000 C 
ATOM     31  C   UNL     1      39.795   6.147  19.511  0.00  0.00    +0.000 C 
ENDBRANCH  20  22
ENDBRANCH  19  20
ENDBRANCH  18  19
ENDBRANCH   6  18
TORSDOF 7
ENDMDL
MODEL 9
REMARK VINA RESULT:      -7.9      3.773      6.858
REMARK  Name = 
REMARK  7 active torsions:
REMARK  status: ('A' for Active; 'I' for Inactive)
REMARK    1  A    between atoms: C_2  and  N_3
REMARK    2  A    between atoms: C_2  and  C_26
REMARK    3  A    between atoms: C_4  and  C_6
REMARK    4  A    between atoms: C_11  and  O_12
REMARK    5  A    between atoms: O_12  and  C_13
REMARK    6  A    between atoms: C_13  and  C_14
REMARK    7  A    between atoms: C_14  and  C_16
REMARK                            x       y       z     vdW  Elec       q    Type
REMARK                         _______ _______ _______ _____ _____    ______ ____
ROOT
ATOM      1  C   UNL     1      36.628   0.809  15.170  0.00  0.00    +0.000 A 
ATOM      2  C   UNL     1      35.518   1.591  15.384  0.00  0.00    +0.000 A 
ATOM      3  C   UNL     1      34.833   1.512  16.575  0.00  0.00    +0.000 A 
ATOM      4  C   UNL     1      35.233   0.660  17.572  0.00  0.00    +0.000 A 
ATOM      5  C   UNL     1      36.366  -0.119  17.321  0.00  0.00    +0.000 A 
ATOM      6  C   UNL     1      37.050  -0.051  16.153  0.00  0.00    +0.000 A 
ENDROOT
BRANCH   1   8
ATOM      7  N   UNL     1      38.526   1.598  13.728  0.00  0.00    +0.000 NA
ATOM      8  C   UNL     1      37.319   0.901  13.887  0.00  0.00    +0.000 C 
ATOM      9  O   UNL     1      36.861   0.363  12.872  0.00  0.00    +0.000 OA
BRANCH   7  11
ATOM     10  C   UNL     1      39.519   3.272  12.423  0.00  0.00    +0.000 C 
ATOM     11  C   UNL     1      39.160   1.617  12.297  0.00  0.00    +0.000 C 
BRANCH  11  12
ATOM     12  C   UNL     1      40.602   1.093  12.673  0.00  0.00    +0.000 A 
ATOM     13  C   UNL     1      41.040   0.715  13.846  0.00  0.00    +0.000 A 
ATOM     14  C   UNL     1      42.353   0.289  14.003  0.00  0.00    +0.000 A 
ATOM     15  C   UNL     1      43.214   0.257  12.924  0.00  0.00    +0.000 A 
ATOM     16  C   UNL     1      42.717   0.664  11.691  0.00  0.00    +0.000 A 
ATOM     17  C   UNL     1      41.417   1.076  11.592  0.00  0.00    +0.000 A 
ENDBRANCH  11  12
ENDBRANCH   7  11
ENDBRANCH   1   8
BRANCH   6  18
ATOM     18  O   UNL     1      38.178  -0.815  15.893  0.00  0.00    +0.000 OA
BRANCH  18  19
ATOM     19  C   UNL     1      38.035  -2.219  15.820  0.00  0.00    +0.000 C 
BRANCH  19  20
ATOM     20  C   UNL     1      39.335  -2.809  15.476  0.00  0.00    +0.000 C 
ATOM     21  O   UNL     1      40.015  -3.378  16.366  0.00  0.00    +0.000 OA
BRANCH  20  22
ATOM     22  C   UNL     1      39.860  -2.755  14.095  0.00  0.00    +0.000 A 
ATOM     23  C   UNL     1      39.038  -2.345  13.056  0.00  0.00    +0.000 A 
ATOM     24  C   UNL     1      39.499  -2.256  11.759  0.00  0.00    +0.000 A 
ATOM     25  C   UNL     1      40.789  -2.568  11.428  0.00  0.00    +0.000 A 
ATOM     26  C   UNL     1      41.622  -2.984  12.470  0.00  0.00    +0.000 A 
ATOM     27  C   UNL     1      41.154  -3.071  13.771  0.00  0.00    +0.000 A 
ATOM     28  C   UNL     1      43.010  -3.327  12.086  0.00  0.00    +0.000 C 
ATOM     29  C   UNL     1      43.163  -3.962  10.749  0.00  0.00    +0.000 C 
ATOM     30  C   UNL     1      41.987  -3.856   9.822  0.00  0.00    +0.000 C 
ATOM     31  C   UNL     1      41.355  -2.483  10.049  0.00  0.00    +0.000 C 
ENDBRANCH  20  22
ENDBRANCH  19  20
ENDBRANCH  18  19
ENDBRANCH   6  18
TORSDOF 7
ENDMDL
MODEL 10
REMARK VINA RESULT:      -7.8     25.853     28.560
REMARK  Name = 
REMARK  7 active torsions:
REMARK  status: ('A' for Active; 'I' for Inactive)
REMARK    1  A    between atoms: C_2  and  N_3
REMARK    2  A    between atoms: C_2  and  C_26
REMARK    3  A    between atoms: C_4  and  C_6
REMARK    4  A    between atoms: C_11  and  O_12
REMARK    5  A    between atoms: O_12  and  C_13
REMARK    6  A    between atoms: C_13  and  C_14
REMARK    7  A    between atoms: C_14  and  C_16
REMARK                            x       y       z     vdW  Elec       q    Type
REMARK                         _______ _______ _______ _____ _____    ______ ____
ROOT
ATOM      1  C   UNL     1      24.229  20.184  33.676  0.00  0.00    +0.000 A 
ATOM      2  C   UNL     1      23.855  21.472  33.372  0.00  0.00    +0.000 A 
ATOM      3  C   UNL     1      22.985  21.714  32.334  0.00  0.00    +0.000 A 
ATOM      4  C   UNL     1      22.470  20.689  31.582  0.00  0.00    +0.000 A 
ATOM      5  C   UNL     1      22.870  19.394  31.920  0.00  0.00    +0.000 A 
ATOM      6  C   UNL     1      23.727  19.142  32.940  0.00  0.00    +0.000 A 
ENDROOT
BRANCH   1   8
ATOM      7  N   UNL     1      24.765  19.551  36.047  0.00  0.00    +0.000 NA
ATOM      8  C   UNL     1      25.173  19.963  34.769  0.00  0.00    +0.000 C 
ATOM      9  O   UNL     1      26.387  20.135  34.612  0.00  0.00    +0.000 OA
BRANCH   7  11
ATOM     10  C   UNL     1      24.840  19.859  38.368  0.00  0.00    +0.000 C 
ATOM     11  C   UNL     1      25.880  19.352  37.126  0.00  0.00    +0.000 C 
BRANCH  11  12
ATOM     12  C   UNL     1      25.700  17.802  37.365  0.00  0.00    +0.000 A 
ATOM     13  C   UNL     1      24.809  17.004  36.834  0.00  0.00    +0.000 A 
ATOM     14  C   UNL     1      24.785  15.655  37.167  0.00  0.00    +0.000 A 
ATOM     15  C   UNL     1      25.702  15.136  38.061  0.00  0.00    +0.000 A 
ATOM     16  C   UNL     1      26.635  16.011  38.606  0.00  0.00    +0.000 A 
ATOM     17  C   UNL     1      26.613  17.329  38.246  0.00  0.00    +0.000 A 
ENDBRANCH  11  12
ENDBRANCH   7  11
ENDBRANCH   1   8
BRANCH   6  18
ATOM     18  O   UNL     1      24.129  17.860  33.288  0.00  0.00    +0.000 OA
BRANCH  18  19
ATOM     19  C   UNL     1      24.544  16.984  32.259  0.00  0.00    +0.000 C 
BRANCH  19  20
ATOM     20  C   UNL     1      24.994  15.725  32.866  0.00  0.00    +0.000 C 
ATOM     21  O   UNL     1      24.337  14.672  32.673  0.00  0.00    +0.000 OA
BRANCH  20  22
ATOM     22  C   UNL     1      26.217  15.667  33.695  0.00  0.00    +0.000 A 
ATOM     23  C   UNL     1      26.587  14.477  34.303  0.00  0.00    +0.000 A 
ATOM     24  C   UNL     1      27.735  14.376  35.062  0.00  0.00    +0.000 A 
ATOM     25  C   UNL     1      28.568  15.445  35.256  0.00  0.00    +0.000 A 
ATOM     26  C   UNL     1      28.199  16.648  34.648  0.00  0.00    +0.000 A 
ATOM     27  C   UNL     1      27.046  16.743  33.887  0.00  0.00    +0.000 A 
ATOM     28  C   UNL     1      29.109  17.792  34.881  0.00  0.00    +0.000 C 
ATOM     29  C   UNL     1      29.748  17.834  36.225  0.00  0.00    +0.000 C 
ATOM     30  C   UNL     1      29.687  16.569  37.032  0.00  0.00    +0.000 C 
ATOM     31  C   UNL     1      29.828  15.402  36.055  0.00  0.00    +0.000 C 
ENDBRANCH  20  22
ENDBRANCH  19  20
ENDBRANCH  18  19
ENDBRANCH   6  18
TORSDOF 7
ENDMDL
