MODEL 1
REMARK VINA RESULT:      -6.1      0.000      0.000
REMARK  Name = 
REMARK  4 active torsions:
REMARK  status: ('A' for Active; 'I' for Inactive)
REMARK    1  A    between atoms: O_2  and  C_3
REMARK    2  A    between atoms: C_5  and  S_6
REMARK    3  A    between atoms: S_6  and  C_7
REMARK    4  A    between atoms: C_14  and  O_15
REMARK                            x       y       z     vdW  Elec       q    Type
REMARK                         _______ _______ _______ _____ _____    ______ ____
ROOT
ATOM      1  C   UNL     1      14.153  11.479  37.676  0.00  0.00    +0.000 A 
ATOM      2  C   UNL     1      15.363  10.845  37.795  0.00  0.00    +0.000 A 
ATOM      3  C   UNL     1      16.332  10.929  36.815  0.00  0.00    +0.000 A 
ATOM      4  C   UNL     1      16.019  11.689  35.704  0.00  0.00    +0.000 A 
ATOM      5  C   UNL     1      14.804  12.330  35.574  0.00  0.00    +0.000 A 
ATOM      6  C   UNL     1      13.846  12.237  36.562  0.00  0.00    +0.000 A 
ATOM      7  N   UNL     1      12.585  12.878  36.474  0.00  0.00    +0.000 NA
ENDROOT
BRANCH   1   9
ATOM      8  C   UNL     1      12.341  10.266  38.773  0.00  0.00    +0.000 C 
ATOM      9  O   UNL     1      13.200  11.372  38.684  0.00  0.00    +0.000 OA
ENDBRANCH   1   9
BRANCH   4  10
ATOM     10  O   UNL     1      16.940  11.815  34.689  0.00  0.00    +0.000 OA
ATOM     11  C   UNL     1      16.771  11.203  33.438  0.00  0.00    +0.000 C 
ENDBRANCH   4  10
BRANCH   3  12
ATOM     12  S   UNL     1      17.907  10.100  36.979  0.00  0.00    +0.000 S 
BRANCH  12  13
ATOM     13  C   UNL     1      19.173  11.192  37.579  0.00  0.00    +0.000 A 
ATOM     14  C   UNL     1      18.872  12.517  37.821  0.00  0.00    +0.000 A 
ATOM     15  C   UNL     1      19.838  13.403  38.292  0.00  0.00    +0.000 A 
ATOM     16  C   UNL     1      21.128  12.977  38.532  0.00  0.00    +0.000 A 
ATOM     17  C   UNL     1      22.171  13.941  39.042  0.00  0.00    +0.000 C 
ATOM     18  C   UNL     1      21.440  11.660  38.294  0.00  0.00    +0.000 A 
ATOM     19  C   UNL     1      20.468  10.809  37.830  0.00  0.00    +0.000 A 
ENDBRANCH  12  13
ENDBRANCH   3  12
TORSDOF 4
ENDMDL
MODEL 2
REMARK VINA RESULT:      -5.6     17.368     19.301
REMARK  Name = 
REMARK  4 active torsions:
REMARK  status: ('A' for Active; 'I' for Inactive)
REMARK    1  A    between atoms: O_2  and  C_3
REMARK    2  A    between atoms: C_5  and  S_6
REMARK    3  A    between atoms: S_6  and  C_7
REMARK    4  A    between atoms: C_14  and  O_15
REMARK                            x       y       z     vdW  Elec       q    Type
REMARK                         _______ _______ _______ _____ _____    ______ ____
ROOT
ATOM      1  C   UNL     1      25.879  23.715  29.367  0.00  0.00    +0.000 A 
ATOM      2  C   UNL     1      26.262  23.142  28.182  0.00  0.00    +0.000 A 
ATOM      3  C   UNL     1      26.086  23.782  26.971  0.00  0.00    +0.000 A 
ATOM      4  C   UNL     1      25.504  25.034  27.015  0.00  0.00    +0.000 A 
ATOM      5  C   UNL     1      25.115  25.619  28.203  0.00  0.00    +0.000 A 
ATOM      6  C   UNL     1      25.297  24.967  29.404  0.00  0.00    +0.000 A 
ATOM      7  N   UNL     1      24.914  25.527  30.649  0.00  0.00    +0.000 NA
ENDROOT
BRANCH   1   9
ATOM      8  C   UNL     1      26.474  21.697  30.605  0.00  0.00    +0.000 C 
ATOM      9  O   UNL     1      26.071  23.040  30.569  0.00  0.00    +0.000 OA
ENDBRANCH   1   9
BRANCH   4  10
ATOM     10  O   UNL     1      25.300  25.728  25.844  0.00  0.00    +0.000 OA
ATOM     11  C   UNL     1      24.612  26.949  25.802  0.00  0.00    +0.000 C 
ENDBRANCH   4  10
BRANCH   3  12
ATOM     12  S   UNL     1      26.589  23.028  25.430  0.00  0.00    +0.000 S 
BRANCH  12  13
ATOM     13  C   UNL     1      28.330  23.226  25.130  0.00  0.00    +0.000 A 
ATOM     14  C   UNL     1      29.238  22.563  25.930  0.00  0.00    +0.000 A 
ATOM     15  C   UNL     1      30.610  22.693  25.725  0.00  0.00    +0.000 A 
ATOM     16  C   UNL     1      31.099  23.492  24.713  0.00  0.00    +0.000 A 
ATOM     17  C   UNL     1      32.586  23.630  24.496  0.00  0.00    +0.000 C 
ATOM     18  C   UNL     1      30.203  24.158  23.910  0.00  0.00    +0.000 A 
ATOM     19  C   UNL     1      28.857  24.011  24.134  0.00  0.00    +0.000 A 
ENDBRANCH  12  13
ENDBRANCH   3  12
TORSDOF 4
ENDMDL
MODEL 3
REMARK VINA RESULT:      -5.5     18.287     20.272
REMARK  Name = 
REMARK  4 active torsions:
REMARK  status: ('A' for Active; 'I' for Inactive)
REMARK    1  A    between atoms: O_2  and  C_3
REMARK    2  A    between atoms: C_5  and  S_6
REMARK    3  A    between atoms: S_6  and  C_7
REMARK    4  A    between atoms: C_14  and  O_15
REMARK                            x       y       z     vdW  Elec       q    Type
REMARK                         _______ _______ _______ _____ _____    ______ ____
ROOT
ATOM      1  C   UNL     1      30.424  23.220  26.041  0.00  0.00    +0.000 A 
ATOM      2  C   UNL     1      29.089  23.123  26.337  0.00  0.00    +0.000 A 
ATOM      3  C   UNL     1      28.120  23.112  25.353  0.00  0.00    +0.000 A 
ATOM      4  C   UNL     1      28.567  23.203  24.049  0.00  0.00    +0.000 A 
ATOM      5  C   UNL     1      29.909  23.302  23.740  0.00  0.00    +0.000 A 
ATOM      6  C   UNL     1      30.864  23.311  24.735  0.00  0.00    +0.000 A 
ATOM      7  N   UNL     1      32.253  23.410  24.466  0.00  0.00    +0.000 NA
ENDROOT
BRANCH   1   9
ATOM      8  C   UNL     1      31.374  22.260  28.074  0.00  0.00    +0.000 C 
ATOM      9  O   UNL     1      31.372  23.228  27.059  0.00  0.00    +0.000 OA
ENDBRANCH   1   9
BRANCH   4  10
ATOM     10  O   UNL     1      27.655  23.197  23.019  0.00  0.00    +0.000 OA
ATOM     11  C   UNL     1      27.725  24.097  21.945  0.00  0.00    +0.000 C 
ENDBRANCH   4  10
BRANCH   3  12
ATOM     12  S   UNL     1      26.382  22.985  25.750  0.00  0.00    +0.000 S 
BRANCH  12  13
ATOM     13  C   UNL     1      25.986  23.811  27.273  0.00  0.00    +0.000 A 
ATOM     14  C   UNL     1      25.252  24.979  27.242  0.00  0.00    +0.000 A 
ATOM     15  C   UNL     1      24.922  25.655  28.415  0.00  0.00    +0.000 A 
ATOM     16  C   UNL     1      25.321  25.171  29.644  0.00  0.00    +0.000 A 
ATOM     17  C   UNL     1      24.961  25.907  30.911  0.00  0.00    +0.000 C 
ATOM     18  C   UNL     1      26.053  24.008  29.686  0.00  0.00    +0.000 A 
ATOM     19  C   UNL     1      26.363  23.363  28.515  0.00  0.00    +0.000 A 
ENDBRANCH  12  13
ENDBRANCH   3  12
TORSDOF 4
ENDMDL
MODEL 4
REMARK VINA RESULT:      -5.5     18.567     20.808
REMARK  Name = 
REMARK  4 active torsions:
REMARK  status: ('A' for Active; 'I' for Inactive)
REMARK    1  A    between atoms: O_2  and  C_3
REMARK    2  A    between atoms: C_5  and  S_6
REMARK    3  A    between atoms: S_6  and  C_7
REMARK    4  A    between atoms: C_14  and  O_15
REMARK                            x       y       z     vdW  Elec       q    Type
REMARK                         _______ _______ _______ _____ _____    ______ ____
ROOT
ATOM      1  C   UNL     1      29.523  23.602  23.557  0.00  0.00    +0.000 A 
ATOM      2  C   UNL     1      28.169  23.599  23.772  0.00  0.00    +0.000 A 
ATOM      3  C   UNL     1      27.614  23.094  24.931  0.00  0.00    +0.000 A 
ATOM      4  C   UNL     1      28.497  22.592  25.868  0.00  0.00    +0.000 A 
ATOM      5  C   UNL     1      29.862  22.591  25.661  0.00  0.00    +0.000 A 
ATOM      6  C   UNL     1      30.400  23.098  24.497  0.00  0.00    +0.000 A 
ATOM      7  N   UNL     1      31.794  23.119  24.240  0.00  0.00    +0.000 NA
ENDROOT
BRANCH   1   9
ATOM      8  C   UNL     1      29.234  24.754  21.425  0.00  0.00    +0.000 C 
ATOM      9  O   UNL     1      30.046  24.119  22.376  0.00  0.00    +0.000 OA
ENDBRANCH   1   9
BRANCH   4  10
ATOM     10  O   UNL     1      28.011  22.074  27.047  0.00  0.00    +0.000 OA
ATOM     11  C   UNL     1      28.403  22.561  28.302  0.00  0.00    +0.000 C 
ENDBRANCH   4  10
BRANCH   3  12
ATOM     12  S   UNL     1      25.847  23.094  25.203  0.00  0.00    +0.000 S 
BRANCH  12  13
ATOM     13  C   UNL     1      25.329  24.468  26.204  0.00  0.00    +0.000 A 
ATOM     14  C   UNL     1      24.850  25.611  25.596  0.00  0.00    +0.000 A 
ATOM     15  C   UNL     1      24.435  26.708  26.347  0.00  0.00    +0.000 A 
ATOM     16  C   UNL     1      24.491  26.681  27.725  0.00  0.00    +0.000 A 
ATOM     17  C   UNL     1      24.040  27.872  28.534  0.00  0.00    +0.000 C 
ATOM     18  C   UNL     1      24.966  25.548  28.342  0.00  0.00    +0.000 A 
ATOM     19  C   UNL     1      25.368  24.482  27.577  0.00  0.00    +0.000 A 
ENDBRANCH  12  13
ENDBRANCH   3  12
TORSDOF 4
ENDMDL
MODEL 5
REMARK VINA RESULT:      -5.4     17.736     19.926
REMARK  Name = 
REMARK  4 active torsions:
REMARK  status: ('A' for Active; 'I' for Inactive)
REMARK    1  A    between atoms: O_2  and  C_3
REMARK    2  A    between atoms: C_5  and  S_6
REMARK    3  A    between atoms: S_6  and  C_7
REMARK    4  A    between atoms: C_14  and  O_15
REMARK                            x       y       z     vdW  Elec       q    Type
REMARK                         _______ _______ _______ _____ _____    ______ ____
ROOT
ATOM      1  C   UNL     1      27.622  22.898  29.196  0.00  0.00    +0.000 A 
ATOM      2  C   UNL     1      28.086  22.796  27.909  0.00  0.00    +0.000 A 
ATOM      3  C   UNL     1      27.378  23.297  26.835  0.00  0.00    +0.000 A 
ATOM      4  C   UNL     1      26.174  23.911  27.124  0.00  0.00    +0.000 A 
ATOM      5  C   UNL     1      25.699  24.019  28.415  0.00  0.00    +0.000 A 
ATOM      6  C   UNL     1      26.418  23.512  29.477  0.00  0.00    +0.000 A 
ATOM      7  N   UNL     1      25.971  23.599  30.820  0.00  0.00    +0.000 NA
ENDROOT
BRANCH   1   9
ATOM      8  C   UNL     1      29.711  22.718  30.445  0.00  0.00    +0.000 C 
ATOM      9  O   UNL     1      28.363  22.380  30.253  0.00  0.00    +0.000 OA
ENDBRANCH   1   9
BRANCH   4  10
ATOM     10  O   UNL     1      25.418  24.433  26.100  0.00  0.00    +0.000 OA
ATOM     11  C   UNL     1      25.278  25.814  25.895  0.00  0.00    +0.000 C 
ENDBRANCH   4  10
BRANCH   3  12
ATOM     12  S   UNL     1      27.990  23.160  25.161  0.00  0.00    +0.000 S 
BRANCH  12  13
ATOM     13  C   UNL     1      29.695  23.648  25.035  0.00  0.00    +0.000 A 
ATOM     14  C   UNL     1      30.645  22.716  24.672  0.00  0.00    +0.000 A 
ATOM     15  C   UNL     1      31.990  23.062  24.563  0.00  0.00    +0.000 A 
ATOM     16  C   UNL     1      32.409  24.352  24.815  0.00  0.00    +0.000 A 
ATOM     17  C   UNL     1      33.868  24.721  24.695  0.00  0.00    +0.000 C 
ATOM     18  C   UNL     1      31.471  25.289  25.177  0.00  0.00    +0.000 A 
ATOM     19  C   UNL     1      30.153  24.921  25.277  0.00  0.00    +0.000 A 
ENDBRANCH  12  13
ENDBRANCH   3  12
TORSDOF 4
ENDMDL
MODEL 6
REMARK VINA RESULT:      -5.4      3.591      6.814
REMARK  Name = 
REMARK  4 active torsions:
REMARK  status: ('A' for Active; 'I' for Inactive)
REMARK    1  A    between atoms: O_2  and  C_3
REMARK    2  A    between atoms: C_5  and  S_6
REMARK    3  A    between atoms: S_6  and  C_7
REMARK    4  A    between atoms: C_14  and  O_15
REMARK                            x       y       z     vdW  Elec       q    Type
REMARK                         _______ _______ _______ _____ _____    ______ ____
ROOT
ATOM      1  C   UNL     1      20.344  10.288  38.169  0.00  0.00    +0.000 A 
ATOM      2  C   UNL     1      19.183  10.833  37.684  0.00  0.00    +0.000 A 
ATOM      3  C   UNL     1      17.950  10.526  38.225  0.00  0.00    +0.000 A 
ATOM      4  C   UNL     1      17.946   9.640  39.285  0.00  0.00    +0.000 A 
ATOM      5  C   UNL     1      19.109   9.085  39.780  0.00  0.00    +0.000 A 
ATOM      6  C   UNL     1      20.333   9.402  39.228  0.00  0.00    +0.000 A 
ATOM      7  N   UNL     1      21.554   8.858  39.702  0.00  0.00    +0.000 NA
ENDROOT
BRANCH   1   9
ATOM      8  C   UNL     1      22.036   9.990  36.435  0.00  0.00    +0.000 C 
ATOM      9  O   UNL     1      21.568  10.620  37.598  0.00  0.00    +0.000 OA
ENDBRANCH   1   9
BRANCH   4  10
ATOM     10  O   UNL     1      16.751   9.291  39.872  0.00  0.00    +0.000 OA
ATOM     11  C   UNL     1      16.490   9.504  41.234  0.00  0.00    +0.000 C 
ENDBRANCH   4  10
BRANCH   3  12
ATOM     12  S   UNL     1      16.441  11.242  37.588  0.00  0.00    +0.000 S 
BRANCH  12  13
ATOM     13  C   UNL     1      16.337  11.105  35.819  0.00  0.00    +0.000 A 
ATOM     14  C   UNL     1      17.236  10.305  35.144  0.00  0.00    +0.000 A 
ATOM     15  C   UNL     1      17.185  10.172  33.758  0.00  0.00    +0.000 A 
ATOM     16  C   UNL     1      16.229  10.839  33.020  0.00  0.00    +0.000 A 
ATOM     17  C   UNL     1      16.179  10.692  31.519  0.00  0.00    +0.000 C 
ATOM     18  C   UNL     1      15.329  11.639  33.682  0.00  0.00    +0.000 A 
ATOM     19  C   UNL     1      15.401  11.752  35.048  0.00  0.00    +0.000 A 
ENDBRANCH  12  13
ENDBRANCH   3  12
TORSDOF 4
ENDMDL
MODEL 7
REMARK VINA RESULT:      -5.4     18.101     20.374
REMARK  Name = 
REMARK  4 active torsions:
REMARK  status: ('A' for Active; 'I' for Inactive)
REMARK    1  A    between atoms: O_2  and  C_3
REMARK    2  A    between atoms: C_5  and  S_6
REMARK    3  A    between atoms: S_6  and  C_7
REMARK    4  A    between atoms: C_14  and  O_15
REMARK                            x       y       z     vdW  Elec       q    Type
REMARK                         _______ _______ _______ _____ _____    ______ ____
ROOT
ATOM      1  C   UNL     1      28.066  23.389  23.423  0.00  0.00    +0.000 A 
ATOM      2  C   UNL     1      27.918  22.961  24.718  0.00  0.00    +0.000 A 
ATOM      3  C   UNL     1      28.989  22.871  25.584  0.00  0.00    +0.000 A 
ATOM      4  C   UNL     1      30.222  23.237  25.079  0.00  0.00    +0.000 A 
ATOM      5  C   UNL     1      30.381  23.669  23.778  0.00  0.00    +0.000 A 
ATOM      6  C   UNL     1      29.301  23.753  22.925  0.00  0.00    +0.000 A 
ATOM      7  N   UNL     1      29.415  24.191  21.581  0.00  0.00    +0.000 NA
ENDROOT
BRANCH   1   9
ATOM      8  C   UNL     1      25.666  23.186  23.030  0.00  0.00    +0.000 C 
ATOM      9  O   UNL     1      26.963  23.467  22.578  0.00  0.00    +0.000 OA
ENDBRANCH   1   9
BRANCH   4  10
ATOM     10  O   UNL     1      31.332  23.172  25.890  0.00  0.00    +0.000 OA
ATOM     11  C   UNL     1      31.995  24.318  26.354  0.00  0.00    +0.000 C 
ENDBRANCH   4  10
BRANCH   3  12
ATOM     12  S   UNL     1      28.787  22.312  27.271  0.00  0.00    +0.000 S 
BRANCH  12  13
ATOM     13  C   UNL     1      27.664  23.345  28.182  0.00  0.00    +0.000 A 
ATOM     14  C   UNL     1      26.949  22.810  29.234  0.00  0.00    +0.000 A 
ATOM     15  C   UNL     1      26.059  23.588  29.972  0.00  0.00    +0.000 A 
ATOM     16  C   UNL     1      25.870  24.920  29.670  0.00  0.00    +0.000 A 
ATOM     17  C   UNL     1      24.905  25.758  30.472  0.00  0.00    +0.000 C 
ATOM     18  C   UNL     1      26.577  25.464  28.624  0.00  0.00    +0.000 A 
ATOM     19  C   UNL     1      27.447  24.675  27.914  0.00  0.00    +0.000 A 
ENDBRANCH  12  13
ENDBRANCH   3  12
TORSDOF 4
ENDMDL
MODEL 8
REMARK VINA RESULT:      -5.3     22.362     24.230
REMARK  Name = 
REMARK  4 active torsions:
REMARK  status: ('A' for Active; 'I' for Inactive)
REMARK    1  A    between atoms: O_2  and  C_3
REMARK    2  A    between atoms: C_5  and  S_6
REMARK    3  A    between atoms: S_6  and  C_7
REMARK    4  A    between atoms: C_14  and  O_15
REMARK                            x       y       z     vdW  Elec       q    Type
REMARK                         _______ _______ _______ _____ _____    ______ ____
ROOT
ATOM      1  C   UNL     1      21.053  -9.365  26.411  0.00  0.00    +0.000 A 
ATOM      2  C   UNL     1      21.776  -8.566  25.562  0.00  0.00    +0.000 A 
ATOM      3  C   UNL     1      21.367  -7.287  25.237  0.00  0.00    +0.000 A 
ATOM      4  C   UNL     1      20.190  -6.852  25.814  0.00  0.00    +0.000 A 
ATOM      5  C   UNL     1      19.455  -7.648  26.669  0.00  0.00    +0.000 A 
ATOM      6  C   UNL     1      19.877  -8.923  26.984  0.00  0.00    +0.000 A 
ATOM      7  N   UNL     1      19.156  -9.777  27.857  0.00  0.00    +0.000 NA
ENDROOT
BRANCH   1   9
ATOM      8  C   UNL     1      22.589 -10.870  27.565  0.00  0.00    +0.000 C 
ATOM      9  O   UNL     1      21.495 -10.648  26.716  0.00  0.00    +0.000 OA
ENDBRANCH   1   9
BRANCH   4  10
ATOM     10  O   UNL     1      19.726  -5.587  25.533  0.00  0.00    +0.000 OA
ATOM     11  C   UNL     1      18.952  -4.850  26.441  0.00  0.00    +0.000 C 
ENDBRANCH   4  10
BRANCH   3  12
ATOM     12  S   UNL     1      22.316  -6.253  24.129  0.00  0.00    +0.000 S 
BRANCH  12  13
ATOM     13  C   UNL     1      23.695  -7.125  23.425  0.00  0.00    +0.000 A 
ATOM     14  C   UNL     1      23.469  -8.130  22.507  0.00  0.00    +0.000 A 
ATOM     15  C   UNL     1      24.525  -8.834  21.933  0.00  0.00    +0.000 A 
ATOM     16  C   UNL     1      25.831  -8.545  22.269  0.00  0.00    +0.000 A 
ATOM     17  C   UNL     1      26.971  -9.312  21.645  0.00  0.00    +0.000 C 
ATOM     18  C   UNL     1      26.068  -7.546  23.183  0.00  0.00    +0.000 A 
ATOM     19  C   UNL     1      25.010  -6.867  23.732  0.00  0.00    +0.000 A 
ENDBRANCH  12  13
ENDBRANCH   3  12
TORSDOF 4
ENDMDL
MODEL 9
REMARK VINA RESULT:      -5.2     17.156     19.140
REMARK  Name = 
REMARK  4 active torsions:
REMARK  status: ('A' for Active; 'I' for Inactive)
REMARK    1  A    between atoms: O_2  and  C_3
REMARK    2  A    between atoms: C_5  and  S_6
REMARK    3  A    between atoms: S_6  and  C_7
REMARK    4  A    between atoms: C_14  and  O_15
REMARK                            x       y       z     vdW  Elec       q    Type
REMARK                         _______ _______ _______ _____ _____    ______ ____
ROOT
ATOM      1  C   UNL     1      25.538  24.794  28.763  0.00  0.00    +0.000 A 
ATOM      2  C   UNL     1      26.302  23.969  27.979  0.00  0.00    +0.000 A 
ATOM      3  C   UNL     1      27.213  23.084  28.520  0.00  0.00    +0.000 A 
ATOM      4  C   UNL     1      27.315  23.071  29.898  0.00  0.00    +0.000 A 
ATOM      5  C   UNL     1      26.550  23.898  30.696  0.00  0.00    +0.000 A 
ATOM      6  C   UNL     1      25.645  24.777  30.140  0.00  0.00    +0.000 A 
ATOM      7  N   UNL     1      24.838  25.645  30.918  0.00  0.00    +0.000 NA
ENDROOT
BRANCH   1   9
ATOM      8  C   UNL     1      24.386  25.678  26.801  0.00  0.00    +0.000 C 
ATOM      9  O   UNL     1      24.630  25.674  28.182  0.00  0.00    +0.000 OA
ENDBRANCH   1   9
BRANCH   4  10
ATOM     10  O   UNL     1      28.203  22.212  30.503  0.00  0.00    +0.000 OA
ATOM     11  C   UNL     1      29.387  22.657  31.111  0.00  0.00    +0.000 C 
ENDBRANCH   4  10
BRANCH   3  12
ATOM     12  S   UNL     1      28.205  22.011  27.490  0.00  0.00    +0.000 S 
BRANCH  12  13
ATOM     13  C   UNL     1      28.347  22.630  25.830  0.00  0.00    +0.000 A 
ATOM     14  C   UNL     1      29.597  22.780  25.264  0.00  0.00    +0.000 A 
ATOM     15  C   UNL     1      29.748  23.261  23.965  0.00  0.00    +0.000 A 
ATOM     16  C   UNL     1      28.647  23.603  23.207  0.00  0.00    +0.000 A 
ATOM     17  C   UNL     1      28.816  24.124  21.802  0.00  0.00    +0.000 C 
ATOM     18  C   UNL     1      27.397  23.458  23.762  0.00  0.00    +0.000 A 
ATOM     19  C   UNL     1      27.278  22.981  25.042  0.00  0.00    +0.000 A 
ENDBRANCH  12  13
ENDBRANCH   3  12
TORSDOF 4
ENDMDL
MODEL 10
REMARK VINA RESULT:      -5.2     17.550     19.493
REMARK  Name = 
REMARK  4 active torsions:
REMARK  status: ('A' for Active; 'I' for Inactive)
REMARK    1  A    between atoms: O_2  and  C_3
REMARK    2  A    between atoms: C_5  and  S_6
REMARK    3  A    between atoms: S_6  and  C_7
REMARK    4  A    between atoms: C_14  and  O_15
REMARK                            x       y       z     vdW  Elec       q    Type
REMARK                         _______ _______ _______ _____ _____    ______ ____
ROOT
ATOM      1  C   UNL     1      25.658  24.468  28.767  0.00  0.00    +0.000 A 
ATOM      2  C   UNL     1      26.646  23.538  28.566  0.00  0.00    +0.000 A 
ATOM      3  C   UNL     1      27.024  23.134  27.301  0.00  0.00    +0.000 A 
ATOM      4  C   UNL     1      26.354  23.718  26.243  0.00  0.00    +0.000 A 
ATOM      5  C   UNL     1      25.359  24.655  26.434  0.00  0.00    +0.000 A 
ATOM      6  C   UNL     1      24.993  25.048  27.704  0.00  0.00    +0.000 A 
ATOM      7  N   UNL     1      23.977  26.006  27.950  0.00  0.00    +0.000 NA
ENDROOT
BRANCH   1   9
ATOM      8  C   UNL     1      26.247  24.918  31.092  0.00  0.00    +0.000 C 
ATOM      9  O   UNL     1      25.303  24.851  30.056  0.00  0.00    +0.000 OA
ENDBRANCH   1   9
BRANCH   4  10
ATOM     10  O   UNL     1      26.682  23.361  24.955  0.00  0.00    +0.000 OA
ATOM     11  C   UNL     1      26.324  24.139  23.844  0.00  0.00    +0.000 C 
ENDBRANCH   4  10
BRANCH   3  12
ATOM     12  S   UNL     1      28.312  21.921  27.050  0.00  0.00    +0.000 S 
BRANCH  12  13
ATOM     13  C   UNL     1      29.801  22.656  26.415  0.00  0.00    +0.000 A 
ATOM     14  C   UNL     1      30.096  22.544  25.072  0.00  0.00    +0.000 A 
ATOM     15  C   UNL     1      31.253  23.106  24.538  0.00  0.00    +0.000 A 
ATOM     16  C   UNL     1      32.138  23.795  25.341  0.00  0.00    +0.000 A 
ATOM     17  C   UNL     1      33.391  24.402  24.758  0.00  0.00    +0.000 C 
ATOM     18  C   UNL     1      31.854  23.912  26.681  0.00  0.00    +0.000 A 
ATOM     19  C   UNL     1      30.707  23.348  27.180  0.00  0.00    +0.000 A 
ENDBRANCH  12  13
ENDBRANCH   3  12
TORSDOF 4
ENDMDL
