MODEL 1
REMARK VINA RESULT:      -8.1      0.000      0.000
REMARK  Name = 
REMARK  8 active torsions:
REMARK  status: ('A' for Active; 'I' for Inactive)
REMARK    1  A    between atoms: O_2  and  C_3
REMARK    2  A    between atoms: C_8  and  C_9
REMARK    3  A    between atoms: C_9  and  C_10
REMARK    4  A    between atoms: C_10  and  N_11
REMARK    5  A    between atoms: C_12  and  C_14
REMARK    6  A    between atoms: C_14  and  N_21
REMARK    7  A    between atoms: C_15  and  C_16
REMARK    8  A    between atoms: C_22  and  C_24
REMARK                            x       y       z     vdW  Elec       q    Type
REMARK                         _______ _______ _______ _____ _____    ______ ____
ROOT
ATOM      1  C   UNL     1      38.052   3.780  15.666  0.00  0.00    +0.000 C 
ATOM      2  C   UNL     1      39.040   3.241  15.035  0.00  0.00    +0.000 C 
ENDROOT
BRANCH   2   3
ATOM      3  C   UNL     1      39.102   2.018  14.308  0.00  0.00    +0.000 A 
ATOM      4  C   UNL     1      39.594   0.795  14.675  0.00  0.00    +0.000 A 
ATOM      5  C   UNL     1      39.434  -0.059  13.641  0.00  0.00    +0.000 A 
ATOM      6  C   UNL     1      38.830   0.655  12.625  0.00  0.00    +0.000 A 
ATOM      7  O   UNL     1      38.658   1.855  13.055  0.00  0.00    +0.000 OA
ENDBRANCH   2   3
BRANCH   1   9
ATOM      8  N   UNL     1      36.371   2.173  16.601  0.00  0.00    +0.000 NA
ATOM      9  C   UNL     1      36.759   3.140  15.718  0.00  0.00    +0.000 C 
ATOM     10  O   UNL     1      35.879   3.511  14.851  0.00  0.00    +0.000 OA
BRANCH   8  11
ATOM     11  C   UNL     1      35.292   1.414  16.915  0.00  0.00    +0.000 C 
BRANCH  11  12
ATOM     12  C   UNL     1      35.258  -0.011  16.883  0.00  0.00    +0.000 C 
BRANCH  12  18
ATOM     13  C   UNL     1      37.141  -1.629  16.812  0.00  0.00    +0.000 A 
ATOM     14  C   UNL     1      38.109  -2.414  17.440  0.00  0.00    +0.000 A 
ATOM     15  C   UNL     1      38.216  -2.425  18.803  0.00  0.00    +0.000 A 
ATOM     16  C   UNL     1      37.337  -1.634  19.550  0.00  0.00    +0.000 A 
ATOM     17  C   UNL     1      36.408  -0.881  18.907  0.00  0.00    +0.000 A 
ATOM     18  C   UNL     1      36.255  -0.833  17.524  0.00  0.00    +0.000 A 
BRANCH  13  20
ATOM     19  C   UNL     1      36.734  -2.903  14.809  0.00  0.00    +0.000 C 
ATOM     20  O   UNL     1      37.068  -1.649  15.419  0.00  0.00    +0.000 OA
ENDBRANCH  13  20
ENDBRANCH  12  18
ENDBRANCH  11  12
ENDBRANCH   8  11
ENDBRANCH   1   9
BRANCH   1  21
ATOM     21  N   UNL     1      38.214   5.056  16.351  0.00  0.00    +0.000 NA
ATOM     22  C   UNL     1      38.493   5.053  17.726  0.00  0.00    +0.000 C 
ATOM     23  O   UNL     1      38.586   3.917  18.273  0.00  0.00    +0.000 OA
BRANCH  22  24
ATOM     24  C   UNL     1      38.678   6.232  18.554  0.00  0.00    +0.000 A 
ATOM     25  C   UNL     1      39.683   6.295  19.513  0.00  0.00    +0.000 A 
ATOM     26  C   UNL     1      39.871   7.407  20.300  0.00  0.00    +0.000 A 
ATOM     27  C   UNL     1      39.058   8.525  20.170  0.00  0.00    +0.000 A 
ATOM     28  C   UNL     1      39.245   9.737  21.006  0.00  0.00    +0.000 C 
ATOM     29  C   UNL     1      38.048   8.448  19.198  0.00  0.00    +0.000 A 
ATOM     30  C   UNL     1      37.188   9.668  19.078  0.00  0.00    +0.000 C 
ATOM     31  C   UNL     1      37.869   7.337  18.419  0.00  0.00    +0.000 A 
ENDBRANCH  22  24
ENDBRANCH   1  21
TORSDOF 8
ENDMDL
MODEL 2
REMARK VINA RESULT:      -8.0      0.992      1.863
REMARK  Name = 
REMARK  8 active torsions:
REMARK  status: ('A' for Active; 'I' for Inactive)
REMARK    1  A    between atoms: O_2  and  C_3
REMARK    2  A    between atoms: C_8  and  C_9
REMARK    3  A    between atoms: C_9  and  C_10
REMARK    4  A    between atoms: C_10  and  N_11
REMARK    5  A    between atoms: C_12  and  C_14
REMARK    6  A    between atoms: C_14  and  N_21
REMARK    7  A    between atoms: C_15  and  C_16
REMARK    8  A    between atoms: C_22  and  C_24
REMARK                            x       y       z     vdW  Elec       q    Type
REMARK                         _______ _______ _______ _____ _____    ______ ____
ROOT
ATOM      1  C   UNL     1      37.872   3.773  16.045  0.00  0.00    +0.000 C 
ATOM      2  C   UNL     1      38.789   3.308  15.264  0.00  0.00    +0.000 C 
ENDROOT
BRANCH   2   3
ATOM      3  C   UNL     1      38.859   2.062  14.578  0.00  0.00    +0.000 A 
ATOM      4  C   UNL     1      38.287   1.668  13.399  0.00  0.00    +0.000 A 
ATOM      5  C   UNL     1      38.642   0.388  13.156  0.00  0.00    +0.000 A 
ATOM      6  C   UNL     1      39.448  -0.007  14.206  0.00  0.00    +0.000 A 
ATOM      7  O   UNL     1      39.545   0.995  15.007  0.00  0.00    +0.000 OA
ENDBRANCH   2   3
BRANCH   1   9
ATOM      8  N   UNL     1      36.641   1.864  17.103  0.00  0.00    +0.000 NA
ATOM      9  C   UNL     1      36.690   3.003  16.352  0.00  0.00    +0.000 C 
ATOM     10  O   UNL     1      35.568   3.425  15.875  0.00  0.00    +0.000 OA
BRANCH   8  11
ATOM     11  C   UNL     1      35.748   0.955  17.568  0.00  0.00    +0.000 C 
BRANCH  11  12
ATOM     12  C   UNL     1      36.042  -0.414  17.841  0.00  0.00    +0.000 C 
BRANCH  12  18
ATOM     13  C   UNL     1      37.701  -2.086  17.053  0.00  0.00    +0.000 A 
ATOM     14  C   UNL     1      38.196  -2.963  16.086  0.00  0.00    +0.000 A 
ATOM     15  C   UNL     1      37.566  -3.093  14.880  0.00  0.00    +0.000 A 
ATOM     16  C   UNL     1      36.419  -2.330  14.638  0.00  0.00    +0.000 A 
ATOM     17  C   UNL     1      35.963  -1.487  15.601  0.00  0.00    +0.000 A 
ATOM     18  C   UNL     1      36.566  -1.316  16.844  0.00  0.00    +0.000 A 
BRANCH  13  20
ATOM     19  C   UNL     1      38.460  -3.180  19.060  0.00  0.00    +0.000 C 
ATOM     20  O   UNL     1      38.376  -1.986  18.270  0.00  0.00    +0.000 OA
ENDBRANCH  13  20
ENDBRANCH  12  18
ENDBRANCH  11  12
ENDBRANCH   8  11
ENDBRANCH   1   9
BRANCH   1  21
ATOM     21  N   UNL     1      38.007   5.093  16.647  0.00  0.00    +0.000 NA
ATOM     22  C   UNL     1      38.470   5.189  17.967  0.00  0.00    +0.000 C 
ATOM     23  O   UNL     1      38.742   4.096  18.543  0.00  0.00    +0.000 OA
BRANCH  22  24
ATOM     24  C   UNL     1      38.655   6.423  18.711  0.00  0.00    +0.000 A 
ATOM     25  C   UNL     1      39.627   6.535  19.699  0.00  0.00    +0.000 A 
ATOM     26  C   UNL     1      39.816   7.699  20.407  0.00  0.00    +0.000 A 
ATOM     27  C   UNL     1      39.036   8.822  20.164  0.00  0.00    +0.000 A 
ATOM     28  C   UNL     1      39.224  10.090  20.914  0.00  0.00    +0.000 C 
ATOM     29  C   UNL     1      38.059   8.695  19.164  0.00  0.00    +0.000 A 
ATOM     30  C   UNL     1      37.235   9.921  18.922  0.00  0.00    +0.000 C 
ATOM     31  C   UNL     1      37.880   7.532  18.464  0.00  0.00    +0.000 A 
ENDBRANCH  22  24
ENDBRANCH   1  21
TORSDOF 8
ENDMDL
MODEL 3
REMARK VINA RESULT:      -7.7      4.160      5.628
REMARK  Name = 
REMARK  8 active torsions:
REMARK  status: ('A' for Active; 'I' for Inactive)
REMARK    1  A    between atoms: O_2  and  C_3
REMARK    2  A    between atoms: C_8  and  C_9
REMARK    3  A    between atoms: C_9  and  C_10
REMARK    4  A    between atoms: C_10  and  N_11
REMARK    5  A    between atoms: C_12  and  C_14
REMARK    6  A    between atoms: C_14  and  N_21
REMARK    7  A    between atoms: C_15  and  C_16
REMARK    8  A    between atoms: C_22  and  C_24
REMARK                            x       y       z     vdW  Elec       q    Type
REMARK                         _______ _______ _______ _____ _____    ______ ____
ROOT
ATOM      1  C   UNL     1      35.820   1.641  15.260  0.00  0.00    +0.000 C 
ATOM      2  C   UNL     1      35.283   1.408  16.410  0.00  0.00    +0.000 C 
ENDROOT
BRANCH   2   3
ATOM      3  C   UNL     1      35.640   0.459  17.411  0.00  0.00    +0.000 A 
ATOM      4  C   UNL     1      35.255  -0.845  17.569  0.00  0.00    +0.000 A 
ATOM      5  C   UNL     1      35.857  -1.338  18.672  0.00  0.00    +0.000 A 
ATOM      6  C   UNL     1      36.625  -0.317  19.197  0.00  0.00    +0.000 A 
ATOM      7  O   UNL     1      36.468   0.706  18.434  0.00  0.00    +0.000 OA
ENDBRANCH   2   3
BRANCH   1   9
ATOM      8  N   UNL     1      36.941  -0.142  13.902  0.00  0.00    +0.000 NA
ATOM      9  C   UNL     1      36.962   0.885  14.801  0.00  0.00    +0.000 C 
ATOM     10  O   UNL     1      38.115   1.204  15.282  0.00  0.00    +0.000 OA
BRANCH   8  11
ATOM     11  C   UNL     1      37.782  -1.006  13.280  0.00  0.00    +0.000 C 
BRANCH  11  12
ATOM     12  C   UNL     1      37.883  -2.400  13.568  0.00  0.00    +0.000 C 
BRANCH  12  18
ATOM     13  C   UNL     1      37.109  -3.901  15.387  0.00  0.00    +0.000 A 
ATOM     14  C   UNL     1      37.199  -4.404  16.687  0.00  0.00    +0.000 A 
ATOM     15  C   UNL     1      38.149  -3.931  17.549  0.00  0.00    +0.000 A 
ATOM     16  C   UNL     1      39.026  -2.938  17.100  0.00  0.00    +0.000 A 
ATOM     17  C   UNL     1      38.911  -2.473  15.829  0.00  0.00    +0.000 A 
ATOM     18  C   UNL     1      37.963  -2.918  14.912  0.00  0.00    +0.000 A 
BRANCH  13  20
ATOM     19  C   UNL     1      34.776  -3.989  14.793  0.00  0.00    +0.000 C 
ATOM     20  O   UNL     1      36.123  -4.413  14.542  0.00  0.00    +0.000 OA
ENDBRANCH  13  20
ENDBRANCH  12  18
ENDBRANCH  11  12
ENDBRANCH   8  11
ENDBRANCH   1   9
BRANCH   1  21
ATOM     21  N   UNL     1      35.285   2.675  14.384  0.00  0.00    +0.000 NA
ATOM     22  C   UNL     1      35.774   3.984  14.508  0.00  0.00    +0.000 C 
ATOM     23  O   UNL     1      36.664   4.166  15.388  0.00  0.00    +0.000 OA
BRANCH  22  24
ATOM     24  C   UNL     1      35.344   5.125  13.719  0.00  0.00    +0.000 A 
ATOM     25  C   UNL     1      34.343   5.980  14.166  0.00  0.00    +0.000 A 
ATOM     26  C   UNL     1      33.930   7.067  13.430  0.00  0.00    +0.000 A 
ATOM     27  C   UNL     1      34.500   7.358  12.198  0.00  0.00    +0.000 A 
ATOM     28  C   UNL     1      34.073   8.527  11.388  0.00  0.00    +0.000 C 
ATOM     29  C   UNL     1      35.510   6.487  11.759  0.00  0.00    +0.000 A 
ATOM     30  C   UNL     1      36.108   6.827  10.429  0.00  0.00    +0.000 C 
ATOM     31  C   UNL     1      35.914   5.408  12.499  0.00  0.00    +0.000 A 
ENDBRANCH  22  24
ENDBRANCH   1  21
TORSDOF 8
ENDMDL
MODEL 4
REMARK VINA RESULT:      -7.4      2.666      3.677
REMARK  Name = 
REMARK  8 active torsions:
REMARK  status: ('A' for Active; 'I' for Inactive)
REMARK    1  A    between atoms: O_2  and  C_3
REMARK    2  A    between atoms: C_8  and  C_9
REMARK    3  A    between atoms: C_9  and  C_10
REMARK    4  A    between atoms: C_10  and  N_11
REMARK    5  A    between atoms: C_12  and  C_14
REMARK    6  A    between atoms: C_14  and  N_21
REMARK    7  A    between atoms: C_15  and  C_16
REMARK    8  A    between atoms: C_22  and  C_24
REMARK                            x       y       z     vdW  Elec       q    Type
REMARK                         _______ _______ _______ _____ _____    ______ ____
ROOT
ATOM      1  C   UNL     1      37.408   5.399  15.447  0.00  0.00    +0.000 C 
ATOM      2  C   UNL     1      37.105   6.353  14.633  0.00  0.00    +0.000 C 
ENDROOT
BRANCH   2   3
ATOM      3  C   UNL     1      36.405   6.310  13.393  0.00  0.00    +0.000 A 
ATOM      4  C   UNL     1      35.091   6.567  13.110  0.00  0.00    +0.000 A 
ATOM      5  C   UNL     1      34.896   6.390  11.786  0.00  0.00    +0.000 A 
ATOM      6  C   UNL     1      36.113   6.020  11.250  0.00  0.00    +0.000 A 
ATOM      7  O   UNL     1      36.959   5.984  12.218  0.00  0.00    +0.000 OA
ENDBRANCH   2   3
BRANCH   1   9
ATOM      8  N   UNL     1      35.861   3.428  15.491  0.00  0.00    +0.000 NA
ATOM      9  C   UNL     1      37.042   4.031  15.165  0.00  0.00    +0.000 C 
ATOM     10  O   UNL     1      37.907   3.302  14.546  0.00  0.00    +0.000 OA
BRANCH   8  11
ATOM     11  C   UNL     1      35.228   2.235  15.370  0.00  0.00    +0.000 C 
BRANCH  11  12
ATOM     12  C   UNL     1      35.868   0.961  15.412  0.00  0.00    +0.000 C 
BRANCH  12  18
ATOM     13  C   UNL     1      37.048  -0.779  16.734  0.00  0.00    +0.000 A 
ATOM     14  C   UNL     1      37.302  -1.450  17.932  0.00  0.00    +0.000 A 
ATOM     15  C   UNL     1      36.636  -1.103  19.075  0.00  0.00    +0.000 A 
ATOM     16  C   UNL     1      35.702  -0.064  19.017  0.00  0.00    +0.000 A 
ATOM     17  C   UNL     1      35.481   0.569  17.836  0.00  0.00    +0.000 A 
ATOM     18  C   UNL     1      36.129   0.256  16.644  0.00  0.00    +0.000 A 
BRANCH  13  20
ATOM     19  C   UNL     1      39.141  -1.471  15.763  0.00  0.00    +0.000 C 
ATOM     20  O   UNL     1      37.750  -1.167  15.592  0.00  0.00    +0.000 OA
ENDBRANCH  13  20
ENDBRANCH  12  18
ENDBRANCH  11  12
ENDBRANCH   8  11
ENDBRANCH   1   9
BRANCH   1  21
ATOM     21  N   UNL     1      38.138   5.675  16.678  0.00  0.00    +0.000 NA
ATOM     22  C   UNL     1      39.533   5.807  16.620  0.00  0.00    +0.000 C 
ATOM     23  O   UNL     1      40.059   5.677  15.477  0.00  0.00    +0.000 OA
BRANCH  22  24
ATOM     24  C   UNL     1      40.405   6.076  17.750  0.00  0.00    +0.000 A 
ATOM     25  C   UNL     1      39.931   6.036  19.057  0.00  0.00    +0.000 A 
ATOM     26  C   UNL     1      40.747   6.285  20.136  0.00  0.00    +0.000 A 
ATOM     27  C   UNL     1      42.091   6.590  19.965  0.00  0.00    +0.000 A 
ATOM     28  C   UNL     1      42.991   6.859  21.115  0.00  0.00    +0.000 C 
ATOM     29  C   UNL     1      42.555   6.627  18.641  0.00  0.00    +0.000 A 
ATOM     30  C   UNL     1      44.008   6.957  18.487  0.00  0.00    +0.000 C 
ATOM     31  C   UNL     1      41.735   6.377  17.573  0.00  0.00    +0.000 A 
ENDBRANCH  22  24
ENDBRANCH   1  21
TORSDOF 8
ENDMDL
MODEL 5
REMARK VINA RESULT:      -7.4      2.393      8.559
REMARK  Name = 
REMARK  8 active torsions:
REMARK  status: ('A' for Active; 'I' for Inactive)
REMARK    1  A    between atoms: O_2  and  C_3
REMARK    2  A    between atoms: C_8  and  C_9
REMARK    3  A    between atoms: C_9  and  C_10
REMARK    4  A    between atoms: C_10  and  N_11
REMARK    5  A    between atoms: C_12  and  C_14
REMARK    6  A    between atoms: C_14  and  N_21
REMARK    7  A    between atoms: C_15  and  C_16
REMARK    8  A    between atoms: C_22  and  C_24
REMARK                            x       y       z     vdW  Elec       q    Type
REMARK                         _______ _______ _______ _____ _____    ______ ____
ROOT
ATOM      1  C   UNL     1      36.859   2.167  15.596  0.00  0.00    +0.000 C 
ATOM      2  C   UNL     1      36.047   2.542  14.666  0.00  0.00    +0.000 C 
ENDROOT
BRANCH   2   3
ATOM      3  C   UNL     1      35.925   3.801  14.012  0.00  0.00    +0.000 A 
ATOM      4  C   UNL     1      36.625   4.321  12.957  0.00  0.00    +0.000 A 
ATOM      5  C   UNL     1      36.148   5.556  12.692  0.00  0.00    +0.000 A 
ATOM      6  C   UNL     1      35.137   5.795  13.601  0.00  0.00    +0.000 A 
ATOM      7  O   UNL     1      35.043   4.752  14.347  0.00  0.00    +0.000 OA
ENDBRANCH   2   3
BRANCH   1   9
ATOM      8  N   UNL     1      37.704   3.819  17.281  0.00  0.00    +0.000 NA
ATOM      9  C   UNL     1      37.839   3.075  16.144  0.00  0.00    +0.000 C 
ATOM     10  O   UNL     1      38.952   3.202  15.504  0.00  0.00    +0.000 OA
BRANCH   8  11
ATOM     11  C   UNL     1      38.395   4.708  18.038  0.00  0.00    +0.000 C 
BRANCH  11  12
ATOM     12  C   UNL     1      39.301   5.685  17.529  0.00  0.00    +0.000 C 
BRANCH  12  18
ATOM     13  C   UNL     1      41.686   6.376  17.551  0.00  0.00    +0.000 A 
ATOM     14  C   UNL     1      42.850   6.752  18.225  0.00  0.00    +0.000 A 
ATOM     15  C   UNL     1      42.867   6.826  19.590  0.00  0.00    +0.000 A 
ATOM     16  C   UNL     1      41.697   6.518  20.293  0.00  0.00    +0.000 A 
ATOM     17  C   UNL     1      40.582   6.157  19.605  0.00  0.00    +0.000 A 
ATOM     18  C   UNL     1      40.510   6.065  18.218  0.00  0.00    +0.000 A 
BRANCH  13  20
ATOM     19  C   UNL     1      41.910   7.552  15.461  0.00  0.00    +0.000 C 
ATOM     20  O   UNL     1      41.715   6.313  16.157  0.00  0.00    +0.000 OA
ENDBRANCH  13  20
ENDBRANCH  12  18
ENDBRANCH  11  12
ENDBRANCH   8  11
ENDBRANCH   1   9
BRANCH   1  21
ATOM     21  N   UNL     1      36.808   0.811  16.127  0.00  0.00    +0.000 NA
ATOM     22  C   UNL     1      37.580  -0.185  15.511  0.00  0.00    +0.000 C 
ATOM     23  O   UNL     1      38.278   0.183  14.522  0.00  0.00    +0.000 OA
BRANCH  22  24
ATOM     24  C   UNL     1      37.637  -1.579  15.912  0.00  0.00    +0.000 A 
ATOM     25  C   UNL     1      38.684  -2.069  16.685  0.00  0.00    +0.000 A 
ATOM     26  C   UNL     1      38.747  -3.387  17.075  0.00  0.00    +0.000 A 
ATOM     27  C   UNL     1      37.761  -4.292  16.710  0.00  0.00    +0.000 A 
ATOM     28  C   UNL     1      37.808  -5.718  17.121  0.00  0.00    +0.000 C 
ATOM     29  C   UNL     1      36.710  -3.784  15.929  0.00  0.00    +0.000 A 
ATOM     30  C   UNL     1      35.660  -4.783  15.552  0.00  0.00    +0.000 C 
ATOM     31  C   UNL     1      36.655  -2.471  15.547  0.00  0.00    +0.000 A 
ENDBRANCH  22  24
ENDBRANCH   1  21
TORSDOF 8
ENDMDL
MODEL 6
REMARK VINA RESULT:      -7.3      5.159      7.794
REMARK  Name = 
REMARK  8 active torsions:
REMARK  status: ('A' for Active; 'I' for Inactive)
REMARK    1  A    between atoms: O_2  and  C_3
REMARK    2  A    between atoms: C_8  and  C_9
REMARK    3  A    between atoms: C_9  and  C_10
REMARK    4  A    between atoms: C_10  and  N_11
REMARK    5  A    between atoms: C_12  and  C_14
REMARK    6  A    between atoms: C_14  and  N_21
REMARK    7  A    between atoms: C_15  and  C_16
REMARK    8  A    between atoms: C_22  and  C_24
REMARK                            x       y       z     vdW  Elec       q    Type
REMARK                         _______ _______ _______ _____ _____    ______ ____
ROOT
ATOM      1  C   UNL     1      37.549   0.311  12.157  0.00  0.00    +0.000 C 
ATOM      2  C   UNL     1      38.523  -0.535  12.115  0.00  0.00    +0.000 C 
ENDROOT
BRANCH   2   3
ATOM      3  C   UNL     1      39.337  -1.044  13.167  0.00  0.00    +0.000 A 
ATOM      4  C   UNL     1      39.116  -2.080  14.033  0.00  0.00    +0.000 A 
ATOM      5  C   UNL     1      40.179  -2.183  14.860  0.00  0.00    +0.000 A 
ATOM      6  C   UNL     1      41.067  -1.192  14.490  0.00  0.00    +0.000 A 
ATOM      7  O   UNL     1      40.537  -0.555  13.506  0.00  0.00    +0.000 OA
ENDBRANCH   2   3
BRANCH   1   9
ATOM      8  N   UNL     1      36.327   0.330  14.345  0.00  0.00    +0.000 NA
ATOM      9  C   UNL     1      37.129   0.908  13.403  0.00  0.00    +0.000 C 
ATOM     10  O   UNL     1      37.549   2.100  13.659  0.00  0.00    +0.000 OA
BRANCH   8  11
ATOM     11  C   UNL     1      35.783   0.593  15.559  0.00  0.00    +0.000 C 
BRANCH  11  12
ATOM     12  C   UNL     1      35.435  -0.393  16.529  0.00  0.00    +0.000 C 
BRANCH  12  18
ATOM     13  C   UNL     1      36.995  -2.244  17.083  0.00  0.00    +0.000 A 
ATOM     14  C   UNL     1      37.398  -3.578  16.997  0.00  0.00    +0.000 A 
ATOM     15  C   UNL     1      36.677  -4.473  16.257  0.00  0.00    +0.000 A 
ATOM     16  C   UNL     1      35.531  -4.024  15.592  0.00  0.00    +0.000 A 
ATOM     17  C   UNL     1      35.167  -2.720  15.699  0.00  0.00    +0.000 A 
ATOM     18  C   UNL     1      35.864  -1.768  16.437  0.00  0.00    +0.000 A 
BRANCH  13  20
ATOM     19  C   UNL     1      37.677  -1.510  19.274  0.00  0.00    +0.000 C 
ATOM     20  O   UNL     1      37.761  -1.365  17.850  0.00  0.00    +0.000 OA
ENDBRANCH  13  20
ENDBRANCH  12  18
ENDBRANCH  11  12
ENDBRANCH   8  11
ENDBRANCH   1   9
BRANCH   1  21
ATOM     21  N   UNL     1      36.845   0.695  10.940  0.00  0.00    +0.000 NA
ATOM     22  C   UNL     1      37.433   1.643  10.090  0.00  0.00    +0.000 C 
ATOM     23  O   UNL     1      38.556   2.098  10.455  0.00  0.00    +0.000 OA
BRANCH  22  24
ATOM     24  C   UNL     1      36.863   2.135   8.848  0.00  0.00    +0.000 A 
ATOM     25  C   UNL     1      36.925   1.389   7.676  0.00  0.00    +0.000 A 
ATOM     26  C   UNL     1      36.385   1.841   6.495  0.00  0.00    +0.000 A 
ATOM     27  C   UNL     1      35.749   3.073   6.421  0.00  0.00    +0.000 A 
ATOM     28  C   UNL     1      35.157   3.580   5.157  0.00  0.00    +0.000 C 
ATOM     29  C   UNL     1      35.693   3.815   7.611  0.00  0.00    +0.000 A 
ATOM     30  C   UNL     1      35.000   5.138   7.502  0.00  0.00    +0.000 C 
ATOM     31  C   UNL     1      36.233   3.356   8.782  0.00  0.00    +0.000 A 
ENDBRANCH  22  24
ENDBRANCH   1  21
TORSDOF 8
ENDMDL
MODEL 7
REMARK VINA RESULT:      -7.3     24.625     28.777
REMARK  Name = 
REMARK  8 active torsions:
REMARK  status: ('A' for Active; 'I' for Inactive)
REMARK    1  A    between atoms: O_2  and  C_3
REMARK    2  A    between atoms: C_8  and  C_9
REMARK    3  A    between atoms: C_9  and  C_10
REMARK    4  A    between atoms: C_10  and  N_11
REMARK    5  A    between atoms: C_12  and  C_14
REMARK    6  A    between atoms: C_14  and  N_21
REMARK    7  A    between atoms: C_15  and  C_16
REMARK    8  A    between atoms: C_22  and  C_24
REMARK                            x       y       z     vdW  Elec       q    Type
REMARK                         _______ _______ _______ _____ _____    ______ ____
ROOT
ATOM      1  C   UNL     1      25.651  15.077  40.542  0.00  0.00    +0.000 C 
ATOM      2  C   UNL     1      25.438  15.720  41.640  0.00  0.00    +0.000 C 
ENDROOT
BRANCH   2   3
ATOM      3  C   UNL     1      24.493  16.745  41.931  0.00  0.00    +0.000 A 
ATOM      4  C   UNL     1      24.633  18.106  41.916  0.00  0.00    +0.000 A 
ATOM      5  C   UNL     1      23.453  18.662  42.267  0.00  0.00    +0.000 A 
ATOM      6  C   UNL     1      22.577  17.621  42.500  0.00  0.00    +0.000 A 
ATOM      7  O   UNL     1      23.222  16.528  42.294  0.00  0.00    +0.000 OA
ENDBRANCH   2   3
BRANCH   1   9
ATOM      8  N   UNL     1      25.071  16.392  38.489  0.00  0.00    +0.000 NA
ATOM      9  C   UNL     1      24.880  15.352  39.353  0.00  0.00    +0.000 C 
ATOM     10  O   UNL     1      23.917  14.542  39.071  0.00  0.00    +0.000 OA
BRANCH   8  11
ATOM     11  C   UNL     1      24.565  16.904  37.340  0.00  0.00    +0.000 C 
BRANCH  11  12
ATOM     12  C   UNL     1      25.336  17.252  36.190  0.00  0.00    +0.000 C 
BRANCH  12  18
ATOM     13  C   UNL     1      24.828  16.942  33.780  0.00  0.00    +0.000 A 
ATOM     14  C   UNL     1      24.839  16.179  32.611  0.00  0.00    +0.000 A 
ATOM     15  C   UNL     1      25.359  14.914  32.613  0.00  0.00    +0.000 A 
ATOM     16  C   UNL     1      25.878  14.405  33.808  0.00  0.00    +0.000 A 
ATOM     17  C   UNL     1      25.852  15.175  34.927  0.00  0.00    +0.000 A 
ATOM     18  C   UNL     1      25.335  16.467  34.980  0.00  0.00    +0.000 A 
BRANCH  13  20
ATOM     19  C   UNL     1      23.952  18.736  32.433  0.00  0.00    +0.000 C 
ATOM     20  O   UNL     1      24.288  18.227  33.731  0.00  0.00    +0.000 OA
ENDBRANCH  13  20
ENDBRANCH  12  18
ENDBRANCH  11  12
ENDBRANCH   8  11
ENDBRANCH   1   9
BRANCH   1  21
ATOM     21  N   UNL     1      26.685  14.052  40.468  0.00  0.00    +0.000 NA
ATOM     22  C   UNL     1      26.449  12.810  41.074  0.00  0.00    +0.000 C 
ATOM     23  O   UNL     1      25.329  12.673  41.647  0.00  0.00    +0.000 OA
BRANCH  22  24
ATOM     24  C   UNL     1      27.373  11.690  41.095  0.00  0.00    +0.000 A 
ATOM     25  C   UNL     1      28.689  11.828  40.670  0.00  0.00    +0.000 A 
ATOM     26  C   UNL     1      29.575  10.775  40.689  0.00  0.00    +0.000 A 
ATOM     27  C   UNL     1      29.190   9.520  41.137  0.00  0.00    +0.000 A 
ATOM     28  C   UNL     1      30.130   8.371  41.169  0.00  0.00    +0.000 C 
ATOM     29  C   UNL     1      27.858   9.395  41.563  0.00  0.00    +0.000 A 
ATOM     30  C   UNL     1      27.470   8.030  42.043  0.00  0.00    +0.000 C 
ATOM     31  C   UNL     1      26.984  10.448  41.542  0.00  0.00    +0.000 A 
ENDBRANCH  22  24
ENDBRANCH   1  21
TORSDOF 8
ENDMDL
MODEL 8
REMARK VINA RESULT:      -7.2      3.416      5.310
REMARK  Name = 
REMARK  8 active torsions:
REMARK  status: ('A' for Active; 'I' for Inactive)
REMARK    1  A    between atoms: O_2  and  C_3
REMARK    2  A    between atoms: C_8  and  C_9
REMARK    3  A    between atoms: C_9  and  C_10
REMARK    4  A    between atoms: C_10  and  N_11
REMARK    5  A    between atoms: C_12  and  C_14
REMARK    6  A    between atoms: C_14  and  N_21
REMARK    7  A    between atoms: C_15  and  C_16
REMARK    8  A    between atoms: C_22  and  C_24
REMARK                            x       y       z     vdW  Elec       q    Type
REMARK                         _______ _______ _______ _____ _____    ______ ____
ROOT
ATOM      1  C   UNL     1      36.870   2.253  15.730  0.00  0.00    +0.000 C 
ATOM      2  C   UNL     1      36.227   2.012  16.823  0.00  0.00    +0.000 C 
ENDROOT
BRANCH   2   3
ATOM      3  C   UNL     1      35.990   0.776  17.490  0.00  0.00    +0.000 A 
ATOM      4  C   UNL     1      35.078  -0.209  17.227  0.00  0.00    +0.000 A 
ATOM      5  C   UNL     1      35.233  -1.193  18.140  0.00  0.00    +0.000 A 
ATOM      6  C   UNL     1      36.262  -0.801  18.974  0.00  0.00    +0.000 A 
ATOM      7  O   UNL     1      36.670   0.346  18.561  0.00  0.00    +0.000 OA
ENDBRANCH   2   3
BRANCH   1   9
ATOM      8  N   UNL     1      38.742   0.689  15.155  0.00  0.00    +0.000 NA
ATOM      9  C   UNL     1      37.484   1.188  14.973  0.00  0.00    +0.000 C 
ATOM     10  O   UNL     1      36.784   0.651  14.032  0.00  0.00    +0.000 OA
BRANCH   8  11
ATOM     11  C   UNL     1      39.573  -0.259  14.657  0.00  0.00    +0.000 C 
BRANCH  11  12
ATOM     12  C   UNL     1      39.687  -1.591  15.155  0.00  0.00    +0.000 C 
BRANCH  12  18
ATOM     13  C   UNL     1      38.221  -3.097  16.478  0.00  0.00    +0.000 A 
ATOM     14  C   UNL     1      37.120  -3.947  16.596  0.00  0.00    +0.000 A 
ATOM     15  C   UNL     1      36.322  -4.202  15.515  0.00  0.00    +0.000 A 
ATOM     16  C   UNL     1      36.633  -3.593  14.295  0.00  0.00    +0.000 A 
ATOM     17  C   UNL     1      37.711  -2.770  14.216  0.00  0.00    +0.000 A 
ATOM     18  C   UNL     1      38.556  -2.478  15.283  0.00  0.00    +0.000 A 
BRANCH  13  20
ATOM     19  C   UNL     1      38.658  -3.590  18.795  0.00  0.00    +0.000 C 
ATOM     20  O   UNL     1      39.008  -2.867  17.608  0.00  0.00    +0.000 OA
ENDBRANCH  13  20
ENDBRANCH  12  18
ENDBRANCH  11  12
ENDBRANCH   8  11
ENDBRANCH   1   9
BRANCH   1  21
ATOM     21  N   UNL     1      36.991   3.614  15.224  0.00  0.00    +0.000 NA
ATOM     22  C   UNL     1      35.873   4.213  14.624  0.00  0.00    +0.000 C 
ATOM     23  O   UNL     1      34.824   3.508  14.573  0.00  0.00    +0.000 OA
BRANCH  22  24
ATOM     24  C   UNL     1      35.829   5.554  14.068  0.00  0.00    +0.000 A 
ATOM     25  C   UNL     1      36.675   6.557  14.525  0.00  0.00    +0.000 A 
ATOM     26  C   UNL     1      36.646   7.830  14.003  0.00  0.00    +0.000 A 
ATOM     27  C   UNL     1      35.762   8.170  12.988  0.00  0.00    +0.000 A 
ATOM     28  C   UNL     1      35.715   9.536  12.408  0.00  0.00    +0.000 C 
ATOM     29  C   UNL     1      34.913   7.147  12.536  0.00  0.00    +0.000 A 
ATOM     30  C   UNL     1      33.972   7.541  11.440  0.00  0.00    +0.000 C 
ATOM     31  C   UNL     1      34.951   5.883  13.061  0.00  0.00    +0.000 A 
ENDBRANCH  22  24
ENDBRANCH   1  21
TORSDOF 8
ENDMDL
MODEL 9
REMARK VINA RESULT:      -7.1      5.146      7.950
REMARK  Name = 
REMARK  8 active torsions:
REMARK  status: ('A' for Active; 'I' for Inactive)
REMARK    1  A    between atoms: O_2  and  C_3
REMARK    2  A    between atoms: C_8  and  C_9
REMARK    3  A    between atoms: C_9  and  C_10
REMARK    4  A    between atoms: C_10  and  N_11
REMARK    5  A    between atoms: C_12  and  C_14
REMARK    6  A    between atoms: C_14  and  N_21
REMARK    7  A    between atoms: C_15  and  C_16
REMARK    8  A    between atoms: C_22  and  C_24
REMARK                            x       y       z     vdW  Elec       q    Type
REMARK                         _______ _______ _______ _____ _____    ______ ____
ROOT
ATOM      1  C   UNL     1      37.425   0.261  12.193  0.00  0.00    +0.000 C 
ATOM      2  C   UNL     1      38.369  -0.618  12.138  0.00  0.00    +0.000 C 
ENDROOT
BRANCH   2   3
ATOM      3  C   UNL     1      39.176  -1.160  13.179  0.00  0.00    +0.000 A 
ATOM      4  C   UNL     1      39.020  -2.303  13.914  0.00  0.00    +0.000 A 
ATOM      5  C   UNL     1      40.043  -2.393  14.790  0.00  0.00    +0.000 A 
ATOM      6  C   UNL     1      40.840  -1.284  14.585  0.00  0.00    +0.000 A 
ATOM      7  O   UNL     1      40.298  -0.596  13.643  0.00  0.00    +0.000 OA
ENDBRANCH   2   3
BRANCH   1   9
ATOM      8  N   UNL     1      36.429   0.237  14.493  0.00  0.00    +0.000 NA
ATOM      9  C   UNL     1      37.040   0.866  13.446  0.00  0.00    +0.000 C 
ATOM     10  O   UNL     1      37.294   2.122  13.600  0.00  0.00    +0.000 OA
BRANCH   8  11
ATOM     11  C   UNL     1      35.969   0.493  15.743  0.00  0.00    +0.000 C 
BRANCH  11  12
ATOM     12  C   UNL     1      35.605  -0.502  16.699  0.00  0.00    +0.000 C 
BRANCH  12  18
ATOM     13  C   UNL     1      36.062  -2.917  16.348  0.00  0.00    +0.000 A 
ATOM     14  C   UNL     1      36.826  -4.066  16.562  0.00  0.00    +0.000 A 
ATOM     15  C   UNL     1      37.935  -4.023  17.359  0.00  0.00    +0.000 A 
ATOM     16  C   UNL     1      38.287  -2.806  17.952  0.00  0.00    +0.000 A 
ATOM     17  C   UNL     1      37.522  -1.707  17.722  0.00  0.00    +0.000 A 
ATOM     18  C   UNL     1      36.383  -1.696  16.921  0.00  0.00    +0.000 A 
BRANCH  13  20
ATOM     19  C   UNL     1      34.857  -4.155  14.669  0.00  0.00    +0.000 C 
ATOM     20  O   UNL     1      34.937  -3.008  15.527  0.00  0.00    +0.000 OA
ENDBRANCH  13  20
ENDBRANCH  12  18
ENDBRANCH  11  12
ENDBRANCH   8  11
ENDBRANCH   1   9
BRANCH   1  21
ATOM     21  N   UNL     1      36.722   0.675  10.985  0.00  0.00    +0.000 NA
ATOM     22  C   UNL     1      37.378   1.517  10.077  0.00  0.00    +0.000 C 
ATOM     23  O   UNL     1      38.558   1.857  10.384  0.00  0.00    +0.000 OA
BRANCH  22  24
ATOM     24  C   UNL     1      36.819   2.022   8.835  0.00  0.00    +0.000 A 
ATOM     25  C   UNL     1      36.224   3.277   8.764  0.00  0.00    +0.000 A 
ATOM     26  C   UNL     1      35.695   3.767   7.593  0.00  0.00    +0.000 A 
ATOM     27  C   UNL     1      35.731   3.024   6.422  0.00  0.00    +0.000 A 
ATOM     28  C   UNL     1      35.168   3.534   5.146  0.00  0.00    +0.000 C 
ATOM     29  C   UNL     1      36.334   1.759   6.508  0.00  0.00    +0.000 A 
ATOM     30  C   UNL     1      36.360   0.980   5.229  0.00  0.00    +0.000 C 
ATOM     31  C   UNL     1      36.859   1.279   7.678  0.00  0.00    +0.000 A 
ENDBRANCH  22  24
ENDBRANCH   1  21
TORSDOF 8
ENDMDL
MODEL 10
REMARK VINA RESULT:      -7.1      2.722      8.500
REMARK  Name = 
REMARK  8 active torsions:
REMARK  status: ('A' for Active; 'I' for Inactive)
REMARK    1  A    between atoms: O_2  and  C_3
REMARK    2  A    between atoms: C_8  and  C_9
REMARK    3  A    between atoms: C_9  and  C_10
REMARK    4  A    between atoms: C_10  and  N_11
REMARK    5  A    between atoms: C_12  and  C_14
REMARK    6  A    between atoms: C_14  and  N_21
REMARK    7  A    between atoms: C_15  and  C_16
REMARK    8  A    between atoms: C_22  and  C_24
REMARK                            x       y       z     vdW  Elec       q    Type
REMARK                         _______ _______ _______ _____ _____    ______ ____
ROOT
ATOM      1  C   UNL     1      36.324   4.526  14.047  0.00  0.00    +0.000 C 
ATOM      2  C   UNL     1      35.255   5.153  13.686  0.00  0.00    +0.000 C 
ENDROOT
BRANCH   2   3
ATOM      3  C   UNL     1      35.001   6.552  13.600  0.00  0.00    +0.000 A 
ATOM      4  C   UNL     1      34.965   7.379  12.511  0.00  0.00    +0.000 A 
ATOM      5  C   UNL     1      34.686   8.631  12.931  0.00  0.00    +0.000 A 
ATOM      6  C   UNL     1      34.547   8.567  14.304  0.00  0.00    +0.000 A 
ATOM      7  O   UNL     1      34.739   7.343  14.649  0.00  0.00    +0.000 OA
ENDBRANCH   2   3
BRANCH   1   9
ATOM      8  N   UNL     1      38.085   5.212  15.692  0.00  0.00    +0.000 NA
ATOM      9  C   UNL     1      37.510   5.242  14.454  0.00  0.00    +0.000 C 
ATOM     10  O   UNL     1      38.087   5.982  13.570  0.00  0.00    +0.000 OA
BRANCH   8  11
ATOM     11  C   UNL     1      39.145   5.724  16.365  0.00  0.00    +0.000 C 
BRANCH  11  12
ATOM     12  C   UNL     1      39.334   5.643  17.777  0.00  0.00    +0.000 C 
BRANCH  12  18
ATOM     13  C   UNL     1      39.546   6.937  19.885  0.00  0.00    +0.000 A 
ATOM     14  C   UNL     1      39.126   7.946  20.755  0.00  0.00    +0.000 A 
ATOM     15  C   UNL     1      38.045   8.723  20.444  0.00  0.00    +0.000 A 
ATOM     16  C   UNL     1      37.373   8.486  19.241  0.00  0.00    +0.000 A 
ATOM     17  C   UNL     1      37.809   7.498  18.418  0.00  0.00    +0.000 A 
ATOM     18  C   UNL     1      38.902   6.677  18.685  0.00  0.00    +0.000 A 
BRANCH  13  20
ATOM     19  C   UNL     1      41.925   6.832  20.248  0.00  0.00    +0.000 C 
ATOM     20  O   UNL     1      40.654   6.168  20.243  0.00  0.00    +0.000 OA
ENDBRANCH  13  20
ENDBRANCH  12  18
ENDBRANCH  11  12
ENDBRANCH   8  11
ENDBRANCH   1   9
BRANCH   1  21
ATOM     21  N   UNL     1      36.363   3.069  14.058  0.00  0.00    +0.000 NA
ATOM     22  C   UNL     1      35.883   2.390  15.188  0.00  0.00    +0.000 C 
ATOM     23  O   UNL     1      35.441   3.113  16.127  0.00  0.00    +0.000 OA
BRANCH  22  24
ATOM     24  C   UNL     1      35.856   0.948  15.359  0.00  0.00    +0.000 A 
ATOM     25  C   UNL     1      36.602   0.106  14.542  0.00  0.00    +0.000 A 
ATOM     26  C   UNL     1      36.588  -1.261  14.697  0.00  0.00    +0.000 A 
ATOM     27  C   UNL     1      35.822  -1.864  15.685  0.00  0.00    +0.000 A 
ATOM     28  C   UNL     1      35.793  -3.336  15.873  0.00  0.00    +0.000 C 
ATOM     29  C   UNL     1      35.073  -1.002  16.503  0.00  0.00    +0.000 A 
ATOM     30  C   UNL     1      34.258  -1.679  17.560  0.00  0.00    +0.000 C 
ATOM     31  C   UNL     1      35.094   0.357  16.341  0.00  0.00    +0.000 A 
ENDBRANCH  22  24
ENDBRANCH   1  21
TORSDOF 8
ENDMDL
