MODEL 1
REMARK VINA RESULT:      -7.8      0.000      0.000
REMARK  Name = 
REMARK  7 active torsions:
REMARK  status: ('A' for Active; 'I' for Inactive)
REMARK    1  A    between atoms: C_5  and  C_6
REMARK    2  A    between atoms: C_16  and  C_17
REMARK    3  A    between atoms: C_17  and  C_18
REMARK    4  A    between atoms: C_21  and  O_22
REMARK    5  A    between atoms: O_22  and  C_23
REMARK    6  A    between atoms: C_23  and  C_24
REMARK    7  A    between atoms: C_24  and  N_25
REMARK                            x       y       z     vdW  Elec       q    Type
REMARK                         _______ _______ _______ _____ _____    ______ ____
ROOT
ATOM      1  C   UNL     1      36.144  -1.257  16.325  0.00  0.00    +0.000 A 
ATOM      2  C   UNL     1      35.464  -0.586  17.372  0.00  0.00    +0.000 A 
ATOM      3  C   UNL     1      35.069   0.723  17.229  0.00  0.00    +0.000 A 
ATOM      4  C   UNL     1      35.310   1.441  16.082  0.00  0.00    +0.000 A 
ATOM      5  C   UNL     1      34.917   2.758  15.939  0.00  0.00    +0.000 A 
ATOM      6  C   UNL     1      35.158   3.485  14.792  0.00  0.00    +0.000 A 
ATOM      7  O   UNL     1      34.760   4.808  14.657  0.00  0.00    +0.000 OA
ATOM      8  C   UNL     1      35.824   2.820  13.771  0.00  0.00    +0.000 A 
ATOM      9  C   UNL     1      36.224   1.497  13.901  0.00  0.00    +0.000 A 
ATOM     10  C   UNL     1      35.966   0.798  15.064  0.00  0.00    +0.000 A 
ATOM     11  C   UNL     1      36.368  -0.537  15.202  0.00  0.00    +0.000 A 
ENDROOT
BRANCH   1  16
ATOM     12  O   UNL     1      37.632  -6.659  17.152  0.00  0.00    +0.000 OA
ATOM     13  C   UNL     1      37.308  -5.331  16.975  0.00  0.00    +0.000 A 
ATOM     14  C   UNL     1      36.189  -4.970  16.267  0.00  0.00    +0.000 A 
ATOM     15  C   UNL     1      35.852  -3.682  16.080  0.00  0.00    +0.000 A 
ATOM     16  C   UNL     1      36.630  -2.606  16.599  0.00  0.00    +0.000 A 
ATOM     17  C   UNL     1      37.716  -2.993  17.284  0.00  0.00    +0.000 A 
ATOM     18  C   UNL     1      38.080  -4.296  17.491  0.00  0.00    +0.000 A 
ENDBRANCH   1  16
BRANCH  11  19
ATOM     19  C   UNL     1      36.948  -1.144  13.985  0.00  0.00    +0.000 C 
BRANCH  19  20
ATOM     20  C   UNL     1      38.414  -1.286  14.155  0.00  0.00    +0.000 A 
ATOM     21  C   UNL     1      39.000  -2.567  14.069  0.00  0.00    +0.000 A 
ATOM     22  C   UNL     1      40.359  -2.673  14.232  0.00  0.00    +0.000 A 
ATOM     23  C   UNL     1      41.199  -1.617  14.474  0.00  0.00    +0.000 A 
ATOM     24  C   UNL     1      40.628  -0.347  14.561  0.00  0.00    +0.000 A 
ATOM     25  C   UNL     1      39.271  -0.268  14.397  0.00  0.00    +0.000 A 
BRANCH  23  26
ATOM     26  O   UNL     1      42.572  -1.706  14.640  0.00  0.00    +0.000 OA
BRANCH  26  27
ATOM     27  C   UNL     1      43.477  -2.108  13.649  0.00  0.00    +0.000 C 
BRANCH  27  28
ATOM     28  C   UNL     1      43.563  -1.113  12.508  0.00  0.00    +0.000 C 
BRANCH  28  29
ATOM     29  N   UNL     1      42.788  -1.564  11.422  0.00  0.00    +0.000 NA
ATOM     30  C   UNL     1      42.669  -2.939  11.190  0.00  0.00    +0.000 C 
ATOM     31  C   UNL     1      41.493  -3.358  10.358  0.00  0.00    +0.000 C 
ATOM     32  C   UNL     1      40.234  -2.643  10.672  0.00  0.00    +0.000 C 
ATOM     33  C   UNL     1      40.447  -1.174  10.703  0.00  0.00    +0.000 C 
ATOM     34  C   UNL     1      41.839  -0.700  10.860  0.00  0.00    +0.000 C 
ENDBRANCH  28  29
ENDBRANCH  27  28
ENDBRANCH  26  27
ENDBRANCH  23  26
ENDBRANCH  19  20
ENDBRANCH  11  19
TORSDOF 7
ENDMDL
MODEL 2
REMARK VINA RESULT:      -7.8      4.254      8.380
REMARK  Name = 
REMARK  7 active torsions:
REMARK  status: ('A' for Active; 'I' for Inactive)
REMARK    1  A    between atoms: C_5  and  C_6
REMARK    2  A    between atoms: C_16  and  C_17
REMARK    3  A    between atoms: C_17  and  C_18
REMARK    4  A    between atoms: C_21  and  O_22
REMARK    5  A    between atoms: O_22  and  C_23
REMARK    6  A    between atoms: C_23  and  C_24
REMARK    7  A    between atoms: C_24  and  N_25
REMARK                            x       y       z     vdW  Elec       q    Type
REMARK                         _______ _______ _______ _____ _____    ______ ____
ROOT
ATOM      1  C   UNL     1      37.788  -0.323  14.638  0.00  0.00    +0.000 A 
ATOM      2  C   UNL     1      38.838  -1.242  14.885  0.00  0.00    +0.000 A 
ATOM      3  C   UNL     1      38.966  -1.854  16.109  0.00  0.00    +0.000 A 
ATOM      4  C   UNL     1      38.095  -1.609  17.145  0.00  0.00    +0.000 A 
ATOM      5  C   UNL     1      38.224  -2.221  18.378  0.00  0.00    +0.000 A 
ATOM      6  C   UNL     1      37.356  -1.978  19.422  0.00  0.00    +0.000 A 
ATOM      7  O   UNL     1      37.494  -2.596  20.657  0.00  0.00    +0.000 OA
ATOM      8  C   UNL     1      36.329  -1.077  19.171  0.00  0.00    +0.000 A 
ATOM      9  C   UNL     1      36.188  -0.457  17.938  0.00  0.00    +0.000 A 
ATOM     10  C   UNL     1      37.075  -0.723  16.914  0.00  0.00    +0.000 A 
ATOM     11  C   UNL     1      36.939  -0.099  15.666  0.00  0.00    +0.000 A 
ENDROOT
BRANCH   1  16
ATOM     12  O   UNL     1      38.176   2.634   9.823  0.00  0.00    +0.000 OA
ATOM     13  C   UNL     1      38.045   1.891  10.976  0.00  0.00    +0.000 A 
ATOM     14  C   UNL     1      38.894   2.086  12.038  0.00  0.00    +0.000 A 
ATOM     15  C   UNL     1      38.787   1.373  13.173  0.00  0.00    +0.000 A 
ATOM     16  C   UNL     1      37.792   0.368  13.353  0.00  0.00    +0.000 A 
ATOM     17  C   UNL     1      36.981   0.203  12.298  0.00  0.00    +0.000 A 
ATOM     18  C   UNL     1      37.067   0.915  11.133  0.00  0.00    +0.000 A 
ENDBRANCH   1  16
BRANCH  11  19
ATOM     19  C   UNL     1      35.725   0.731  15.513  0.00  0.00    +0.000 C 
BRANCH  19  20
ATOM     20  C   UNL     1      36.116   2.155  15.375  0.00  0.00    +0.000 A 
ATOM     21  C   UNL     1      35.500   2.949  14.384  0.00  0.00    +0.000 A 
ATOM     22  C   UNL     1      35.880   4.264  14.276  0.00  0.00    +0.000 A 
ATOM     23  C   UNL     1      36.822   4.871  15.066  0.00  0.00    +0.000 A 
ATOM     24  C   UNL     1      37.436   4.092  16.047  0.00  0.00    +0.000 A 
ATOM     25  C   UNL     1      37.041   2.784  16.135  0.00  0.00    +0.000 A 
BRANCH  23  26
ATOM     26  O   UNL     1      37.217   6.196  14.970  0.00  0.00    +0.000 OA
BRANCH  26  27
ATOM     27  C   UNL     1      38.326   6.753  15.620  0.00  0.00    +0.000 C 
BRANCH  27  28
ATOM     28  C   UNL     1      37.928   7.778  16.664  0.00  0.00    +0.000 C 
BRANCH  28  29
ATOM     29  N   UNL     1      38.186   7.271  17.952  0.00  0.00    +0.000 NA
ATOM     30  C   UNL     1      39.234   6.361  18.133  0.00  0.00    +0.000 C 
ATOM     31  C   UNL     1      39.751   6.236  19.535  0.00  0.00    +0.000 C 
ATOM     32  C   UNL     1      39.878   7.523  20.260  0.00  0.00    +0.000 C 
ATOM     33  C   UNL     1      38.631   8.321  20.154  0.00  0.00    +0.000 C 
ATOM     34  C   UNL     1      37.695   7.966  19.066  0.00  0.00    +0.000 C 
ENDBRANCH  28  29
ENDBRANCH  27  28
ENDBRANCH  26  27
ENDBRANCH  23  26
ENDBRANCH  19  20
ENDBRANCH  11  19
TORSDOF 7
ENDMDL
MODEL 3
REMARK VINA RESULT:      -7.7      4.019      7.478
REMARK  Name = 
REMARK  7 active torsions:
REMARK  status: ('A' for Active; 'I' for Inactive)
REMARK    1  A    between atoms: C_5  and  C_6
REMARK    2  A    between atoms: C_16  and  C_17
REMARK    3  A    between atoms: C_17  and  C_18
REMARK    4  A    between atoms: C_21  and  O_22
REMARK    5  A    between atoms: O_22  and  C_23
REMARK    6  A    between atoms: C_23  and  C_24
REMARK    7  A    between atoms: C_24  and  N_25
REMARK                            x       y       z     vdW  Elec       q    Type
REMARK                         _______ _______ _______ _____ _____    ______ ____
ROOT
ATOM      1  C   UNL     1      37.863  -1.942  15.570  0.00  0.00    +0.000 A 
ATOM      2  C   UNL     1      38.866  -2.666  16.260  0.00  0.00    +0.000 A 
ATOM      3  C   UNL     1      40.088  -2.907  15.677  0.00  0.00    +0.000 A 
ATOM      4  C   UNL     1      40.397  -2.466  14.412  0.00  0.00    +0.000 A 
ATOM      5  C   UNL     1      41.624  -2.709  13.824  0.00  0.00    +0.000 A 
ATOM      6  C   UNL     1      41.938  -2.272  12.554  0.00  0.00    +0.000 A 
ATOM      7  O   UNL     1      43.173  -2.523  11.971  0.00  0.00    +0.000 OA
ATOM      8  C   UNL     1      40.950  -1.563  11.885  0.00  0.00    +0.000 A 
ATOM      9  C   UNL     1      39.714  -1.310  12.465  0.00  0.00    +0.000 A 
ATOM     10  C   UNL     1      39.432  -1.762  13.738  0.00  0.00    +0.000 A 
ATOM     11  C   UNL     1      38.186  -1.512  14.329  0.00  0.00    +0.000 A 
ENDROOT
BRANCH   1  16
ATOM     12  O   UNL     1      32.643  -1.879  17.768  0.00  0.00    +0.000 OA
ATOM     13  C   UNL     1      33.925  -1.859  17.261  0.00  0.00    +0.000 A 
ATOM     14  C   UNL     1      34.316  -2.762  16.305  0.00  0.00    +0.000 A 
ATOM     15  C   UNL     1      35.561  -2.762  15.795  0.00  0.00    +0.000 A 
ATOM     16  C   UNL     1      36.557  -1.831  16.211  0.00  0.00    +0.000 A 
ATOM     17  C   UNL     1      36.141  -0.964  17.146  0.00  0.00    +0.000 A 
ATOM     18  C   UNL     1      34.882  -0.940  17.679  0.00  0.00    +0.000 A 
ENDBRANCH   1  16
BRANCH  11  19
ATOM     19  C   UNL     1      37.289  -0.635  13.546  0.00  0.00    +0.000 C 
BRANCH  19  20
ATOM     20  C   UNL     1      37.272   0.719  14.150  0.00  0.00    +0.000 A 
ATOM     21  C   UNL     1      36.035   1.337  14.430  0.00  0.00    +0.000 A 
ATOM     22  C   UNL     1      36.046   2.591  14.989  0.00  0.00    +0.000 A 
ATOM     23  C   UNL     1      37.180   3.296  15.299  0.00  0.00    +0.000 A 
ATOM     24  C   UNL     1      38.407   2.693  15.024  0.00  0.00    +0.000 A 
ATOM     25  C   UNL     1      38.370   1.443  14.467  0.00  0.00    +0.000 A 
BRANCH  23  26
ATOM     26  O   UNL     1      37.208   4.562  15.863  0.00  0.00    +0.000 OA
BRANCH  26  27
ATOM     27  C   UNL     1      38.182   5.019  16.761  0.00  0.00    +0.000 C 
BRANCH  27  28
ATOM     28  C   UNL     1      38.607   6.446  16.474  0.00  0.00    +0.000 C 
BRANCH  28  29
ATOM     29  N   UNL     1      39.276   6.978  17.593  0.00  0.00    +0.000 NA
ATOM     30  C   UNL     1      38.620   7.014  18.830  0.00  0.00    +0.000 C 
ATOM     31  C   UNL     1      39.508   7.134  20.032  0.00  0.00    +0.000 C 
ATOM     32  C   UNL     1      40.735   6.304  19.974  0.00  0.00    +0.000 C 
ATOM     33  C   UNL     1      41.448   6.496  18.686  0.00  0.00    +0.000 C 
ATOM     34  C   UNL     1      40.674   7.073  17.567  0.00  0.00    +0.000 C 
ENDBRANCH  28  29
ENDBRANCH  27  28
ENDBRANCH  26  27
ENDBRANCH  23  26
ENDBRANCH  19  20
ENDBRANCH  11  19
TORSDOF 7
ENDMDL
MODEL 4
REMARK VINA RESULT:      -7.5      9.306     12.582
REMARK  Name = 
REMARK  7 active torsions:
REMARK  status: ('A' for Active; 'I' for Inactive)
REMARK    1  A    between atoms: C_5  and  C_6
REMARK    2  A    between atoms: C_16  and  C_17
REMARK    3  A    between atoms: C_17  and  C_18
REMARK    4  A    between atoms: C_21  and  O_22
REMARK    5  A    between atoms: O_22  and  C_23
REMARK    6  A    between atoms: C_23  and  C_24
REMARK    7  A    between atoms: C_24  and  N_25
REMARK                            x       y       z     vdW  Elec       q    Type
REMARK                         _______ _______ _______ _____ _____    ______ ____
ROOT
ATOM      1  C   UNL     1      42.947   6.811  19.527  0.00  0.00    +0.000 A 
ATOM      2  C   UNL     1      43.881   7.001  18.479  0.00  0.00    +0.000 A 
ATOM      3  C   UNL     1      43.506   6.851  17.165  0.00  0.00    +0.000 A 
ATOM      4  C   UNL     1      42.223   6.512  16.802  0.00  0.00    +0.000 A 
ATOM      5  C   UNL     1      41.845   6.358  15.482  0.00  0.00    +0.000 A 
ATOM      6  C   UNL     1      40.561   6.016  15.112  0.00  0.00    +0.000 A 
ATOM      7  O   UNL     1      40.191   5.862  13.783  0.00  0.00    +0.000 OA
ATOM      8  C   UNL     1      39.652   5.833  16.145  0.00  0.00    +0.000 A 
ATOM      9  C   UNL     1      40.018   5.986  17.475  0.00  0.00    +0.000 A 
ATOM     10  C   UNL     1      41.312   6.329  17.811  0.00  0.00    +0.000 A 
ATOM     11  C   UNL     1      41.689   6.484  19.152  0.00  0.00    +0.000 A 
ENDROOT
BRANCH   1  16
ATOM     12  O   UNL     1      44.954   7.547  24.772  0.00  0.00    +0.000 OA
ATOM     13  C   UNL     1      44.463   7.322  23.504  0.00  0.00    +0.000 A 
ATOM     14  C   UNL     1      44.245   8.366  22.639  0.00  0.00    +0.000 A 
ATOM     15  C   UNL     1      43.767   8.171  21.398  0.00  0.00    +0.000 A 
ATOM     16  C   UNL     1      43.452   6.875  20.894  0.00  0.00    +0.000 A 
ATOM     17  C   UNL     1      43.676   5.879  21.764  0.00  0.00    +0.000 A 
ATOM     18  C   UNL     1      44.163   6.049  23.031  0.00  0.00    +0.000 A 
ENDBRANCH   1  16
BRANCH  11  19
ATOM     19  C   UNL     1      40.582   6.384  20.126  0.00  0.00    +0.000 C 
BRANCH  19  20
ATOM     20  C   UNL     1      39.901   7.697  20.235  0.00  0.00    +0.000 A 
ATOM     21  C   UNL     1      40.672   8.879  20.227  0.00  0.00    +0.000 A 
ATOM     22  C   UNL     1      40.018  10.082  20.330  0.00  0.00    +0.000 A 
ATOM     23  C   UNL     1      38.659  10.224  20.441  0.00  0.00    +0.000 A 
ATOM     24  C   UNL     1      37.890   9.060  20.451  0.00  0.00    +0.000 A 
ATOM     25  C   UNL     1      38.565   7.873  20.348  0.00  0.00    +0.000 A 
BRANCH  23  26
ATOM     26  O   UNL     1      37.984  11.430  20.546  0.00  0.00    +0.000 OA
BRANCH  26  27
ATOM     27  C   UNL     1      38.029  12.460  19.598  0.00  0.00    +0.000 C 
BRANCH  27  28
ATOM     28  C   UNL     1      37.105  12.206  18.424  0.00  0.00    +0.000 C 
BRANCH  28  29
ATOM     29  N   UNL     1      37.822  11.602  17.374  0.00  0.00    +0.000 NA
ATOM     30  C   UNL     1      39.152  11.978  17.148  0.00  0.00    +0.000 C 
ATOM     31  C   UNL     1      39.979  10.999  16.369  0.00  0.00    +0.000 C 
ATOM     32  C   UNL     1      39.761   9.581  16.738  0.00  0.00    +0.000 C 
ATOM     33  C   UNL     1      38.314   9.251  16.759  0.00  0.00    +0.000 C 
ATOM     34  C   UNL     1      37.368  10.383  16.854  0.00  0.00    +0.000 C 
ENDBRANCH  28  29
ENDBRANCH  27  28
ENDBRANCH  26  27
ENDBRANCH  23  26
ENDBRANCH  19  20
ENDBRANCH  11  19
TORSDOF 7
ENDMDL
MODEL 5
REMARK VINA RESULT:      -7.3      7.255     10.611
REMARK  Name = 
REMARK  7 active torsions:
REMARK  status: ('A' for Active; 'I' for Inactive)
REMARK    1  A    between atoms: C_5  and  C_6
REMARK    2  A    between atoms: C_16  and  C_17
REMARK    3  A    between atoms: C_17  and  C_18
REMARK    4  A    between atoms: C_21  and  O_22
REMARK    5  A    between atoms: O_22  and  C_23
REMARK    6  A    between atoms: C_23  and  C_24
REMARK    7  A    between atoms: C_24  and  N_25
REMARK                            x       y       z     vdW  Elec       q    Type
REMARK                         _______ _______ _______ _____ _____    ______ ____
ROOT
ATOM      1  C   UNL     1      40.193   8.577  19.443  0.00  0.00    +0.000 A 
ATOM      2  C   UNL     1      41.047   9.708  19.416  0.00  0.00    +0.000 A 
ATOM      3  C   UNL     1      42.356   9.611  19.827  0.00  0.00    +0.000 A 
ATOM      4  C   UNL     1      42.897   8.432  20.281  0.00  0.00    +0.000 A 
ATOM      5  C   UNL     1      44.212   8.334  20.697  0.00  0.00    +0.000 A 
ATOM      6  C   UNL     1      44.760   7.155  21.155  0.00  0.00    +0.000 A 
ATOM      7  O   UNL     1      46.081   7.067  21.572  0.00  0.00    +0.000 OA
ATOM      8  C   UNL     1      43.916   6.052  21.178  0.00  0.00    +0.000 A 
ATOM      9  C   UNL     1      42.595   6.136  20.762  0.00  0.00    +0.000 A 
ATOM     10  C   UNL     1      42.078   7.333  20.308  0.00  0.00    +0.000 A 
ATOM     11  C   UNL     1      40.744   7.425  19.888  0.00  0.00    +0.000 A 
ENDROOT
BRANCH   1  16
ATOM     12  O   UNL     1      34.901   9.540  17.668  0.00  0.00    +0.000 OA
ATOM     13  C   UNL     1      36.172   9.294  18.142  0.00  0.00    +0.000 A 
ATOM     14  C   UNL     1      37.266   9.435  17.325  0.00  0.00    +0.000 A 
ATOM     15  C   UNL     1      38.515   9.201  17.765  0.00  0.00    +0.000 A 
ATOM     16  C   UNL     1      38.790   8.790  19.102  0.00  0.00    +0.000 A 
ATOM     17  C   UNL     1      37.700   8.662  19.872  0.00  0.00    +0.000 A 
ATOM     18  C   UNL     1      36.419   8.895  19.451  0.00  0.00    +0.000 A 
ENDBRANCH   1  16
BRANCH  11  19
ATOM     19  C   UNL     1      40.012   6.140  19.848  0.00  0.00    +0.000 C 
BRANCH  19  20
ATOM     20  C   UNL     1      39.753   5.764  18.437  0.00  0.00    +0.000 A 
ATOM     21  C   UNL     1      38.599   5.017  18.121  0.00  0.00    +0.000 A 
ATOM     22  C   UNL     1      38.382   4.680  16.807  0.00  0.00    +0.000 A 
ATOM     23  C   UNL     1      39.210   5.019  15.769  0.00  0.00    +0.000 A 
ATOM     24  C   UNL     1      40.354   5.757  16.074  0.00  0.00    +0.000 A 
ATOM     25  C   UNL     1      40.549   6.080  17.390  0.00  0.00    +0.000 A 
BRANCH  23  26
ATOM     26  O   UNL     1      39.007   4.687  14.439  0.00  0.00    +0.000 OA
BRANCH  26  27
ATOM     27  C   UNL     1      38.522   3.454  13.984  0.00  0.00    +0.000 C 
BRANCH  27  28
ATOM     28  C   UNL     1      37.131   3.562  13.392  0.00  0.00    +0.000 C 
BRANCH  28  29
ATOM     29  N   UNL     1      36.263   2.668  14.048  0.00  0.00    +0.000 NA
ATOM     30  C   UNL     1      36.698   1.365  14.316  0.00  0.00    +0.000 C 
ATOM     31  C   UNL     1      35.951   0.642  15.398  0.00  0.00    +0.000 C 
ATOM     32  C   UNL     1      35.627   1.473  16.581  0.00  0.00    +0.000 C 
ATOM     33  C   UNL     1      34.994   2.754  16.176  0.00  0.00    +0.000 C 
ATOM     34  C   UNL     1      35.180   3.182  14.773  0.00  0.00    +0.000 C 
ENDBRANCH  28  29
ENDBRANCH  27  28
ENDBRANCH  26  27
ENDBRANCH  23  26
ENDBRANCH  19  20
ENDBRANCH  11  19
TORSDOF 7
ENDMDL
MODEL 6
REMARK VINA RESULT:      -6.9      4.060      7.146
REMARK  Name = 
REMARK  7 active torsions:
REMARK  status: ('A' for Active; 'I' for Inactive)
REMARK    1  A    between atoms: C_5  and  C_6
REMARK    2  A    between atoms: C_16  and  C_17
REMARK    3  A    between atoms: C_17  and  C_18
REMARK    4  A    between atoms: C_21  and  O_22
REMARK    5  A    between atoms: O_22  and  C_23
REMARK    6  A    between atoms: C_23  and  C_24
REMARK    7  A    between atoms: C_24  and  N_25
REMARK                            x       y       z     vdW  Elec       q    Type
REMARK                         _______ _______ _______ _____ _____    ______ ____
ROOT
ATOM      1  C   UNL     1      39.431  -2.143  14.919  0.00  0.00    +0.000 A 
ATOM      2  C   UNL     1      39.680  -2.850  16.122  0.00  0.00    +0.000 A 
ATOM      3  C   UNL     1      38.867  -2.684  17.218  0.00  0.00    +0.000 A 
ATOM      4  C   UNL     1      37.784  -1.836  17.206  0.00  0.00    +0.000 A 
ATOM      5  C   UNL     1      36.967  -1.666  18.308  0.00  0.00    +0.000 A 
ATOM      6  C   UNL     1      35.882  -0.815  18.304  0.00  0.00    +0.000 A 
ATOM      7  O   UNL     1      35.068  -0.650  19.416  0.00  0.00    +0.000 OA
ATOM      8  C   UNL     1      35.644  -0.127  17.122  0.00  0.00    +0.000 A 
ATOM      9  C   UNL     1      36.456  -0.290  16.007  0.00  0.00    +0.000 A 
ATOM     10  C   UNL     1      37.535  -1.150  16.046  0.00  0.00    +0.000 A 
ATOM     11  C   UNL     1      38.359  -1.317  14.924  0.00  0.00    +0.000 A 
ENDROOT
BRANCH   1  16
ATOM     12  O   UNL     1      43.509  -2.389  10.997  0.00  0.00    +0.000 OA
ATOM     13  C   UNL     1      42.490  -2.358  11.925  0.00  0.00    +0.000 A 
ATOM     14  C   UNL     1      42.619  -1.635  13.084  0.00  0.00    +0.000 A 
ATOM     15  C   UNL     1      41.639  -1.589  14.005  0.00  0.00    +0.000 A 
ATOM     16  C   UNL     1      40.406  -2.287  13.844  0.00  0.00    +0.000 A 
ATOM     17  C   UNL     1      40.315  -2.983  12.702  0.00  0.00    +0.000 A 
ATOM     18  C   UNL     1      41.294  -3.045  11.748  0.00  0.00    +0.000 A 
ENDBRANCH   1  16
BRANCH  11  19
ATOM     19  C   UNL     1      37.902  -0.619  13.704  0.00  0.00    +0.000 C 
BRANCH  19  20
ATOM     20  C   UNL     1      38.234   0.823  13.808  0.00  0.00    +0.000 A 
ATOM     21  C   UNL     1      37.296   1.782  13.371  0.00  0.00    +0.000 A 
ATOM     22  C   UNL     1      37.627   3.111  13.477  0.00  0.00    +0.000 A 
ATOM     23  C   UNL     1      38.811   3.581  13.981  0.00  0.00    +0.000 A 
ATOM     24  C   UNL     1      39.745   2.639  14.415  0.00  0.00    +0.000 A 
ATOM     25  C   UNL     1      39.392   1.321  14.298  0.00  0.00    +0.000 A 
BRANCH  23  26
ATOM     26  O   UNL     1      39.161   4.917  14.095  0.00  0.00    +0.000 OA
BRANCH  26  27
ATOM     27  C   UNL     1      39.929   5.461  15.132  0.00  0.00    +0.000 C 
BRANCH  27  28
ATOM     28  C   UNL     1      39.107   5.740  16.375  0.00  0.00    +0.000 C 
BRANCH  28  29
ATOM     29  N   UNL     1      39.939   5.721  17.511  0.00  0.00    +0.000 NA
ATOM     30  C   UNL     1      41.239   6.230  17.416  0.00  0.00    +0.000 C 
ATOM     31  C   UNL     1      41.882   6.615  18.716  0.00  0.00    +0.000 C 
ATOM     32  C   UNL     1      40.981   7.312  19.663  0.00  0.00    +0.000 C 
ATOM     33  C   UNL     1      39.704   6.573  19.827  0.00  0.00    +0.000 C 
ATOM     34  C   UNL     1      39.355   5.592  18.779  0.00  0.00    +0.000 C 
ENDBRANCH  28  29
ENDBRANCH  27  28
ENDBRANCH  26  27
ENDBRANCH  23  26
ENDBRANCH  19  20
ENDBRANCH  11  19
TORSDOF 7
ENDMDL
MODEL 7
REMARK VINA RESULT:      -6.9      7.987     11.531
REMARK  Name = 
REMARK  7 active torsions:
REMARK  status: ('A' for Active; 'I' for Inactive)
REMARK    1  A    between atoms: C_5  and  C_6
REMARK    2  A    between atoms: C_16  and  C_17
REMARK    3  A    between atoms: C_17  and  C_18
REMARK    4  A    between atoms: C_21  and  O_22
REMARK    5  A    between atoms: O_22  and  C_23
REMARK    6  A    between atoms: C_23  and  C_24
REMARK    7  A    between atoms: C_24  and  N_25
REMARK                            x       y       z     vdW  Elec       q    Type
REMARK                         _______ _______ _______ _____ _____    ______ ____
ROOT
ATOM      1  C   UNL     1      40.550   8.553  19.793  0.00  0.00    +0.000 A 
ATOM      2  C   UNL     1      41.367   9.704  19.920  0.00  0.00    +0.000 A 
ATOM      3  C   UNL     1      42.665   9.601  20.361  0.00  0.00    +0.000 A 
ATOM      4  C   UNL     1      43.231   8.395  20.701  0.00  0.00    +0.000 A 
ATOM      5  C   UNL     1      44.534   8.290  21.148  0.00  0.00    +0.000 A 
ATOM      6  C   UNL     1      45.107   7.083  21.492  0.00  0.00    +0.000 A 
ATOM      7  O   UNL     1      46.416   6.988  21.942  0.00  0.00    +0.000 OA
ATOM      8  C   UNL     1      44.299   5.961  21.365  0.00  0.00    +0.000 A 
ATOM      9  C   UNL     1      42.989   6.052  20.916  0.00  0.00    +0.000 A 
ATOM     10  C   UNL     1      42.447   7.276  20.579  0.00  0.00    +0.000 A 
ATOM     11  C   UNL     1      41.124   7.375  20.127  0.00  0.00    +0.000 A 
ENDROOT
BRANCH   1  16
ATOM     12  O   UNL     1      35.285   9.522  17.943  0.00  0.00    +0.000 OA
ATOM     13  C   UNL     1      36.548   9.272  18.435  0.00  0.00    +0.000 A 
ATOM     14  C   UNL     1      37.658   9.469  17.651  0.00  0.00    +0.000 A 
ATOM     15  C   UNL     1      38.901   9.232  18.108  0.00  0.00    +0.000 A 
ATOM     16  C   UNL     1      39.152   8.761  19.430  0.00  0.00    +0.000 A 
ATOM     17  C   UNL     1      38.047   8.580  20.167  0.00  0.00    +0.000 A 
ATOM     18  C   UNL     1      36.772   8.814  19.729  0.00  0.00    +0.000 A 
ENDBRANCH   1  16
BRANCH  11  19
ATOM     19  C   UNL     1      40.437   6.082  19.921  0.00  0.00    +0.000 C 
BRANCH  19  20
ATOM     20  C   UNL     1      40.063   5.945  18.493  0.00  0.00    +0.000 A 
ATOM     21  C   UNL     1      38.752   5.545  18.156  0.00  0.00    +0.000 A 
ATOM     22  C   UNL     1      38.431   5.424  16.826  0.00  0.00    +0.000 A 
ATOM     23  C   UNL     1      39.295   5.664  15.790  0.00  0.00    +0.000 A 
ATOM     24  C   UNL     1      40.594   6.058  16.115  0.00  0.00    +0.000 A 
ATOM     25  C   UNL     1      40.890   6.171  17.447  0.00  0.00    +0.000 A 
BRANCH  23  26
ATOM     26  O   UNL     1      38.988   5.547  14.444  0.00  0.00    +0.000 OA
BRANCH  26  27
ATOM     27  C   UNL     1      37.703   5.676  13.900  0.00  0.00    +0.000 C 
BRANCH  27  28
ATOM     28  C   UNL     1      37.485   7.028  13.250  0.00  0.00    +0.000 C 
BRANCH  28  29
ATOM     29  N   UNL     1      36.106   7.299  13.165  0.00  0.00    +0.000 NA
ATOM     30  C   UNL     1      35.189   6.282  13.458  0.00  0.00    +0.000 C 
ATOM     31  C   UNL     1      33.804   6.738  13.809  0.00  0.00    +0.000 C 
ATOM     32  C   UNL     1      33.755   7.928  14.691  0.00  0.00    +0.000 C 
ATOM     33  C   UNL     1      34.625   9.014  14.172  0.00  0.00    +0.000 C 
ATOM     34  C   UNL     1      35.671   8.631  13.200  0.00  0.00    +0.000 C 
ENDBRANCH  28  29
ENDBRANCH  27  28
ENDBRANCH  26  27
ENDBRANCH  23  26
ENDBRANCH  19  20
ENDBRANCH  11  19
TORSDOF 7
ENDMDL
MODEL 8
REMARK VINA RESULT:      -6.9      6.388      9.270
REMARK  Name = 
REMARK  7 active torsions:
REMARK  status: ('A' for Active; 'I' for Inactive)
REMARK    1  A    between atoms: C_5  and  C_6
REMARK    2  A    between atoms: C_16  and  C_17
REMARK    3  A    between atoms: C_17  and  C_18
REMARK    4  A    between atoms: C_21  and  O_22
REMARK    5  A    between atoms: O_22  and  C_23
REMARK    6  A    between atoms: C_23  and  C_24
REMARK    7  A    between atoms: C_24  and  N_25
REMARK                            x       y       z     vdW  Elec       q    Type
REMARK                         _______ _______ _______ _____ _____    ______ ____
ROOT
ATOM      1  C   UNL     1      39.266   7.982  19.396  0.00  0.00    +0.000 A 
ATOM      2  C   UNL     1      38.331   8.538  20.303  0.00  0.00    +0.000 A 
ATOM      3  C   UNL     1      37.141   9.062  19.856  0.00  0.00    +0.000 A 
ATOM      4  C   UNL     1      36.801   9.076  18.523  0.00  0.00    +0.000 A 
ATOM      5  C   UNL     1      35.607   9.605  18.071  0.00  0.00    +0.000 A 
ATOM      6  C   UNL     1      35.261   9.625  16.736  0.00  0.00    +0.000 A 
ATOM      7  O   UNL     1      34.060  10.160  16.291  0.00  0.00    +0.000 OA
ATOM      8  C   UNL     1      36.184   9.078  15.854  0.00  0.00    +0.000 A 
ATOM      9  C   UNL     1      37.386   8.542  16.295  0.00  0.00    +0.000 A 
ATOM     10  C   UNL     1      37.700   8.538  17.639  0.00  0.00    +0.000 A 
ATOM     11  C   UNL     1      38.913   8.000  18.090  0.00  0.00    +0.000 A 
ENDROOT
BRANCH   1  16
ATOM     12  O   UNL     1      44.398   6.791  21.476  0.00  0.00    +0.000 OA
ATOM     13  C   UNL     1      43.139   7.035  20.972  0.00  0.00    +0.000 A 
ATOM     14  C   UNL     1      42.740   8.313  20.665  0.00  0.00    +0.000 A 
ATOM     15  C   UNL     1      41.517   8.576  20.173  0.00  0.00    +0.000 A 
ATOM     16  C   UNL     1      40.551   7.553  19.939  0.00  0.00    +0.000 A 
ATOM     17  C   UNL     1      40.972   6.319  20.249  0.00  0.00    +0.000 A 
ATOM     18  C   UNL     1      42.211   6.023  20.749  0.00  0.00    +0.000 A 
ENDBRANCH   1  16
BRANCH  11  19
ATOM     19  C   UNL     1      39.729   7.339  17.049  0.00  0.00    +0.000 C 
BRANCH  19  20
ATOM     20  C   UNL     1      39.137   6.019  16.723  0.00  0.00    +0.000 A 
ATOM     21  C   UNL     1      39.234   5.524  15.405  0.00  0.00    +0.000 A 
ATOM     22  C   UNL     1      38.677   4.300  15.128  0.00  0.00    +0.000 A 
ATOM     23  C   UNL     1      38.028   3.514  16.044  0.00  0.00    +0.000 A 
ATOM     24  C   UNL     1      37.927   3.997  17.349  0.00  0.00    +0.000 A 
ATOM     25  C   UNL     1      38.489   5.220  17.600  0.00  0.00    +0.000 A 
BRANCH  23  26
ATOM     26  O   UNL     1      37.460   2.277  15.782  0.00  0.00    +0.000 OA
BRANCH  26  27
ATOM     27  C   UNL     1      38.021   1.296  14.953  0.00  0.00    +0.000 C 
BRANCH  27  28
ATOM     28  C   UNL     1      37.015   0.236  14.551  0.00  0.00    +0.000 C 
BRANCH  28  29
ATOM     29  N   UNL     1      36.682  -0.555  15.667  0.00  0.00    +0.000 NA
ATOM     30  C   UNL     1      37.705  -1.176  16.395  0.00  0.00    +0.000 C 
ATOM     31  C   UNL     1      37.350  -1.586  17.793  0.00  0.00    +0.000 C 
ATOM     32  C   UNL     1      36.538  -0.593  18.536  0.00  0.00    +0.000 C 
ATOM     33  C   UNL     1      35.371  -0.149  17.732  0.00  0.00    +0.000 C 
ATOM     34  C   UNL     1      35.431  -0.383  16.274  0.00  0.00    +0.000 C 
ENDBRANCH  28  29
ENDBRANCH  27  28
ENDBRANCH  26  27
ENDBRANCH  23  26
ENDBRANCH  19  20
ENDBRANCH  11  19
TORSDOF 7
ENDMDL
MODEL 9
REMARK VINA RESULT:      -6.7      3.069      7.302
REMARK  Name = 
REMARK  7 active torsions:
REMARK  status: ('A' for Active; 'I' for Inactive)
REMARK    1  A    between atoms: C_5  and  C_6
REMARK    2  A    between atoms: C_16  and  C_17
REMARK    3  A    between atoms: C_17  and  C_18
REMARK    4  A    between atoms: C_21  and  O_22
REMARK    5  A    between atoms: O_22  and  C_23
REMARK    6  A    between atoms: C_23  and  C_24
REMARK    7  A    between atoms: C_24  and  N_25
REMARK                            x       y       z     vdW  Elec       q    Type
REMARK                         _______ _______ _______ _____ _____    ______ ____
ROOT
ATOM      1  C   UNL     1      38.165  -1.945  15.309  0.00  0.00    +0.000 A 
ATOM      2  C   UNL     1      39.232  -2.519  16.043  0.00  0.00    +0.000 A 
ATOM      3  C   UNL     1      40.449  -2.755  15.449  0.00  0.00    +0.000 A 
ATOM      4  C   UNL     1      40.693  -2.452  14.130  0.00  0.00    +0.000 A 
ATOM      5  C   UNL     1      41.915  -2.691  13.530  0.00  0.00    +0.000 A 
ATOM      6  C   UNL     1      42.164  -2.392  12.207  0.00  0.00    +0.000 A 
ATOM      7  O   UNL     1      43.395  -2.637  11.614  0.00  0.00    +0.000 OA
ATOM      8  C   UNL     1      41.113  -1.830  11.495  0.00  0.00    +0.000 A 
ATOM      9  C   UNL     1      39.881  -1.583  12.085  0.00  0.00    +0.000 A 
ATOM     10  C   UNL     1      39.665  -1.894  13.413  0.00  0.00    +0.000 A 
ATOM     11  C   UNL     1      38.423  -1.649  14.014  0.00  0.00    +0.000 A 
ENDROOT
BRANCH   1  16
ATOM     12  O   UNL     1      32.999  -1.896  17.630  0.00  0.00    +0.000 OA
ATOM     13  C   UNL     1      34.268  -1.872  17.092  0.00  0.00    +0.000 A 
ATOM     14  C   UNL     1      34.646  -2.789  16.143  0.00  0.00    +0.000 A 
ATOM     15  C   UNL     1      35.878  -2.785  15.604  0.00  0.00    +0.000 A 
ATOM     16  C   UNL     1      36.873  -1.836  15.979  0.00  0.00    +0.000 A 
ATOM     17  C   UNL     1      36.471  -0.956  16.908  0.00  0.00    +0.000 A 
ATOM     18  C   UNL     1      35.224  -0.936  17.471  0.00  0.00    +0.000 A 
ENDBRANCH   1  16
BRANCH  11  19
ATOM     19  C   UNL     1      37.450  -0.929  13.166  0.00  0.00    +0.000 C 
BRANCH  19  20
ATOM     20  C   UNL     1      37.258   0.444  13.692  0.00  0.00    +0.000 A 
ATOM     21  C   UNL     1      38.388   1.240  13.978  0.00  0.00    +0.000 A 
ATOM     22  C   UNL     1      38.184   2.507  14.466  0.00  0.00    +0.000 A 
ATOM     23  C   UNL     1      36.953   3.064  14.699  0.00  0.00    +0.000 A 
ATOM     24  C   UNL     1      35.831   2.282  14.420  0.00  0.00    +0.000 A 
ATOM     25  C   UNL     1      36.060   1.023  13.936  0.00  0.00    +0.000 A 
BRANCH  23  26
ATOM     26  O   UNL     1      36.729   4.340  15.191  0.00  0.00    +0.000 OA
BRANCH  26  27
ATOM     27  C   UNL     1      37.652   5.393  15.140  0.00  0.00    +0.000 C 
BRANCH  27  28
ATOM     28  C   UNL     1      37.077   6.634  14.486  0.00  0.00    +0.000 C 
BRANCH  28  29
ATOM     29  N   UNL     1      35.885   6.309  13.811  0.00  0.00    +0.000 NA
ATOM     30  C   UNL     1      34.671   6.833  14.273  0.00  0.00    +0.000 C 
ATOM     31  C   UNL     1      33.551   6.850  13.276  0.00  0.00    +0.000 C 
ATOM     32  C   UNL     1      33.952   7.255  11.908  0.00  0.00    +0.000 C 
ATOM     33  C   UNL     1      35.141   6.491  11.453  0.00  0.00    +0.000 C 
ATOM     34  C   UNL     1      35.957   5.833  12.495  0.00  0.00    +0.000 C 
ENDBRANCH  28  29
ENDBRANCH  27  28
ENDBRANCH  26  27
ENDBRANCH  23  26
ENDBRANCH  19  20
ENDBRANCH  11  19
TORSDOF 7
ENDMDL
MODEL 10
REMARK VINA RESULT:      -6.7      4.600      7.286
REMARK  Name = 
REMARK  7 active torsions:
REMARK  status: ('A' for Active; 'I' for Inactive)
REMARK    1  A    between atoms: C_5  and  C_6
REMARK    2  A    between atoms: C_16  and  C_17
REMARK    3  A    between atoms: C_17  and  C_18
REMARK    4  A    between atoms: C_21  and  O_22
REMARK    5  A    between atoms: O_22  and  C_23
REMARK    6  A    between atoms: C_23  and  C_24
REMARK    7  A    between atoms: C_24  and  N_25
REMARK                            x       y       z     vdW  Elec       q    Type
REMARK                         _______ _______ _______ _____ _____    ______ ____
ROOT
ATOM      1  C   UNL     1      38.787  -0.639  12.462  0.00  0.00    +0.000 A 
ATOM      2  C   UNL     1      40.021  -0.828  11.792  0.00  0.00    +0.000 A 
ATOM      3  C   UNL     1      40.257  -0.239  10.572  0.00  0.00    +0.000 A 
ATOM      4  C   UNL     1      39.322   0.551   9.946  0.00  0.00    +0.000 A 
ATOM      5  C   UNL     1      39.556   1.142   8.718  0.00  0.00    +0.000 A 
ATOM      6  C   UNL     1      38.622   1.933   8.084  0.00  0.00    +0.000 A 
ATOM      7  O   UNL     1      38.866   2.520   6.850  0.00  0.00    +0.000 OA
ATOM      8  C   UNL     1      37.416   2.113   8.747  0.00  0.00    +0.000 A 
ATOM      9  C   UNL     1      37.168   1.527   9.981  0.00  0.00    +0.000 A 
ATOM     10  C   UNL     1      38.126   0.740  10.589  0.00  0.00    +0.000 A 
ATOM     11  C   UNL     1      37.881   0.145  11.834  0.00  0.00    +0.000 A 
ENDROOT
BRANCH   1  16
ATOM     12  O   UNL     1      37.655  -3.854  16.986  0.00  0.00    +0.000 OA
ATOM     13  C   UNL     1      37.958  -3.045  15.912  0.00  0.00    +0.000 A 
ATOM     14  C   UNL     1      37.451  -3.314  14.665  0.00  0.00    +0.000 A 
ATOM     15  C   UNL     1      37.732  -2.539  13.602  0.00  0.00    +0.000 A 
ATOM     16  C   UNL     1      38.572  -1.391  13.694  0.00  0.00    +0.000 A 
ATOM     17  C   UNL     1      39.050  -1.158  14.925  0.00  0.00    +0.000 A 
ATOM     18  C   UNL     1      38.779  -1.928  16.023  0.00  0.00    +0.000 A 
ENDBRANCH   1  16
BRANCH  11  19
ATOM     19  C   UNL     1      36.605   0.534  12.472  0.00  0.00    +0.000 C 
BRANCH  19  20
ATOM     20  C   UNL     1      36.887   1.350  13.678  0.00  0.00    +0.000 A 
ATOM     21  C   UNL     1      37.908   2.323  13.632  0.00  0.00    +0.000 A 
ATOM     22  C   UNL     1      38.150   3.065  14.762  0.00  0.00    +0.000 A 
ATOM     23  C   UNL     1      37.467   2.931  15.943  0.00  0.00    +0.000 A 
ATOM     24  C   UNL     1      36.457   1.971  15.996  0.00  0.00    +0.000 A 
ATOM     25  C   UNL     1      36.235   1.244  14.858  0.00  0.00    +0.000 A 
BRANCH  23  26
ATOM     26  O   UNL     1      37.699   3.671  17.092  0.00  0.00    +0.000 OA
BRANCH  26  27
ATOM     27  C   UNL     1      38.584   4.752  17.186  0.00  0.00    +0.000 C 
BRANCH  27  28
ATOM     28  C   UNL     1      38.947   5.079  18.621  0.00  0.00    +0.000 C 
BRANCH  28  29
ATOM     29  N   UNL     1      39.922   6.094  18.648  0.00  0.00    +0.000 NA
ATOM     30  C   UNL     1      40.510   6.447  19.869  0.00  0.00    +0.000 C 
ATOM     31  C   UNL     1      41.827   7.157  19.774  0.00  0.00    +0.000 C 
ATOM     32  C   UNL     1      42.746   6.611  18.747  0.00  0.00    +0.000 C 
ATOM     33  C   UNL     1      42.057   6.459  17.441  0.00  0.00    +0.000 C 
ATOM     34  C   UNL     1      40.579   6.438  17.459  0.00  0.00    +0.000 C 
ENDBRANCH  28  29
ENDBRANCH  27  28
ENDBRANCH  26  27
ENDBRANCH  23  26
ENDBRANCH  19  20
ENDBRANCH  11  19
TORSDOF 7
ENDMDL
