MODEL 1
REMARK VINA RESULT:      -7.3      0.000      0.000
REMARK  Name = 
REMARK  4 active torsions:
REMARK  status: ('A' for Active; 'I' for Inactive)
REMARK    1  A    between atoms: C_2  and  C_3
REMARK    2  A    between atoms: C_6  and  N_7
REMARK    3  A    between atoms: N_7  and  N_8
REMARK    4  A    between atoms: C_9  and  C_11
REMARK                            x       y       z     vdW  Elec       q    Type
REMARK                         _______ _______ _______ _____ _____    ______ ____
ROOT
ATOM      1  N   UNL     1      17.632  10.422  34.883  0.00  0.00    +0.000 NA
ATOM      2  C   UNL     1      18.136   9.425  35.735  0.00  0.00    +0.000 C 
ATOM      3  O   UNL     1      18.235   8.265  35.258  0.00  0.00    +0.000 OA
ENDROOT
BRANCH   2   4
ATOM      4  C   UNL     1      18.544   9.657  37.125  0.00  0.00    +0.000 A 
ATOM      5  C   UNL     1      17.576   9.759  38.127  0.00  0.00    +0.000 A 
ATOM      6  C   UNL     1      17.873   9.972  39.429  0.00  0.00    +0.000 A 
ATOM      7  C   UNL     1      19.165  10.103  39.834  0.00  0.00    +0.000 A 
ATOM      8  C   UNL     1      20.174  10.008  38.865  0.00  0.00    +0.000 A 
ATOM      9  C   UNL     1      19.852   9.786  37.531  0.00  0.00    +0.000 A 
ATOM     10 CL   UNL     1      21.128   9.674  36.365  0.00  0.00    +0.000 Cl
ENDBRANCH   2   4
BRANCH   1  11
ATOM     11  N   UNL     1      17.258  10.146  33.568  0.00  0.00    +0.000 NA
BRANCH  11  15
ATOM     12  C   UNL     1      15.363  12.797  31.251  0.00  0.00    +0.000 C 
ATOM     13  C   UNL     1      14.826  11.265  31.019  0.00  0.00    +0.000 C 
ATOM     14  C   UNL     1      16.062  10.538  31.516  0.00  0.00    +0.000 C 
ATOM     15  C   UNL     1      16.203  10.707  32.849  0.00  0.00    +0.000 C 
ATOM     16  C   UNL     1      15.123  11.534  33.437  0.00  0.00    +0.000 C 
ATOM     17  C   UNL     1      14.921  12.853  32.818  0.00  0.00    +0.000 C 
BRANCH  12  19
ATOM     18  C   UNL     1      13.785  14.586  31.721  0.00  0.00    +0.000 C 
ATOM     19  C   UNL     1      13.928  13.463  30.731  0.00  0.00    +0.000 C 
ENDBRANCH  12  19
ENDBRANCH  11  15
ENDBRANCH   1  11
TORSDOF 4
ENDMDL
MODEL 2
REMARK VINA RESULT:      -6.9      2.285      7.692
REMARK  Name = 
REMARK  4 active torsions:
REMARK  status: ('A' for Active; 'I' for Inactive)
REMARK    1  A    between atoms: C_2  and  C_3
REMARK    2  A    between atoms: C_6  and  N_7
REMARK    3  A    between atoms: N_7  and  N_8
REMARK    4  A    between atoms: C_9  and  C_11
REMARK                            x       y       z     vdW  Elec       q    Type
REMARK                         _______ _______ _______ _____ _____    ______ ____
ROOT
ATOM      1  N   UNL     1      16.750  11.437  34.329  0.00  0.00    +0.000 NA
ATOM      2  C   UNL     1      15.695  11.230  33.424  0.00  0.00    +0.000 C 
ATOM      3  O   UNL     1      15.324  10.042  33.246  0.00  0.00    +0.000 OA
ENDROOT
BRANCH   2   4
ATOM      4  C   UNL     1      15.017  12.303  32.689  0.00  0.00    +0.000 A 
ATOM      5  C   UNL     1      15.126  12.370  31.297  0.00  0.00    +0.000 A 
ATOM      6  C   UNL     1      14.531  13.328  30.551  0.00  0.00    +0.000 A 
ATOM      7  C   UNL     1      13.780  14.299  31.136  0.00  0.00    +0.000 A 
ATOM      8  C   UNL     1      13.639  14.275  32.532  0.00  0.00    +0.000 A 
ATOM      9  C   UNL     1      14.256  13.282  33.285  0.00  0.00    +0.000 A 
ATOM     10 CL   UNL     1      14.058  13.286  35.006  0.00  0.00    +0.000 Cl
ENDBRANCH   2   4
BRANCH   1  11
ATOM     11  N   UNL     1      17.360  10.379  35.002  0.00  0.00    +0.000 NA
BRANCH  11  15
ATOM     12  C   UNL     1      18.218   9.027  38.666  0.00  0.00    +0.000 C 
ATOM     13  C   UNL     1      19.413   9.965  38.048  0.00  0.00    +0.000 C 
ATOM     14  C   UNL     1      19.078   9.782  36.580  0.00  0.00    +0.000 C 
ATOM     15  C   UNL     1      17.908  10.390  36.284  0.00  0.00    +0.000 C 
ATOM     16  C   UNL     1      17.301  11.060  37.459  0.00  0.00    +0.000 C 
ATOM     17  C   UNL     1      17.099  10.211  38.643  0.00  0.00    +0.000 C 
BRANCH  12  19
ATOM     18  C   UNL     1      18.031   8.187  40.940  0.00  0.00    +0.000 C 
ATOM     19  C   UNL     1      18.663   9.357  40.237  0.00  0.00    +0.000 C 
ENDBRANCH  12  19
ENDBRANCH  11  15
ENDBRANCH   1  11
TORSDOF 4
ENDMDL
MODEL 3
REMARK VINA RESULT:      -6.9      2.771      7.721
REMARK  Name = 
REMARK  4 active torsions:
REMARK  status: ('A' for Active; 'I' for Inactive)
REMARK    1  A    between atoms: C_2  and  C_3
REMARK    2  A    between atoms: C_6  and  N_7
REMARK    3  A    between atoms: N_7  and  N_8
REMARK    4  A    between atoms: C_9  and  C_11
REMARK                            x       y       z     vdW  Elec       q    Type
REMARK                         _______ _______ _______ _____ _____    ______ ____
ROOT
ATOM      1  N   UNL     1      16.249  11.377  35.082  0.00  0.00    +0.000 NA
ATOM      2  C   UNL     1      15.015  11.900  34.658  0.00  0.00    +0.000 C 
ATOM      3  O   UNL     1      14.087  11.927  35.506  0.00  0.00    +0.000 OA
ENDROOT
BRANCH   2   4
ATOM      4  C   UNL     1      14.754  12.404  33.305  0.00  0.00    +0.000 A 
ATOM      5  C   UNL     1      15.241  11.707  32.196  0.00  0.00    +0.000 A 
ATOM      6  C   UNL     1      15.043  12.108  30.921  0.00  0.00    +0.000 A 
ATOM      7  C   UNL     1      14.342  13.243  30.650  0.00  0.00    +0.000 A 
ATOM      8  C   UNL     1      13.832  13.978  31.730  0.00  0.00    +0.000 A 
ATOM      9  C   UNL     1      14.043  13.550  33.036  0.00  0.00    +0.000 A 
ATOM     10 CL   UNL     1      13.396  14.486  34.342  0.00  0.00    +0.000 Cl
ENDBRANCH   2   4
BRANCH   1  11
ATOM     11  N   UNL     1      16.442  10.910  36.382  0.00  0.00    +0.000 NA
BRANCH  11  15
ATOM     12  C   UNL     1      20.211  10.556  37.670  0.00  0.00    +0.000 C 
ATOM     13  C   UNL     1      19.179   9.560  38.467  0.00  0.00    +0.000 C 
ATOM     14  C   UNL     1      17.903  10.338  38.207  0.00  0.00    +0.000 C 
ATOM     15  C   UNL     1      17.573  10.280  36.899  0.00  0.00    +0.000 C 
ATOM     16  C   UNL     1      18.533   9.477  36.103  0.00  0.00    +0.000 C 
ATOM     17  C   UNL     1      19.943   9.879  36.212  0.00  0.00    +0.000 C 
BRANCH  12  19
ATOM     18  C   UNL     1      22.230   9.657  36.657  0.00  0.00    +0.000 C 
ATOM     19  C   UNL     1      21.522   9.578  37.982  0.00  0.00    +0.000 C 
ENDBRANCH  12  19
ENDBRANCH  11  15
ENDBRANCH   1  11
TORSDOF 4
ENDMDL
MODEL 4
REMARK VINA RESULT:      -6.5     20.189     22.549
REMARK  Name = 
REMARK  4 active torsions:
REMARK  status: ('A' for Active; 'I' for Inactive)
REMARK    1  A    between atoms: C_2  and  C_3
REMARK    2  A    between atoms: C_6  and  N_7
REMARK    3  A    between atoms: N_7  and  N_8
REMARK    4  A    between atoms: C_9  and  C_11
REMARK                            x       y       z     vdW  Elec       q    Type
REMARK                         _______ _______ _______ _____ _____    ______ ____
ROOT
ATOM      1  N   UNL     1      33.677  -3.884  32.489  0.00  0.00    +0.000 NA
ATOM      2  C   UNL     1      33.159  -5.112  32.042  0.00  0.00    +0.000 C 
ATOM      3  O   UNL     1      32.247  -5.630  32.736  0.00  0.00    +0.000 OA
ENDROOT
BRANCH   2   4
ATOM      4  C   UNL     1      33.614  -5.808  30.834  0.00  0.00    +0.000 A 
ATOM      5  C   UNL     1      33.090  -5.455  29.587  0.00  0.00    +0.000 A 
ATOM      6  C   UNL     1      33.458  -6.050  28.431  0.00  0.00    +0.000 A 
ATOM      7  C   UNL     1      34.381  -7.049  28.426  0.00  0.00    +0.000 A 
ATOM      8  C   UNL     1      34.938  -7.440  29.653  0.00  0.00    +0.000 A 
ATOM      9  C   UNL     1      34.549  -6.817  30.834  0.00  0.00    +0.000 A 
ATOM     10 CL   UNL     1      35.260  -7.328  32.328  0.00  0.00    +0.000 Cl
ENDBRANCH   2   4
BRANCH   1  11
ATOM     11  N   UNL     1      33.207  -3.265  33.646  0.00  0.00    +0.000 NA
BRANCH  11  15
ATOM     12  C   UNL     1      32.707   0.702  33.699  0.00  0.00    +0.000 C 
ATOM     13  C   UNL     1      33.084   0.098  35.176  0.00  0.00    +0.000 C 
ATOM     14  C   UNL     1      32.612  -1.325  34.942  0.00  0.00    +0.000 C 
ATOM     15  C   UNL     1      33.413  -1.946  34.048  0.00  0.00    +0.000 C 
ATOM     16  C   UNL     1      34.511  -1.075  33.565  0.00  0.00    +0.000 C 
ATOM     17  C   UNL     1      34.099   0.220  33.003  0.00  0.00    +0.000 C 
BRANCH  12  19
ATOM     18  C   UNL     1      33.857   2.612  32.730  0.00  0.00    +0.000 C 
ATOM     19  C   UNL     1      33.312   2.208  34.073  0.00  0.00    +0.000 C 
ENDBRANCH  12  19
ENDBRANCH  11  15
ENDBRANCH   1  11
TORSDOF 4
ENDMDL
MODEL 5
REMARK VINA RESULT:      -6.5     20.201     22.485
REMARK  Name = 
REMARK  4 active torsions:
REMARK  status: ('A' for Active; 'I' for Inactive)
REMARK    1  A    between atoms: C_2  and  C_3
REMARK    2  A    between atoms: C_6  and  N_7
REMARK    3  A    between atoms: N_7  and  N_8
REMARK    4  A    between atoms: C_9  and  C_11
REMARK                            x       y       z     vdW  Elec       q    Type
REMARK                         _______ _______ _______ _____ _____    ______ ____
ROOT
ATOM      1  N   UNL     1      33.448  -2.969  32.980  0.00  0.00    +0.000 NA
ATOM      2  C   UNL     1      34.038  -2.087  33.903  0.00  0.00    +0.000 C 
ATOM      3  O   UNL     1      34.731  -2.602  34.817  0.00  0.00    +0.000 OA
ENDROOT
BRANCH   2   4
ATOM      4  C   UNL     1      33.891  -0.628  33.859  0.00  0.00    +0.000 A 
ATOM      5  C   UNL     1      34.230   0.071  32.697  0.00  0.00    +0.000 A 
ATOM      6  C   UNL     1      34.124   1.413  32.580  0.00  0.00    +0.000 A 
ATOM      7  C   UNL     1      33.670   2.168  33.617  0.00  0.00    +0.000 A 
ATOM      8  C   UNL     1      33.316   1.512  34.806  0.00  0.00    +0.000 A 
ATOM      9  C   UNL     1      33.430   0.130  34.909  0.00  0.00    +0.000 A 
ATOM     10 CL   UNL     1      32.982  -0.641  36.394  0.00  0.00    +0.000 Cl
ENDBRANCH   2   4
BRANCH   1  11
ATOM     11  N   UNL     1      33.619  -4.349  33.069  0.00  0.00    +0.000 NA
BRANCH  11  15
ATOM     12  C   UNL     1      34.301  -5.593  29.330  0.00  0.00    +0.000 C 
ATOM     13  C   UNL     1      34.838  -6.661  30.454  0.00  0.00    +0.000 C 
ATOM     14  C   UNL     1      34.988  -5.685  31.607  0.00  0.00    +0.000 C 
ATOM     15  C   UNL     1      33.776  -5.255  32.021  0.00  0.00    +0.000 C 
ATOM     16  C   UNL     1      32.663  -5.857  31.249  0.00  0.00    +0.000 C 
ATOM     17  C   UNL     1      32.741  -5.698  29.789  0.00  0.00    +0.000 C 
BRANCH  12  19
ATOM     18  C   UNL     1      34.765  -7.938  28.889  0.00  0.00    +0.000 C 
ATOM     19  C   UNL     1      34.132  -6.777  28.172  0.00  0.00    +0.000 C 
ENDBRANCH  12  19
ENDBRANCH  11  15
ENDBRANCH   1  11
TORSDOF 4
ENDMDL
MODEL 6
REMARK VINA RESULT:      -6.4      3.216      7.393
REMARK  Name = 
REMARK  4 active torsions:
REMARK  status: ('A' for Active; 'I' for Inactive)
REMARK    1  A    between atoms: C_2  and  C_3
REMARK    2  A    between atoms: C_6  and  N_7
REMARK    3  A    between atoms: N_7  and  N_8
REMARK    4  A    between atoms: C_9  and  C_11
REMARK                            x       y       z     vdW  Elec       q    Type
REMARK                         _______ _______ _______ _____ _____    ______ ____
ROOT
ATOM      1  N   UNL     1      18.450  10.610  37.688  0.00  0.00    +0.000 NA
ATOM      2  C   UNL     1      17.430  10.233  36.796  0.00  0.00    +0.000 C 
ATOM      3  O   UNL     1      17.582   9.143  36.188  0.00  0.00    +0.000 OA
ENDROOT
BRANCH   2   4
ATOM      4  C   UNL     1      16.223  11.026  36.541  0.00  0.00    +0.000 A 
ATOM      5  C   UNL     1      15.269  11.186  37.549  0.00  0.00    +0.000 A 
ATOM      6  C   UNL     1      14.132  11.900  37.390  0.00  0.00    +0.000 A 
ATOM      7  C   UNL     1      13.856  12.513  36.207  0.00  0.00    +0.000 A 
ATOM      8  C   UNL     1      14.784  12.383  35.163  0.00  0.00    +0.000 A 
ATOM      9  C   UNL     1      15.950  11.646  35.344  0.00  0.00    +0.000 A 
ATOM     10 CL   UNL     1      17.071  11.510  34.031  0.00  0.00    +0.000 Cl
ENDBRANCH   2   4
BRANCH   1  11
ATOM     11  N   UNL     1      19.578   9.817  37.893  0.00  0.00    +0.000 NA
BRANCH  11  15
ATOM     12  C   UNL     1      23.500   9.191  37.423  0.00  0.00    +0.000 C 
ATOM     13  C   UNL     1      22.866  10.121  36.230  0.00  0.00    +0.000 C 
ATOM     14  C   UNL     1      21.426   9.662  36.357  0.00  0.00    +0.000 C 
ATOM     15  C   UNL     1      20.892  10.097  37.519  0.00  0.00    +0.000 C 
ATOM     16  C   UNL     1      21.849  10.894  38.323  0.00  0.00    +0.000 C 
ATOM     17  C   UNL     1      23.135  10.241  38.614  0.00  0.00    +0.000 C 
BRANCH  12  19
ATOM     18  C   UNL     1      24.852  10.492  35.877  0.00  0.00    +0.000 C 
ATOM     19  C   UNL     1      25.026   9.822  37.213  0.00  0.00    +0.000 C 
ENDBRANCH  12  19
ENDBRANCH  11  15
ENDBRANCH   1  11
TORSDOF 4
ENDMDL
MODEL 7
REMARK VINA RESULT:      -6.2     20.982     22.626
REMARK  Name = 
REMARK  4 active torsions:
REMARK  status: ('A' for Active; 'I' for Inactive)
REMARK    1  A    between atoms: C_2  and  C_3
REMARK    2  A    between atoms: C_6  and  N_7
REMARK    3  A    between atoms: N_7  and  N_8
REMARK    4  A    between atoms: C_9  and  C_11
REMARK                            x       y       z     vdW  Elec       q    Type
REMARK                         _______ _______ _______ _____ _____    ______ ____
ROOT
ATOM      1  N   UNL     1      22.312  -8.330  25.560  0.00  0.00    +0.000 NA
ATOM      2  C   UNL     1      20.973  -8.168  25.166  0.00  0.00    +0.000 C 
ATOM      3  O   UNL     1      20.599  -8.805  24.149  0.00  0.00    +0.000 OA
ENDROOT
BRANCH   2   4
ATOM      4  C   UNL     1      20.007  -7.311  25.862  0.00  0.00    +0.000 A 
ATOM      5  C   UNL     1      20.057  -5.925  25.694  0.00  0.00    +0.000 A 
ATOM      6  C   UNL     1      19.203  -5.071  26.301  0.00  0.00    +0.000 A 
ATOM      7  C   UNL     1      18.228  -5.535  27.129  0.00  0.00    +0.000 A 
ATOM      8  C   UNL     1      18.135  -6.920  27.330  0.00  0.00    +0.000 A 
ATOM      9  C   UNL     1      19.021  -7.785  26.697  0.00  0.00    +0.000 A 
ATOM     10 CL   UNL     1      18.873  -9.489  26.970  0.00  0.00    +0.000 Cl
ENDBRANCH   2   4
BRANCH   1  11
ATOM     11  N   UNL     1      23.190  -9.158  24.861  0.00  0.00    +0.000 NA
BRANCH  11  15
ATOM     12  C   UNL     1      26.718  -8.196  23.243  0.00  0.00    +0.000 C 
ATOM     13  C   UNL     1      25.742  -8.992  22.192  0.00  0.00    +0.000 C 
ATOM     14  C   UNL     1      24.865  -9.689  23.216  0.00  0.00    +0.000 C 
ATOM     15  C   UNL     1      24.093  -8.790  23.864  0.00  0.00    +0.000 C 
ATOM     16  C   UNL     1      24.313  -7.402  23.392  0.00  0.00    +0.000 C 
ATOM     17  C   UNL     1      25.706  -6.931  23.425  0.00  0.00    +0.000 C 
BRANCH  12  19
ATOM     18  C   UNL     1      28.928  -8.053  22.239  0.00  0.00    +0.000 C 
ATOM     19  C   UNL     1      27.565  -7.454  22.016  0.00  0.00    +0.000 C 
ENDBRANCH  12  19
ENDBRANCH  11  15
ENDBRANCH   1  11
TORSDOF 4
ENDMDL
MODEL 8
REMARK VINA RESULT:      -6.2      3.096      8.052
REMARK  Name = 
REMARK  4 active torsions:
REMARK  status: ('A' for Active; 'I' for Inactive)
REMARK    1  A    between atoms: C_2  and  C_3
REMARK    2  A    between atoms: C_6  and  N_7
REMARK    3  A    between atoms: N_7  and  N_8
REMARK    4  A    between atoms: C_9  and  C_11
REMARK                            x       y       z     vdW  Elec       q    Type
REMARK                         _______ _______ _______ _____ _____    ______ ____
ROOT
ATOM      1  N   UNL     1      17.874   9.246  37.168  0.00  0.00    +0.000 NA
ATOM      2  C   UNL     1      17.754  10.559  36.679  0.00  0.00    +0.000 C 
ATOM      3  O   UNL     1      18.407  11.450  37.280  0.00  0.00    +0.000 OA
ENDROOT
BRANCH   2   4
ATOM      4  C   UNL     1      16.926  10.939  35.530  0.00  0.00    +0.000 A 
ATOM      5  C   UNL     1      17.331  10.600  34.237  0.00  0.00    +0.000 A 
ATOM      6  C   UNL     1      16.623  10.916  33.130  0.00  0.00    +0.000 A 
ATOM      7  C   UNL     1      15.450  11.599  33.226  0.00  0.00    +0.000 A 
ATOM      8  C   UNL     1      14.999  11.961  34.504  0.00  0.00    +0.000 A 
ATOM      9  C   UNL     1      15.739  11.627  35.633  0.00  0.00    +0.000 A 
ATOM     10 CL   UNL     1      15.148  12.093  37.193  0.00  0.00    +0.000 Cl
ENDBRANCH   2   4
BRANCH   1  11
ATOM     11  N   UNL     1      18.676   8.939  38.265  0.00  0.00    +0.000 NA
BRANCH  11  15
ATOM     12  C   UNL     1      16.364   7.510  41.198  0.00  0.00    +0.000 C 
ATOM     13  C   UNL     1      17.954   7.525  41.604  0.00  0.00    +0.000 C 
ATOM     14  C   UNL     1      18.523   7.511  40.197  0.00  0.00    +0.000 C 
ATOM     15  C   UNL     1      18.266   8.681  39.573  0.00  0.00    +0.000 C 
ATOM     16  C   UNL     1      17.520   9.633  40.429  0.00  0.00    +0.000 C 
ATOM     17  C   UNL     1      16.265   9.125  41.005  0.00  0.00    +0.000 C 
BRANCH  12  19
ATOM     18  C   UNL     1      16.662   6.430  43.356  0.00  0.00    +0.000 C 
ATOM     19  C   UNL     1      15.877   7.582  42.789  0.00  0.00    +0.000 C 
ENDBRANCH  12  19
ENDBRANCH  11  15
ENDBRANCH   1  11
TORSDOF 4
ENDMDL
MODEL 9
REMARK VINA RESULT:      -6.1      3.154      7.844
REMARK  Name = 
REMARK  4 active torsions:
REMARK  status: ('A' for Active; 'I' for Inactive)
REMARK    1  A    between atoms: C_2  and  C_3
REMARK    2  A    between atoms: C_6  and  N_7
REMARK    3  A    between atoms: N_7  and  N_8
REMARK    4  A    between atoms: C_9  and  C_11
REMARK                            x       y       z     vdW  Elec       q    Type
REMARK                         _______ _______ _______ _____ _____    ______ ____
ROOT
ATOM      1  N   UNL     1      18.926  11.015  37.142  0.00  0.00    +0.000 NA
ATOM      2  C   UNL     1      17.996  10.233  36.434  0.00  0.00    +0.000 C 
ATOM      3  O   UNL     1      17.999   8.997  36.667  0.00  0.00    +0.000 OA
ENDROOT
BRANCH   2   4
ATOM      4  C   UNL     1      17.043  10.769  35.457  0.00  0.00    +0.000 A 
ATOM      5  C   UNL     1      17.284  10.611  34.090  0.00  0.00    +0.000 A 
ATOM      6  C   UNL     1      16.454  11.076  33.130  0.00  0.00    +0.000 A 
ATOM      7  C   UNL     1      15.313  11.741  33.459  0.00  0.00    +0.000 A 
ATOM      8  C   UNL     1      15.026  11.925  34.820  0.00  0.00    +0.000 A 
ATOM      9  C   UNL     1      15.890  11.438  35.795  0.00  0.00    +0.000 A 
ATOM     10 CL   UNL     1      15.499  11.686  37.464  0.00  0.00    +0.000 Cl
ENDBRANCH   2   4
BRANCH   1  11
ATOM     11  N   UNL     1      19.811  10.453  38.060  0.00  0.00    +0.000 NA
BRANCH  11  15
ATOM     12  C   UNL     1      23.763  10.667  37.482  0.00  0.00    +0.000 C 
ATOM     13  C   UNL     1      23.315   9.287  38.246  0.00  0.00    +0.000 C 
ATOM     14  C   UNL     1      21.999   9.785  38.814  0.00  0.00    +0.000 C 
ATOM     15  C   UNL     1      21.105   9.992  37.821  0.00  0.00    +0.000 C 
ATOM     16  C   UNL     1      21.655   9.670  36.483  0.00  0.00    +0.000 C 
ATOM     17  C   UNL     1      22.912  10.348  36.130  0.00  0.00    +0.000 C 
BRANCH  12  19
ATOM     18  C   UNL     1      26.131  10.374  37.949  0.00  0.00    +0.000 C 
ATOM     19  C   UNL     1      25.152   9.976  36.879  0.00  0.00    +0.000 C 
ENDBRANCH  12  19
ENDBRANCH  11  15
ENDBRANCH   1  11
TORSDOF 4
ENDMDL
MODEL 10
REMARK VINA RESULT:      -6.0     21.043     22.421
REMARK  Name = 
REMARK  4 active torsions:
REMARK  status: ('A' for Active; 'I' for Inactive)
REMARK    1  A    between atoms: C_2  and  C_3
REMARK    2  A    between atoms: C_6  and  N_7
REMARK    3  A    between atoms: N_7  and  N_8
REMARK    4  A    between atoms: C_9  and  C_11
REMARK                            x       y       z     vdW  Elec       q    Type
REMARK                         _______ _______ _______ _____ _____    ______ ____
ROOT
ATOM      1  N   UNL     1      29.813  24.267  22.407  0.00  0.00    +0.000 NA
ATOM      2  C   UNL     1      28.904  23.408  23.049  0.00  0.00    +0.000 C 
ATOM      3  O   UNL     1      27.924  23.007  22.369  0.00  0.00    +0.000 OA
ENDROOT
BRANCH   2   4
ATOM      4  C   UNL     1      29.032  22.963  24.441  0.00  0.00    +0.000 A 
ATOM      5  C   UNL     1      30.282  22.587  24.939  0.00  0.00    +0.000 A 
ATOM      6  C   UNL     1      30.481  22.166  26.208  0.00  0.00    +0.000 A 
ATOM      7  C   UNL     1      29.442  22.085  27.084  0.00  0.00    +0.000 A 
ATOM      8  C   UNL     1      28.166  22.453  26.631  0.00  0.00    +0.000 A 
ATOM      9  C   UNL     1      27.980  22.885  25.322  0.00  0.00    +0.000 A 
ATOM     10 CL   UNL     1      26.389  23.330  24.803  0.00  0.00    +0.000 Cl
ENDBRANCH   2   4
BRANCH   1  11
ATOM     11  N   UNL     1      29.642  24.659  21.080  0.00  0.00    +0.000 NA
BRANCH  11  15
ATOM     12  C   UNL     1      29.523  28.642  20.740  0.00  0.00    +0.000 C 
ATOM     13  C   UNL     1      29.163  27.881  19.332  0.00  0.00    +0.000 C 
ATOM     14  C   UNL     1      29.860  26.567  19.626  0.00  0.00    +0.000 C 
ATOM     15  C   UNL     1      29.215  25.900  20.609  0.00  0.00    +0.000 C 
ATOM     16  C   UNL     1      28.023  26.630  21.105  0.00  0.00    +0.000 C 
ATOM     17  C   UNL     1      28.262  28.010  21.554  0.00  0.00    +0.000 C 
BRANCH  12  19
ATOM     18  C   UNL     1      29.080  30.127  18.866  0.00  0.00    +0.000 C 
ATOM     19  C   UNL     1      28.674  30.009  20.310  0.00  0.00    +0.000 C 
ENDBRANCH  12  19
ENDBRANCH  11  15
ENDBRANCH   1  11
TORSDOF 4
ENDMDL
