MODEL 1
REMARK VINA RESULT:      -6.9      0.000      0.000
REMARK  Name = 
REMARK  3 active torsions:
REMARK  status: ('A' for Active; 'I' for Inactive)
REMARK    1  A    between atoms: C_7  and  C_8
REMARK    2  A    between atoms: N_9  and  N_10
REMARK    3  A    between atoms: C_11  and  C_13
REMARK                            x       y       z     vdW  Elec       q    Type
REMARK                         _______ _______ _______ _____ _____    ______ ____
ROOT
ATOM      1  C   UNL     1      17.907   9.588  37.912  0.00  0.00    +0.000 C 
ATOM      2  N   UNL     1      16.959  10.342  37.551  0.00  0.00    +0.000 NA
ENDROOT
BRANCH   1   9
ATOM      3  C   UNL     1      17.325   6.060  41.157  0.00  0.00    +0.000 C 
ATOM      4  C   UNL     1      17.589   7.543  40.853  0.00  0.00    +0.000 C 
ATOM      5  C   UNL     1      16.503   8.444  40.976  0.00  0.00    +0.000 C 
ATOM      6  C   UNL     1      18.909   7.887  41.701  0.00  0.00    +0.000 C 
ATOM      7  C   UNL     1      18.739   9.528  41.654  0.00  0.00    +0.000 C 
ATOM      8  C   UNL     1      18.407   9.903  40.302  0.00  0.00    +0.000 C 
ATOM      9  C   UNL     1      18.237   9.204  39.253  0.00  0.00    +0.000 C 
ATOM     10  C   UNL     1      18.428   7.610  39.477  0.00  0.00    +0.000 C 
ATOM     11  C   UNL     1      19.802   7.813  40.355  0.00  0.00    +0.000 C 
ENDBRANCH   1   9
BRANCH   2  12
ATOM     12  N   UNL     1      16.686  10.682  36.212  0.00  0.00    +0.000 NA
ATOM     13  C   UNL     1      15.657  11.609  35.902  0.00  0.00    +0.000 C 
ATOM     14  O   UNL     1      14.998  12.119  36.822  0.00  0.00    +0.000 OA
BRANCH  13  15
ATOM     15  C   UNL     1      15.392  11.946  34.504  0.00  0.00    +0.000 A 
ATOM     16  C   UNL     1      16.053  11.323  33.466  0.00  0.00    +0.000 A 
ATOM     17  C   UNL     1      15.811  11.634  32.140  0.00  0.00    +0.000 A 
ATOM     18  C   UNL     1      14.880  12.599  31.810  0.00  0.00    +0.000 A 
ATOM     19  O   UNL     1      14.604  12.943  30.490  0.00  0.00    +0.000 OA
ATOM     20  C   UNL     1      14.214  13.229  32.838  0.00  0.00    +0.000 A 
ATOM     21  C   UNL     1      14.463  12.910  34.171  0.00  0.00    +0.000 A 
ENDBRANCH  13  15
ENDBRANCH   2  12
TORSDOF 3
ENDMDL
MODEL 2
REMARK VINA RESULT:      -6.7     23.368     27.369
REMARK  Name = 
REMARK  3 active torsions:
REMARK  status: ('A' for Active; 'I' for Inactive)
REMARK    1  A    between atoms: C_7  and  C_8
REMARK    2  A    between atoms: N_9  and  N_10
REMARK    3  A    between atoms: C_11  and  C_13
REMARK                            x       y       z     vdW  Elec       q    Type
REMARK                         _______ _______ _______ _____ _____    ______ ____
ROOT
ATOM      1  C   UNL     1      29.855  26.811  19.841  0.00  0.00    +0.000 C 
ATOM      2  N   UNL     1      29.782  25.553  19.938  0.00  0.00    +0.000 NA
ENDROOT
BRANCH   1   9
ATOM      3  C   UNL     1      32.941  29.413  17.192  0.00  0.00    +0.000 C 
ATOM      4  C   UNL     1      31.494  29.102  17.606  0.00  0.00    +0.000 C 
ATOM      5  C   UNL     1      30.878  29.964  18.547  0.00  0.00    +0.000 C 
ATOM      6  C   UNL     1      30.725  28.891  16.212  0.00  0.00    +0.000 C 
ATOM      7  C   UNL     1      29.197  29.067  16.812  0.00  0.00    +0.000 C 
ATOM      8  C   UNL     1      29.103  28.294  18.025  0.00  0.00    +0.000 C 
ATOM      9  C   UNL     1      29.960  27.576  18.633  0.00  0.00    +0.000 C 
ATOM     10  C   UNL     1      31.413  27.521  17.917  0.00  0.00    +0.000 C 
ATOM     11  C   UNL     1      30.762  27.289  16.426  0.00  0.00    +0.000 C 
ENDBRANCH   1   9
BRANCH   2  12
ATOM     12  N   UNL     1      29.680  24.859  21.160  0.00  0.00    +0.000 NA
ATOM     13  C   UNL     1      28.426  24.733  21.812  0.00  0.00    +0.000 C 
ATOM     14  O   UNL     1      27.417  25.241  21.297  0.00  0.00    +0.000 OA
BRANCH  13  15
ATOM     15  C   UNL     1      28.345  24.009  23.079  0.00  0.00    +0.000 A 
ATOM     16  C   UNL     1      29.453  23.422  23.655  0.00  0.00    +0.000 A 
ATOM     17  C   UNL     1      29.389  22.734  24.853  0.00  0.00    +0.000 A 
ATOM     18  C   UNL     1      28.187  22.611  25.523  0.00  0.00    +0.000 A 
ATOM     19  O   UNL     1      28.077  21.928  26.730  0.00  0.00    +0.000 OA
ATOM     20  C   UNL     1      27.073  23.192  24.956  0.00  0.00    +0.000 A 
ATOM     21  C   UNL     1      27.147  23.884  23.750  0.00  0.00    +0.000 A 
ENDBRANCH  13  15
ENDBRANCH   2  12
TORSDOF 3
ENDMDL
MODEL 3
REMARK VINA RESULT:      -6.6     18.106     20.503
REMARK  Name = 
REMARK  3 active torsions:
REMARK  status: ('A' for Active; 'I' for Inactive)
REMARK    1  A    between atoms: C_7  and  C_8
REMARK    2  A    between atoms: N_9  and  N_10
REMARK    3  A    between atoms: C_11  and  C_13
REMARK                            x       y       z     vdW  Elec       q    Type
REMARK                         _______ _______ _______ _____ _____    ______ ____
ROOT
ATOM      1  C   UNL     1      33.955   2.174  35.289  0.00  0.00    +0.000 C 
ATOM      2  N   UNL     1      33.401   1.686  34.264  0.00  0.00    +0.000 NA
ENDROOT
BRANCH   1   9
ATOM      3  C   UNL     1      36.250   6.368  34.619  0.00  0.00    +0.000 C 
ATOM      4  C   UNL     1      35.392   5.462  35.516  0.00  0.00    +0.000 C 
ATOM      5  C   UNL     1      36.043   4.760  36.560  0.00  0.00    +0.000 C 
ATOM      6  C   UNL     1      34.152   6.392  35.938  0.00  0.00    +0.000 C 
ATOM      7  C   UNL     1      33.657   5.474  37.218  0.00  0.00    +0.000 C 
ATOM      8  C   UNL     1      33.654   4.094  36.801  0.00  0.00    +0.000 C 
ATOM      9  C   UNL     1      33.961   3.549  35.693  0.00  0.00    +0.000 C 
ATOM     10  C   UNL     1      34.440   4.592  34.548  0.00  0.00    +0.000 C 
ATOM     11  C   UNL     1      33.209   5.634  34.865  0.00  0.00    +0.000 C 
ENDBRANCH   1   9
BRANCH   2  12
ATOM     12  N   UNL     1      33.432   0.320  33.923  0.00  0.00    +0.000 NA
ATOM     13  C   UNL     1      32.793  -0.641  34.749  0.00  0.00    +0.000 C 
ATOM     14  O   UNL     1      32.207  -0.268  35.778  0.00  0.00    +0.000 OA
BRANCH  13  15
ATOM     15  C   UNL     1      32.839  -2.054  34.374  0.00  0.00    +0.000 A 
ATOM     16  C   UNL     1      33.635  -2.509  33.344  0.00  0.00    +0.000 A 
ATOM     17  C   UNL     1      33.686  -3.842  32.979  0.00  0.00    +0.000 A 
ATOM     18  C   UNL     1      32.925  -4.778  33.652  0.00  0.00    +0.000 A 
ATOM     19  O   UNL     1      32.946  -6.129  33.320  0.00  0.00    +0.000 OA
ATOM     20  C   UNL     1      32.126  -4.335  34.684  0.00  0.00    +0.000 A 
ATOM     21  C   UNL     1      32.080  -2.990  35.044  0.00  0.00    +0.000 A 
ENDBRANCH  13  15
ENDBRANCH   2  12
TORSDOF 3
ENDMDL
MODEL 4
REMARK VINA RESULT:      -6.5     19.391     21.655
REMARK  Name = 
REMARK  3 active torsions:
REMARK  status: ('A' for Active; 'I' for Inactive)
REMARK    1  A    between atoms: C_7  and  C_8
REMARK    2  A    between atoms: N_9  and  N_10
REMARK    3  A    between atoms: C_11  and  C_13
REMARK                            x       y       z     vdW  Elec       q    Type
REMARK                         _______ _______ _______ _____ _____    ______ ____
ROOT
ATOM      1  C   UNL     1      33.539  -3.177  33.944  0.00  0.00    +0.000 C 
ATOM      2  N   UNL     1      33.724  -2.099  33.311  0.00  0.00    +0.000 NA
ENDROOT
BRANCH   1   9
ATOM      3  C   UNL     1      32.026  -6.090  30.404  0.00  0.00    +0.000 C 
ATOM      4  C   UNL     1      32.577  -5.920  31.829  0.00  0.00    +0.000 C 
ATOM      5  C   UNL     1      31.660  -6.015  32.905  0.00  0.00    +0.000 C 
ATOM      6  C   UNL     1      33.847  -6.903  31.876  0.00  0.00    +0.000 C 
ATOM      7  C   UNL     1      33.976  -6.962  33.521  0.00  0.00    +0.000 C 
ATOM      8  C   UNL     1      33.850  -5.618  34.027  0.00  0.00    +0.000 C 
ATOM      9  C   UNL     1      33.663  -4.509  33.431  0.00  0.00    +0.000 C 
ATOM     10  C   UNL     1      33.545  -4.630  31.819  0.00  0.00    +0.000 C 
ATOM     11  C   UNL     1      34.840  -5.637  31.716  0.00  0.00    +0.000 C 
ENDBRANCH   1   9
BRANCH   2  12
ATOM     12  N   UNL     1      33.585  -0.816  33.876  0.00  0.00    +0.000 NA
ATOM     13  C   UNL     1      33.983   0.335  33.148  0.00  0.00    +0.000 C 
ATOM     14  O   UNL     1      34.455   0.203  32.008  0.00  0.00    +0.000 OA
BRANCH  13  15
ATOM     15  C   UNL     1      33.829   1.657  33.755  0.00  0.00    +0.000 A 
ATOM     16  C   UNL     1      33.561   2.779  33.001  0.00  0.00    +0.000 A 
ATOM     17  C   UNL     1      33.415   4.034  33.564  0.00  0.00    +0.000 A 
ATOM     18  C   UNL     1      33.535   4.203  34.930  0.00  0.00    +0.000 A 
ATOM     19  O   UNL     1      33.395   5.446  35.539  0.00  0.00    +0.000 OA
ATOM     20  C   UNL     1      33.804   3.088  35.694  0.00  0.00    +0.000 A 
ATOM     21  C   UNL     1      33.950   1.829  35.118  0.00  0.00    +0.000 A 
ENDBRANCH  13  15
ENDBRANCH   2  12
TORSDOF 3
ENDMDL
MODEL 5
REMARK VINA RESULT:      -6.4     22.887     24.050
REMARK  Name = 
REMARK  3 active torsions:
REMARK  status: ('A' for Active; 'I' for Inactive)
REMARK    1  A    between atoms: C_7  and  C_8
REMARK    2  A    between atoms: N_9  and  N_10
REMARK    3  A    between atoms: C_11  and  C_13
REMARK                            x       y       z     vdW  Elec       q    Type
REMARK                         _______ _______ _______ _____ _____    ______ ____
ROOT
ATOM      1  C   UNL     1      24.169  -9.615  24.258  0.00  0.00    +0.000 C 
ATOM      2  N   UNL     1      23.761  -8.493  24.672  0.00  0.00    +0.000 NA
ENDROOT
BRANCH   1   9
ATOM      3  C   UNL     1      27.911  -7.576  21.989  0.00  0.00    +0.000 C 
ATOM      4  C   UNL     1      27.061  -8.824  22.273  0.00  0.00    +0.000 C 
ATOM      5  C   UNL     1      26.104  -9.206  21.300  0.00  0.00    +0.000 C 
ATOM      6  C   UNL     1      28.135  -9.939  22.703  0.00  0.00    +0.000 C 
ATOM      7  C   UNL     1      27.149 -11.244  22.480  0.00  0.00    +0.000 C 
ATOM      8  C   UNL     1      25.870 -10.942  23.072  0.00  0.00    +0.000 C 
ATOM      9  C   UNL     1      25.445  -9.904  23.673  0.00  0.00    +0.000 C 
ATOM     10  C   UNL     1      26.535  -8.711  23.794  0.00  0.00    +0.000 C 
ATOM     11  C   UNL     1      27.732  -9.738  24.256  0.00  0.00    +0.000 C 
ENDBRANCH   1   9
BRANCH   2  12
ATOM     12  N   UNL     1      22.490  -8.274  25.240  0.00  0.00    +0.000 NA
ATOM     13  C   UNL     1      21.771  -7.085  24.951  0.00  0.00    +0.000 C 
ATOM     14  O   UNL     1      22.271  -6.238  24.194  0.00  0.00    +0.000 OA
BRANCH  13  15
ATOM     15  C   UNL     1      20.454  -6.880  25.552  0.00  0.00    +0.000 A 
ATOM     16  C   UNL     1      19.988  -5.622  25.875  0.00  0.00    +0.000 A 
ATOM     17  C   UNL     1      18.744  -5.416  26.444  0.00  0.00    +0.000 A 
ATOM     18  C   UNL     1      17.914  -6.488  26.712  0.00  0.00    +0.000 A 
ATOM     19  O   UNL     1      16.656  -6.326  27.283  0.00  0.00    +0.000 OA
ATOM     20  C   UNL     1      18.370  -7.749  26.394  0.00  0.00    +0.000 A 
ATOM     21  C   UNL     1      19.623  -7.947  25.821  0.00  0.00    +0.000 A 
ENDBRANCH  13  15
ENDBRANCH   2  12
TORSDOF 3
ENDMDL
MODEL 6
REMARK VINA RESULT:      -6.3     30.100     32.233
REMARK  Name = 
REMARK  3 active torsions:
REMARK  status: ('A' for Active; 'I' for Inactive)
REMARK    1  A    between atoms: C_7  and  C_8
REMARK    2  A    between atoms: N_9  and  N_10
REMARK    3  A    between atoms: C_11  and  C_13
REMARK                            x       y       z     vdW  Elec       q    Type
REMARK                         _______ _______ _______ _____ _____    ______ ____
ROOT
ATOM      1  C   UNL     1      33.369  20.858  10.940  0.00  0.00    +0.000 C 
ATOM      2  N   UNL     1      32.949  21.829  11.630  0.00  0.00    +0.000 NA
ENDROOT
BRANCH   1   9
ATOM      3  C   UNL     1      37.848  21.604  12.580  0.00  0.00    +0.000 C 
ATOM      4  C   UNL     1      36.912  20.954  11.550  0.00  0.00    +0.000 C 
ATOM      5  C   UNL     1      36.791  21.578  10.283  0.00  0.00    +0.000 C 
ATOM      6  C   UNL     1      37.340  19.406  11.552  0.00  0.00    +0.000 C 
ATOM      7  C   UNL     1      36.627  19.012  10.117  0.00  0.00    +0.000 C 
ATOM      8  C   UNL     1      35.305  19.586  10.104  0.00  0.00    +0.000 C 
ATOM      9  C   UNL     1      34.686  20.291  10.964  0.00  0.00    +0.000 C 
ATOM     10  C   UNL     1      35.534  20.598  12.310  0.00  0.00    +0.000 C 
ATOM     11  C   UNL     1      36.043  19.041  12.444  0.00  0.00    +0.000 C 
ENDBRANCH   1   9
BRANCH   2  12
ATOM     12  N   UNL     1      31.638  22.341  11.560  0.00  0.00    +0.000 NA
ATOM     13  C   UNL     1      30.691  22.028  12.570  0.00  0.00    +0.000 C 
ATOM     14  O   UNL     1      31.027  21.300  13.517  0.00  0.00    +0.000 OA
BRANCH  13  15
ATOM     15  C   UNL     1      29.336  22.571  12.475  0.00  0.00    +0.000 A 
ATOM     16  C   UNL     1      28.482  22.223  11.450  0.00  0.00    +0.000 A 
ATOM     17  C   UNL     1      27.199  22.730  11.350  0.00  0.00    +0.000 A 
ATOM     18  C   UNL     1      26.725  23.619  12.295  0.00  0.00    +0.000 A 
ATOM     19  O   UNL     1      25.442  24.153  12.234  0.00  0.00    +0.000 OA
ATOM     20  C   UNL     1      27.570  23.974  13.324  0.00  0.00    +0.000 A 
ATOM     21  C   UNL     1      28.861  23.459  13.417  0.00  0.00    +0.000 A 
ENDBRANCH  13  15
ENDBRANCH   2  12
TORSDOF 3
ENDMDL
MODEL 7
REMARK VINA RESULT:      -6.3     22.996     26.010
REMARK  Name = 
REMARK  3 active torsions:
REMARK  status: ('A' for Active; 'I' for Inactive)
REMARK    1  A    between atoms: C_7  and  C_8
REMARK    2  A    between atoms: N_9  and  N_10
REMARK    3  A    between atoms: C_11  and  C_13
REMARK                            x       y       z     vdW  Elec       q    Type
REMARK                         _______ _______ _______ _____ _____    ______ ____
ROOT
ATOM      1  C   UNL     1      28.625  24.768  21.477  0.00  0.00    +0.000 C 
ATOM      2  N   UNL     1      29.703  25.100  20.908  0.00  0.00    +0.000 NA
ENDROOT
BRANCH   1   9
ATOM      3  C   UNL     1      27.008  25.752  25.919  0.00  0.00    +0.000 C 
ATOM      4  C   UNL     1      27.950  24.952  25.004  0.00  0.00    +0.000 C 
ATOM      5  C   UNL     1      29.300  25.373  24.918  0.00  0.00    +0.000 C 
ATOM      6  C   UNL     1      27.698  23.423  25.425  0.00  0.00    +0.000 C 
ATOM      7  C   UNL     1      29.073  22.813  24.744  0.00  0.00    +0.000 C 
ATOM      8  C   UNL     1      29.207  23.380  23.426  0.00  0.00    +0.000 C 
ATOM      9  C   UNL     1      28.482  24.210  22.790  0.00  0.00    +0.000 C 
ATOM     10  C   UNL     1      27.178  24.719  23.607  0.00  0.00    +0.000 C 
ATOM     11  C   UNL     1      26.793  23.201  24.104  0.00  0.00    +0.000 C 
ENDBRANCH   1   9
BRANCH   2  12
ATOM     12  N   UNL     1      29.777  25.645  19.611  0.00  0.00    +0.000 NA
ATOM     13  C   UNL     1      29.803  27.052  19.424  0.00  0.00    +0.000 C 
ATOM     14  O   UNL     1      29.759  27.799  20.414  0.00  0.00    +0.000 OA
BRANCH  13  15
ATOM     15  C   UNL     1      29.879  27.594  18.068  0.00  0.00    +0.000 A 
ATOM     16  C   UNL     1      28.827  28.279  17.497  0.00  0.00    +0.000 A 
ATOM     17  C   UNL     1      28.888  28.796  16.215  0.00  0.00    +0.000 A 
ATOM     18  C   UNL     1      30.030  28.638  15.454  0.00  0.00    +0.000 A 
ATOM     19  O   UNL     1      30.134  29.142  14.161  0.00  0.00    +0.000 OA
ATOM     20  C   UNL     1      31.087  27.955  16.014  0.00  0.00    +0.000 A 
ATOM     21  C   UNL     1      31.017  27.438  17.305  0.00  0.00    +0.000 A 
ENDBRANCH  13  15
ENDBRANCH   2  12
TORSDOF 3
ENDMDL
MODEL 8
REMARK VINA RESULT:      -6.2     18.126     19.794
REMARK  Name = 
REMARK  3 active torsions:
REMARK  status: ('A' for Active; 'I' for Inactive)
REMARK    1  A    between atoms: C_7  and  C_8
REMARK    2  A    between atoms: N_9  and  N_10
REMARK    3  A    between atoms: C_11  and  C_13
REMARK                            x       y       z     vdW  Elec       q    Type
REMARK                         _______ _______ _______ _____ _____    ______ ____
ROOT
ATOM      1  C   UNL     1      36.047   6.850  35.714  0.00  0.00    +0.000 C 
ATOM      2  N   UNL     1      35.042   6.260  35.227  0.00  0.00    +0.000 NA
ENDROOT
BRANCH   1   9
ATOM      3  C   UNL     1      35.041  10.188  39.054  0.00  0.00    +0.000 C 
ATOM      4  C   UNL     1      35.312   9.832  37.584  0.00  0.00    +0.000 C 
ATOM      5  C   UNL     1      34.198   9.720  36.716  0.00  0.00    +0.000 C 
ATOM      6  C   UNL     1      36.469  10.854  37.142  0.00  0.00    +0.000 C 
ATOM      7  C   UNL     1      36.268  10.672  35.513  0.00  0.00    +0.000 C 
ATOM      8  C   UNL     1      36.148   9.263  35.234  0.00  0.00    +0.000 C 
ATOM      9  C   UNL     1      36.167   8.249  36.003  0.00  0.00    +0.000 C 
ATOM     10  C   UNL     1      36.360   8.605  37.572  0.00  0.00    +0.000 C 
ATOM     11  C   UNL     1      37.568   9.676  37.267  0.00  0.00    +0.000 C 
ENDBRANCH   1   9
BRANCH   2  12
ATOM     12  N   UNL     1      34.987   4.876  34.966  0.00  0.00    +0.000 NA
ATOM     13  C   UNL     1      33.855   4.312  34.322  0.00  0.00    +0.000 C 
ATOM     14  O   UNL     1      32.912   5.048  33.990  0.00  0.00    +0.000 OA
BRANCH  13  15
ATOM     15  C   UNL     1      33.821   2.873  34.062  0.00  0.00    +0.000 A 
ATOM     16  C   UNL     1      33.655   1.953  35.076  0.00  0.00    +0.000 A 
ATOM     17  C   UNL     1      33.622   0.590  34.842  0.00  0.00    +0.000 A 
ATOM     18  C   UNL     1      33.756   0.100  33.557  0.00  0.00    +0.000 A 
ATOM     19  O   UNL     1      33.728  -1.262  33.277  0.00  0.00    +0.000 OA
ATOM     20  C   UNL     1      33.922   1.010  32.536  0.00  0.00    +0.000 A 
ATOM     21  C   UNL     1      33.955   2.381  32.780  0.00  0.00    +0.000 A 
ENDBRANCH  13  15
ENDBRANCH   2  12
TORSDOF 3
ENDMDL
MODEL 9
REMARK VINA RESULT:      -6.1     21.812     23.372
REMARK  Name = 
REMARK  3 active torsions:
REMARK  status: ('A' for Active; 'I' for Inactive)
REMARK    1  A    between atoms: C_7  and  C_8
REMARK    2  A    between atoms: N_9  and  N_10
REMARK    3  A    between atoms: C_11  and  C_13
REMARK                            x       y       z     vdW  Elec       q    Type
REMARK                         _______ _______ _______ _____ _____    ______ ____
ROOT
ATOM      1  C   UNL     1      25.063   4.356  15.641  0.00  0.00    +0.000 C 
ATOM      2  N   UNL     1      24.213   3.922  16.468  0.00  0.00    +0.000 NA
ENDROOT
BRANCH   1   9
ATOM      3  C   UNL     1      27.800   5.968  19.277  0.00  0.00    +0.000 C 
ATOM      4  C   UNL     1      27.283   6.136  17.840  0.00  0.00    +0.000 C 
ATOM      5  C   UNL     1      26.240   7.070  17.620  0.00  0.00    +0.000 C 
ATOM      6  C   UNL     1      28.616   6.327  16.964  0.00  0.00    +0.000 C 
ATOM      7  C   UNL     1      27.875   6.962  15.632  0.00  0.00    +0.000 C 
ATOM      8  C   UNL     1      26.710   6.163  15.347  0.00  0.00    +0.000 C 
ATOM      9  C   UNL     1      26.225   5.144  15.934  0.00  0.00    +0.000 C 
ATOM     10  C   UNL     1      27.066   4.658  17.231  0.00  0.00    +0.000 C 
ATOM     11  C   UNL     1      28.507   4.797  16.453  0.00  0.00    +0.000 C 
ENDBRANCH   1   9
BRANCH   2  12
ATOM     12  N   UNL     1      23.089   3.150  16.115  0.00  0.00    +0.000 NA
ATOM     13  C   UNL     1      22.144   2.764  17.102  0.00  0.00    +0.000 C 
ATOM     14  O   UNL     1      22.317   3.111  18.281  0.00  0.00    +0.000 OA
BRANCH  13  15
ATOM     15  C   UNL     1      20.985   1.963  16.711  0.00  0.00    +0.000 A 
ATOM     16  C   UNL     1      19.761   2.101  17.331  0.00  0.00    +0.000 A 
ATOM     17  C   UNL     1      18.658   1.348  16.970  0.00  0.00    +0.000 A 
ATOM     18  C   UNL     1      18.753   0.416  15.955  0.00  0.00    +0.000 A 
ATOM     19  O   UNL     1      17.669  -0.362  15.559  0.00  0.00    +0.000 OA
ATOM     20  C   UNL     1      19.971   0.269  15.329  0.00  0.00    +0.000 A 
ATOM     21  C   UNL     1      21.077   1.031  15.698  0.00  0.00    +0.000 A 
ENDBRANCH  13  15
ENDBRANCH   2  12
TORSDOF 3
ENDMDL
MODEL 10
REMARK VINA RESULT:      -6.0     23.190     26.130
REMARK  Name = 
REMARK  3 active torsions:
REMARK  status: ('A' for Active; 'I' for Inactive)
REMARK    1  A    between atoms: C_7  and  C_8
REMARK    2  A    between atoms: N_9  and  N_10
REMARK    3  A    between atoms: C_11  and  C_13
REMARK                            x       y       z     vdW  Elec       q    Type
REMARK                         _______ _______ _______ _____ _____    ______ ____
ROOT
ATOM      1  C   UNL     1      28.552  25.026  21.535  0.00  0.00    +0.000 C 
ATOM      2  N   UNL     1      29.652  25.130  20.922  0.00  0.00    +0.000 NA
ENDROOT
BRANCH   1   9
ATOM      3  C   UNL     1      30.661  24.673  25.863  0.00  0.00    +0.000 C 
ATOM      4  C   UNL     1      29.644  24.138  24.844  0.00  0.00    +0.000 C 
ATOM      5  C   UNL     1      30.014  23.007  24.074  0.00  0.00    +0.000 C 
ATOM      6  C   UNL     1      28.277  24.024  25.679  0.00  0.00    +0.000 C 
ATOM      7  C   UNL     1      27.498  23.018  24.626  0.00  0.00    +0.000 C 
ATOM      8  C   UNL     1      27.706  23.523  23.291  0.00  0.00    +0.000 C 
ATOM      9  C   UNL     1      28.352  24.533  22.866  0.00  0.00    +0.000 C 
ATOM     10  C   UNL     1      29.068  25.406  24.029  0.00  0.00    +0.000 C 
ATOM     11  C   UNL     1      27.732  25.379  24.986  0.00  0.00    +0.000 C 
ENDBRANCH   1   9
BRANCH   2  12
ATOM     12  N   UNL     1      29.783  25.625  19.609  0.00  0.00    +0.000 NA
ATOM     13  C   UNL     1      29.841  27.023  19.372  0.00  0.00    +0.000 C 
ATOM     14  O   UNL     1      29.775  27.808  20.331  0.00  0.00    +0.000 OA
BRANCH  13  15
ATOM     15  C   UNL     1      29.976  27.513  18.000  0.00  0.00    +0.000 A 
ATOM     16  C   UNL     1      31.183  27.489  17.334  0.00  0.00    +0.000 A 
ATOM     17  C   UNL     1      31.323  27.950  16.037  0.00  0.00    +0.000 A 
ATOM     18  C   UNL     1      30.234  28.458  15.357  0.00  0.00    +0.000 A 
ATOM     19  O   UNL     1      30.329  28.931  14.052  0.00  0.00    +0.000 OA
ATOM     20  C   UNL     1      29.022  28.486  16.013  0.00  0.00    +0.000 A 
ATOM     21  C   UNL     1      28.890  28.020  17.318  0.00  0.00    +0.000 A 
ENDBRANCH  13  15
ENDBRANCH   2  12
TORSDOF 3
ENDMDL
