MODEL 1
REMARK VINA RESULT:      -6.6      0.000      0.000
REMARK  Name = 
REMARK  5 active torsions:
REMARK  status: ('A' for Active; 'I' for Inactive)
REMARK    1  A    between atoms: C_2  and  C_3
REMARK    2  A    between atoms: C_3  and  C_4
REMARK    3  A    between atoms: C_3  and  C_13
REMARK    4  A    between atoms: C_13  and  C_14
REMARK    5  A    between atoms: C_13  and  C_16
REMARK                            x       y       z     vdW  Elec       q    Type
REMARK                         _______ _______ _______ _____ _____    ______ ____
ROOT
ATOM      1  C   UNL     1      26.835  23.700  25.970  0.00  0.00    +0.000 C 
ENDROOT
BRANCH   1   2
ATOM      2  C   UNL     1      26.591  23.827  27.538  0.00  0.00    +0.000 A 
ATOM      3  C   UNL     1      26.369  25.079  28.032  0.00  0.00    +0.000 A 
ATOM      4  C   UNL     1      26.155  25.221  29.385  0.00  0.00    +0.000 A 
ATOM      5  C   UNL     1      25.909  26.572  29.955  0.00  0.00    +0.000 C 
ATOM      6  C   UNL     1      26.164  24.124  30.232  0.00  0.00    +0.000 A 
ATOM      7  O   UNL     1      25.939  24.352  31.585  0.00  0.00    +0.000 OA
ATOM      8  C   UNL     1      26.389  22.899  29.695  0.00  0.00    +0.000 A 
ATOM      9  C   UNL     1      26.400  21.722  30.594  0.00  0.00    +0.000 C 
ATOM     10  C   UNL     1      26.605  22.745  28.340  0.00  0.00    +0.000 A 
ENDBRANCH   1   2
BRANCH   1  12
ATOM     11  C   UNL     1      25.207  25.033  24.718  0.00  0.00    +0.000 C 
ATOM     12  C   UNL     1      26.360  25.232  25.673  0.00  0.00    +0.000 C 
ENDBRANCH   1  12
BRANCH   1  13
ATOM     13  C   UNL     1      28.513  24.070  26.018  0.00  0.00    +0.000 C 
BRANCH  13  14
ATOM     14  C   UNL     1      28.746  24.145  24.480  0.00  0.00    +0.000 A 
ATOM     15  C   UNL     1      29.429  25.279  24.109  0.00  0.00    +0.000 A 
ATOM     16  C   UNL     1      29.733  25.519  22.752  0.00  0.00    +0.000 A 
ATOM     17  C   UNL     1      29.343  24.620  21.822  0.00  0.00    +0.000 A 
ATOM     18  O   UNL     1      29.662  24.893  20.494  0.00  0.00    +0.000 OA
ATOM     19  C   UNL     1      28.663  23.489  22.198  0.00  0.00    +0.000 A 
ATOM     20  C   UNL     1      28.384  23.290  23.539  0.00  0.00    +0.000 A 
ENDBRANCH  13  14
BRANCH  13  21
ATOM     21  C   UNL     1      28.900  22.479  26.226  0.00  0.00    +0.000 C 
ATOM     22  C   UNL     1      30.163  22.539  27.063  0.00  0.00    +0.000 C 
ENDBRANCH  13  21
ENDBRANCH   1  13
TORSDOF 5
ENDMDL
MODEL 2
REMARK VINA RESULT:      -6.6      0.145      1.797
REMARK  Name = 
REMARK  5 active torsions:
REMARK  status: ('A' for Active; 'I' for Inactive)
REMARK    1  A    between atoms: C_2  and  C_3
REMARK    2  A    between atoms: C_3  and  C_4
REMARK    3  A    between atoms: C_3  and  C_13
REMARK    4  A    between atoms: C_13  and  C_14
REMARK    5  A    between atoms: C_13  and  C_16
REMARK                            x       y       z     vdW  Elec       q    Type
REMARK                         _______ _______ _______ _____ _____    ______ ____
ROOT
ATOM      1  C   UNL     1      26.935  23.577  25.959  0.00  0.00    +0.000 C 
ENDROOT
BRANCH   1   2
ATOM      2  C   UNL     1      26.660  23.814  27.509  0.00  0.00    +0.000 A 
ATOM      3  C   UNL     1      26.640  22.711  28.312  0.00  0.00    +0.000 A 
ATOM      4  C   UNL     1      26.405  22.883  29.657  0.00  0.00    +0.000 A 
ATOM      5  C   UNL     1      26.378  21.701  30.558  0.00  0.00    +0.000 C 
ATOM      6  C   UNL     1      26.190  24.144  30.192  0.00  0.00    +0.000 A 
ATOM      7  O   UNL     1      25.960  24.232  31.560  0.00  0.00    +0.000 OA
ATOM      8  C   UNL     1      26.219  25.211  29.356  0.00  0.00    +0.000 A 
ATOM      9  C   UNL     1      25.991  26.561  29.920  0.00  0.00    +0.000 C 
ATOM     10  C   UNL     1      26.454  25.049  28.004  0.00  0.00    +0.000 A 
ENDBRANCH   1   2
BRANCH   1  12
ATOM     11  C   UNL     1      25.206  24.705  24.644  0.00  0.00    +0.000 C 
ATOM     12  C   UNL     1      26.376  25.049  25.534  0.00  0.00    +0.000 C 
ENDBRANCH   1  12
BRANCH   1  13
ATOM     13  C   UNL     1      28.588  24.048  25.995  0.00  0.00    +0.000 C 
BRANCH  13  14
ATOM     14  C   UNL     1      28.809  24.126  24.456  0.00  0.00    +0.000 A 
ATOM     15  C   UNL     1      29.423  25.295  24.074  0.00  0.00    +0.000 A 
ATOM     16  C   UNL     1      29.706  25.544  22.714  0.00  0.00    +0.000 A 
ATOM     17  C   UNL     1      29.363  24.617  21.792  0.00  0.00    +0.000 A 
ATOM     18  O   UNL     1      29.659  24.899  20.460  0.00  0.00    +0.000 OA
ATOM     19  C   UNL     1      28.752  23.452  22.179  0.00  0.00    +0.000 A 
ATOM     20  C   UNL     1      28.492  23.246  23.522  0.00  0.00    +0.000 A 
ENDBRANCH  13  14
BRANCH  13  21
ATOM     21  C   UNL     1      29.072  22.486  26.212  0.00  0.00    +0.000 C 
ATOM     22  C   UNL     1      30.448  22.635  26.833  0.00  0.00    +0.000 C 
ENDBRANCH  13  21
ENDBRANCH   1  13
TORSDOF 5
ENDMDL
MODEL 3
REMARK VINA RESULT:      -6.3     17.879     19.583
REMARK  Name = 
REMARK  5 active torsions:
REMARK  status: ('A' for Active; 'I' for Inactive)
REMARK    1  A    between atoms: C_2  and  C_3
REMARK    2  A    between atoms: C_3  and  C_4
REMARK    3  A    between atoms: C_3  and  C_13
REMARK    4  A    between atoms: C_13  and  C_14
REMARK    5  A    between atoms: C_13  and  C_16
REMARK                            x       y       z     vdW  Elec       q    Type
REMARK                         _______ _______ _______ _____ _____    ______ ____
ROOT
ATOM      1  C   UNL     1      16.147  11.043  35.983  0.00  0.00    +0.000 C 
ENDROOT
BRANCH   1   2
ATOM      2  C   UNL     1      17.165  10.940  37.201  0.00  0.00    +0.000 A 
ATOM      3  C   UNL     1      16.858  10.056  38.194  0.00  0.00    +0.000 A 
ATOM      4  C   UNL     1      17.719   9.944  39.262  0.00  0.00    +0.000 A 
ATOM      5  C   UNL     1      17.412   8.989  40.360  0.00  0.00    +0.000 C 
ATOM      6  C   UNL     1      18.873  10.708  39.336  0.00  0.00    +0.000 A 
ATOM      7  O   UNL     1      19.690  10.534  40.447  0.00  0.00    +0.000 OA
ATOM      8  C   UNL     1      19.138  11.573  38.326  0.00  0.00    +0.000 A 
ATOM      9  C   UNL     1      20.370  12.392  38.398  0.00  0.00    +0.000 C 
ATOM     10  C   UNL     1      18.280  11.693  37.250  0.00  0.00    +0.000 A 
ENDBRANCH   1   2
BRANCH   1  12
ATOM     11  C   UNL     1      14.834  13.103  35.820  0.00  0.00    +0.000 C 
ATOM     12  C   UNL     1      16.278  12.666  35.883  0.00  0.00    +0.000 C 
ENDBRANCH   1  12
BRANCH   1  13
ATOM     13  C   UNL     1      17.304  10.723  34.752  0.00  0.00    +0.000 C 
BRANCH  13  14
ATOM     14  C   UNL     1      16.344  10.853  33.533  0.00  0.00    +0.000 A 
ATOM     15  C   UNL     1      16.767  11.801  32.633  0.00  0.00    +0.000 A 
ATOM     16  C   UNL     1      16.023  12.059  31.462  0.00  0.00    +0.000 A 
ATOM     17  C   UNL     1      14.887  11.362  31.240  0.00  0.00    +0.000 A 
ATOM     18  O   UNL     1      14.180  11.645  30.073  0.00  0.00    +0.000 OA
ATOM     19  C   UNL     1      14.470  10.416  32.141  0.00  0.00    +0.000 A 
ATOM     20  C   UNL     1      15.228  10.193  33.277  0.00  0.00    +0.000 A 
ENDBRANCH  13  14
BRANCH  13  21
ATOM     21  C   UNL     1      17.158   9.095  34.980  0.00  0.00    +0.000 C 
ATOM     22  C   UNL     1      18.587   8.652  35.226  0.00  0.00    +0.000 C 
ENDBRANCH  13  21
ENDBRANCH   1  13
TORSDOF 5
ENDMDL
MODEL 4
REMARK VINA RESULT:      -5.9      3.373      5.531
REMARK  Name = 
REMARK  5 active torsions:
REMARK  status: ('A' for Active; 'I' for Inactive)
REMARK    1  A    between atoms: C_2  and  C_3
REMARK    2  A    between atoms: C_3  and  C_4
REMARK    3  A    between atoms: C_3  and  C_13
REMARK    4  A    between atoms: C_13  and  C_14
REMARK    5  A    between atoms: C_13  and  C_16
REMARK                            x       y       z     vdW  Elec       q    Type
REMARK                         _______ _______ _______ _____ _____    ______ ____
ROOT
ATOM      1  C   UNL     1      28.603  23.972  29.542  0.00  0.00    +0.000 C 
ENDROOT
BRANCH   1   2
ATOM      2  C   UNL     1      29.713  23.050  30.212  0.00  0.00    +0.000 A 
ATOM      3  C   UNL     1      30.771  22.684  29.431  0.00  0.00    +0.000 A 
ATOM      4  C   UNL     1      31.748  21.886  29.982  0.00  0.00    +0.000 A 
ATOM      5  C   UNL     1      32.913  21.471  29.156  0.00  0.00    +0.000 C 
ATOM      6  C   UNL     1      31.668  21.459  31.298  0.00  0.00    +0.000 A 
ATOM      7  O   UNL     1      32.696  20.656  31.778  0.00  0.00    +0.000 OA
ATOM      8  C   UNL     1      30.599  21.847  32.036  0.00  0.00    +0.000 A 
ATOM      9  C   UNL     1      30.507  21.395  33.443  0.00  0.00    +0.000 C 
ATOM     10  C   UNL     1      29.613  22.648  31.493  0.00  0.00    +0.000 A 
ENDBRANCH   1   2
BRANCH   1  12
ATOM     11  C   UNL     1      29.594  25.628  28.037  0.00  0.00    +0.000 C 
ATOM     12  C   UNL     1      29.434  24.130  28.148  0.00  0.00    +0.000 C 
ENDBRANCH   1  12
BRANCH   1  13
ATOM     13  C   UNL     1      27.613  22.683  28.980  0.00  0.00    +0.000 C 
BRANCH  13  14
ATOM     14  C   UNL     1      26.692  23.527  28.050  0.00  0.00    +0.000 A 
ATOM     15  C   UNL     1      26.842  23.193  26.725  0.00  0.00    +0.000 A 
ATOM     16  C   UNL     1      26.087  23.854  25.731  0.00  0.00    +0.000 A 
ATOM     17  C   UNL     1      25.217  24.819  26.101  0.00  0.00    +0.000 A 
ATOM     18  O   UNL     1      24.492  25.447  25.092  0.00  0.00    +0.000 OA
ATOM     19  C   UNL     1      25.072  25.147  27.425  0.00  0.00    +0.000 A 
ATOM     20  C   UNL     1      25.830  24.476  28.369  0.00  0.00    +0.000 A 
ENDBRANCH  13  14
BRANCH  13  21
ATOM     21  C   UNL     1      26.680  22.752  30.340  0.00  0.00    +0.000 C 
ATOM     22  C   UNL     1      26.236  21.313  30.526  0.00  0.00    +0.000 C 
ENDBRANCH  13  21
ENDBRANCH   1  13
TORSDOF 5
ENDMDL
MODEL 5
REMARK VINA RESULT:      -5.8      2.538      3.603
REMARK  Name = 
REMARK  5 active torsions:
REMARK  status: ('A' for Active; 'I' for Inactive)
REMARK    1  A    between atoms: C_2  and  C_3
REMARK    2  A    between atoms: C_3  and  C_4
REMARK    3  A    between atoms: C_3  and  C_13
REMARK    4  A    between atoms: C_13  and  C_14
REMARK    5  A    between atoms: C_13  and  C_16
REMARK                            x       y       z     vdW  Elec       q    Type
REMARK                         _______ _______ _______ _____ _____    ______ ____
ROOT
ATOM      1  C   UNL     1      29.541  22.705  25.959  0.00  0.00    +0.000 C 
ENDROOT
BRANCH   1   2
ATOM      2  C   UNL     1      30.087  22.635  27.452  0.00  0.00    +0.000 A 
ATOM      3  C   UNL     1      29.308  23.190  28.425  0.00  0.00    +0.000 A 
ATOM      4  C   UNL     1      29.753  23.146  29.727  0.00  0.00    +0.000 A 
ATOM      5  C   UNL     1      28.926  23.741  30.810  0.00  0.00    +0.000 C 
ATOM      6  C   UNL     1      30.965  22.554  30.051  0.00  0.00    +0.000 A 
ATOM      7  O   UNL     1      31.342  22.551  31.389  0.00  0.00    +0.000 OA
ATOM      8  C   UNL     1      31.706  22.016  29.051  0.00  0.00    +0.000 A 
ATOM      9  C   UNL     1      33.001  21.383  29.389  0.00  0.00    +0.000 C 
ATOM     10  C   UNL     1      31.268  22.055  27.741  0.00  0.00    +0.000 A 
ENDBRANCH   1   2
BRANCH   1  12
ATOM     11  C   UNL     1      27.098  22.608  25.842  0.00  0.00    +0.000 C 
ATOM     12  C   UNL     1      28.185  23.503  26.388  0.00  0.00    +0.000 C 
ENDBRANCH   1  12
BRANCH   1  13
ATOM     13  C   UNL     1      30.413  24.118  25.513  0.00  0.00    +0.000 C 
BRANCH  13  14
ATOM     14  C   UNL     1      29.601  24.458  24.229  0.00  0.00    +0.000 A 
ATOM     15  C   UNL     1      29.062  25.722  24.271  0.00  0.00    +0.000 A 
ATOM     16  C   UNL     1      28.292  26.208  23.192  0.00  0.00    +0.000 A 
ATOM     17  C   UNL     1      28.092  25.413  22.118  0.00  0.00    +0.000 A 
ATOM     18  O   UNL     1      27.326  25.928  21.074  0.00  0.00    +0.000 OA
ATOM     19  C   UNL     1      28.633  24.153  22.081  0.00  0.00    +0.000 A 
ATOM     20  C   UNL     1      29.381  23.714  23.159  0.00  0.00    +0.000 A 
ENDBRANCH  13  14
BRANCH  13  21
ATOM     21  C   UNL     1      31.594  23.214  24.798  0.00  0.00    +0.000 C 
ATOM     22  C   UNL     1      32.783  24.156  24.776  0.00  0.00    +0.000 C 
ENDBRANCH  13  21
ENDBRANCH   1  13
TORSDOF 5
ENDMDL
MODEL 6
REMARK VINA RESULT:      -5.7      0.914      2.363
REMARK  Name = 
REMARK  5 active torsions:
REMARK  status: ('A' for Active; 'I' for Inactive)
REMARK    1  A    between atoms: C_2  and  C_3
REMARK    2  A    between atoms: C_3  and  C_4
REMARK    3  A    between atoms: C_3  and  C_13
REMARK    4  A    between atoms: C_13  and  C_14
REMARK    5  A    between atoms: C_13  and  C_16
REMARK                            x       y       z     vdW  Elec       q    Type
REMARK                         _______ _______ _______ _____ _____    ______ ____
ROOT
ATOM      1  C   UNL     1      28.267  24.986  26.349  0.00  0.00    +0.000 C 
ENDROOT
BRANCH   1   2
ATOM      2  C   UNL     1      27.532  24.837  27.752  0.00  0.00    +0.000 A 
ATOM      3  C   UNL     1      27.171  25.988  28.389  0.00  0.00    +0.000 A 
ATOM      4  C   UNL     1      26.533  25.892  29.606  0.00  0.00    +0.000 A 
ATOM      5  C   UNL     1      26.126  27.128  30.324  0.00  0.00    +0.000 C 
ATOM      6  C   UNL     1      26.262  24.659  30.178  0.00  0.00    +0.000 A 
ATOM      7  O   UNL     1      25.614  24.649  31.408  0.00  0.00    +0.000 OA
ATOM      8  C   UNL     1      26.639  23.542  29.509  0.00  0.00    +0.000 A 
ATOM      9  C   UNL     1      26.353  22.221  30.114  0.00  0.00    +0.000 C 
ATOM     10  C   UNL     1      27.280  23.627  28.288  0.00  0.00    +0.000 A 
ENDBRANCH   1   2
BRANCH   1  12
ATOM     11  C   UNL     1      30.446  23.872  26.420  0.00  0.00    +0.000 C 
ATOM     12  C   UNL     1      28.977  23.521  26.455  0.00  0.00    +0.000 C 
ENDBRANCH   1  12
BRANCH   1  13
ATOM     13  C   UNL     1      26.945  24.442  25.394  0.00  0.00    +0.000 C 
BRANCH  13  14
ATOM     14  C   UNL     1      27.687  24.402  24.026  0.00  0.00    +0.000 A 
ATOM     15  C   UNL     1      28.112  25.647  23.625  0.00  0.00    +0.000 A 
ATOM     16  C   UNL     1      28.806  25.808  22.406  0.00  0.00    +0.000 A 
ATOM     17  C   UNL     1      29.045  24.721  21.639  0.00  0.00    +0.000 A 
ATOM     18  O   UNL     1      29.732  24.921  20.444  0.00  0.00    +0.000 OA
ATOM     19  C   UNL     1      28.619  23.482  22.044  0.00  0.00    +0.000 A 
ATOM     20  C   UNL     1      27.942  23.366  23.246  0.00  0.00    +0.000 A 
ENDBRANCH  13  14
BRANCH  13  21
ATOM     21  C   UNL     1      26.344  25.975  25.278  0.00  0.00    +0.000 C 
ATOM     22  C   UNL     1      24.844  25.757  25.266  0.00  0.00    +0.000 C 
ENDBRANCH  13  21
ENDBRANCH   1  13
TORSDOF 5
ENDMDL
MODEL 7
REMARK VINA RESULT:      -5.7     17.095     21.566
REMARK  Name = 
REMARK  5 active torsions:
REMARK  status: ('A' for Active; 'I' for Inactive)
REMARK    1  A    between atoms: C_2  and  C_3
REMARK    2  A    between atoms: C_3  and  C_4
REMARK    3  A    between atoms: C_3  and  C_13
REMARK    4  A    between atoms: C_13  and  C_14
REMARK    5  A    between atoms: C_13  and  C_16
REMARK                            x       y       z     vdW  Elec       q    Type
REMARK                         _______ _______ _______ _____ _____    ______ ____
ROOT
ATOM      1  C   UNL     1      19.342  10.432  38.795  0.00  0.00    +0.000 C 
ENDROOT
BRANCH   1   2
ATOM      2  C   UNL     1      20.817  10.706  38.264  0.00  0.00    +0.000 A 
ATOM      3  C   UNL     1      21.389  11.897  38.604  0.00  0.00    +0.000 A 
ATOM      4  C   UNL     1      22.664  12.164  38.160  0.00  0.00    +0.000 A 
ATOM      5  C   UNL     1      23.314  13.453  38.514  0.00  0.00    +0.000 C 
ATOM      6  C   UNL     1      23.358  11.249  37.383  0.00  0.00    +0.000 A 
ATOM      7  O   UNL     1      24.642  11.595  36.974  0.00  0.00    +0.000 OA
ATOM      8  C   UNL     1      22.750  10.079  37.069  0.00  0.00    +0.000 A 
ATOM      9  C   UNL     1      23.486   9.097  36.239  0.00  0.00    +0.000 C 
ATOM     10  C   UNL     1      21.471   9.801  37.510  0.00  0.00    +0.000 A 
ENDBRANCH   1   2
BRANCH   1  12
ATOM     11  C   UNL     1      17.738  10.297  36.951  0.00  0.00    +0.000 C 
ATOM     12  C   UNL     1      18.931   9.544  37.490  0.00  0.00    +0.000 C 
ENDBRANCH   1  12
BRANCH   1  13
ATOM     13  C   UNL     1      19.752   9.079  39.774  0.00  0.00    +0.000 C 
BRANCH  13  14
ATOM     14  C   UNL     1      18.330   8.809  40.348  0.00  0.00    +0.000 A 
ATOM     15  C   UNL     1      18.072   7.466  40.495  0.00  0.00    +0.000 A 
ATOM     16  C   UNL     1      16.831   7.028  41.004  0.00  0.00    +0.000 A 
ATOM     17  C   UNL     1      15.899   7.945  41.343  0.00  0.00    +0.000 A 
ATOM     18  O   UNL     1      14.687   7.473  41.840  0.00  0.00    +0.000 OA
ATOM     19  C   UNL     1      16.162   9.284  41.194  0.00  0.00    +0.000 A 
ATOM     20  C   UNL     1      17.391   9.673  40.692  0.00  0.00    +0.000 A 
ENDBRANCH  13  14
BRANCH  13  21
ATOM     21  C   UNL     1      20.296  10.064  40.980  0.00  0.00    +0.000 C 
ATOM     22  C   UNL     1      21.316   9.200  41.697  0.00  0.00    +0.000 C 
ENDBRANCH  13  21
ENDBRANCH   1  13
TORSDOF 5
ENDMDL
MODEL 8
REMARK VINA RESULT:      -5.7     18.533     20.819
REMARK  Name = 
REMARK  5 active torsions:
REMARK  status: ('A' for Active; 'I' for Inactive)
REMARK    1  A    between atoms: C_2  and  C_3
REMARK    2  A    between atoms: C_3  and  C_4
REMARK    3  A    between atoms: C_3  and  C_13
REMARK    4  A    between atoms: C_13  and  C_14
REMARK    5  A    between atoms: C_13  and  C_16
REMARK                            x       y       z     vdW  Elec       q    Type
REMARK                         _______ _______ _______ _____ _____    ______ ____
ROOT
ATOM      1  C   UNL     1      19.642  10.466  39.095  0.00  0.00    +0.000 C 
ENDROOT
BRANCH   1   2
ATOM      2  C   UNL     1      21.105   9.847  39.001  0.00  0.00    +0.000 A 
ATOM      3  C   UNL     1      21.709   9.862  37.778  0.00  0.00    +0.000 A 
ATOM      4  C   UNL     1      22.975   9.333  37.664  0.00  0.00    +0.000 A 
ATOM      5  C   UNL     1      23.659   9.335  36.344  0.00  0.00    +0.000 C 
ATOM      6  C   UNL     1      23.628   8.796  38.762  0.00  0.00    +0.000 A 
ATOM      7  O   UNL     1      24.905   8.282  38.564  0.00  0.00    +0.000 OA
ATOM      8  C   UNL     1      22.990   8.803  39.958  0.00  0.00    +0.000 A 
ATOM      9  C   UNL     1      23.683   8.231  41.135  0.00  0.00    +0.000 C 
ATOM     10  C   UNL     1      21.720   9.331  40.083  0.00  0.00    +0.000 A 
ENDBRANCH   1   2
BRANCH   1  12
ATOM     11  C   UNL     1      19.777  12.769  38.277  0.00  0.00    +0.000 C 
ATOM     12  C   UNL     1      19.826  11.358  37.742  0.00  0.00    +0.000 C 
ENDBRANCH   1  12
BRANCH   1  13
ATOM     13  C   UNL     1      18.844   9.163  38.308  0.00  0.00    +0.000 C 
BRANCH  13  14
ATOM     14  C   UNL     1      17.570   9.943  37.868  0.00  0.00    +0.000 A 
ATOM     15  C   UNL     1      17.497  10.097  36.504  0.00  0.00    +0.000 A 
ATOM     16  C   UNL     1      16.409  10.780  35.918  0.00  0.00    +0.000 A 
ATOM     17  C   UNL     1      15.442  11.281  36.718  0.00  0.00    +0.000 A 
ATOM     18  O   UNL     1      14.385  11.949  36.102  0.00  0.00    +0.000 OA
ATOM     19  C   UNL     1      15.520  11.124  38.078  0.00  0.00    +0.000 A 
ATOM     20  C   UNL     1      16.602  10.448  38.613  0.00  0.00    +0.000 A 
ENDBRANCH  13  14
BRANCH  13  21
ATOM     21  C   UNL     1      18.270   8.591  39.746  0.00  0.00    +0.000 C 
ATOM     22  C   UNL     1      18.643   7.122  39.706  0.00  0.00    +0.000 C 
ENDBRANCH  13  21
ENDBRANCH   1  13
TORSDOF 5
ENDMDL
MODEL 9
REMARK VINA RESULT:      -5.7      1.441      2.997
REMARK  Name = 
REMARK  5 active torsions:
REMARK  status: ('A' for Active; 'I' for Inactive)
REMARK    1  A    between atoms: C_2  and  C_3
REMARK    2  A    between atoms: C_3  and  C_4
REMARK    3  A    between atoms: C_3  and  C_13
REMARK    4  A    between atoms: C_13  and  C_14
REMARK    5  A    between atoms: C_13  and  C_16
REMARK                            x       y       z     vdW  Elec       q    Type
REMARK                         _______ _______ _______ _____ _____    ______ ____
ROOT
ATOM      1  C   UNL     1      27.649  25.838  25.730  0.00  0.00    +0.000 C 
ENDROOT
BRANCH   1   2
ATOM      2  C   UNL     1      27.095  25.237  27.095  0.00  0.00    +0.000 A 
ATOM      3  C   UNL     1      27.626  24.052  27.513  0.00  0.00    +0.000 A 
ATOM      4  C   UNL     1      27.167  23.506  28.690  0.00  0.00    +0.000 A 
ATOM      5  C   UNL     1      27.728  22.216  29.173  0.00  0.00    +0.000 C 
ATOM      6  C   UNL     1      26.187  24.138  29.439  0.00  0.00    +0.000 A 
ATOM      7  O   UNL     1      25.778  23.521  30.616  0.00  0.00    +0.000 OA
ATOM      8  C   UNL     1      25.687  25.313  28.984  0.00  0.00    +0.000 A 
ATOM      9  C   UNL     1      24.639  25.994  29.779  0.00  0.00    +0.000 C 
ATOM     10  C   UNL     1      26.141  25.870  27.804  0.00  0.00    +0.000 A 
ENDBRANCH   1   2
BRANCH   1  12
ATOM     11  C   UNL     1      29.830  26.899  26.058  0.00  0.00    +0.000 C 
ATOM     12  C   UNL     1      29.204  25.526  26.110  0.00  0.00    +0.000 C 
ENDBRANCH   1  12
BRANCH   1  13
ATOM     13  C   UNL     1      27.432  24.408  24.800  0.00  0.00    +0.000 C 
BRANCH  13  14
ATOM     14  C   UNL     1      27.995  24.954  23.455  0.00  0.00    +0.000 A 
ATOM     15  C   UNL     1      28.853  24.068  22.849  0.00  0.00    +0.000 A 
ATOM     16  C   UNL     1      29.463  24.390  21.617  0.00  0.00    +0.000 A 
ATOM     17  C   UNL     1      29.192  25.583  21.044  0.00  0.00    +0.000 A 
ATOM     18  O   UNL     1      29.813  25.865  19.829  0.00  0.00    +0.000 OA
ATOM     19  C   UNL     1      28.335  26.464  21.653  0.00  0.00    +0.000 A 
ATOM     20  C   UNL     1      27.758  26.110  22.860  0.00  0.00    +0.000 A 
ENDBRANCH  13  14
BRANCH  13  21
ATOM     21  C   UNL     1      25.843  24.768  24.541  0.00  0.00    +0.000 C 
ATOM     22  C   UNL     1      25.260  23.444  24.084  0.00  0.00    +0.000 C 
ENDBRANCH  13  21
ENDBRANCH   1  13
TORSDOF 5
ENDMDL
MODEL 10
REMARK VINA RESULT:      -5.7     17.065     21.618
REMARK  Name = 
REMARK  5 active torsions:
REMARK  status: ('A' for Active; 'I' for Inactive)
REMARK    1  A    between atoms: C_2  and  C_3
REMARK    2  A    between atoms: C_3  and  C_4
REMARK    3  A    between atoms: C_3  and  C_13
REMARK    4  A    between atoms: C_13  and  C_14
REMARK    5  A    between atoms: C_13  and  C_16
REMARK                            x       y       z     vdW  Elec       q    Type
REMARK                         _______ _______ _______ _____ _____    ______ ____
ROOT
ATOM      1  C   UNL     1      19.305  10.505  38.800  0.00  0.00    +0.000 C 
ENDROOT
BRANCH   1   2
ATOM      2  C   UNL     1      20.787  10.821  38.312  0.00  0.00    +0.000 A 
ATOM      3  C   UNL     1      21.413   9.864  37.569  0.00  0.00    +0.000 A 
ATOM      4  C   UNL     1      22.696  10.107  37.132  0.00  0.00    +0.000 A 
ATOM      5  C   UNL     1      23.405   9.084  36.320  0.00  0.00    +0.000 C 
ATOM      6  C   UNL     1      23.343  11.295  37.436  0.00  0.00    +0.000 A 
ATOM      7  O   UNL     1      24.637  11.463  36.956  0.00  0.00    +0.000 OA
ATOM      8  C   UNL     1      22.681  12.217  38.176  0.00  0.00    +0.000 A 
ATOM      9  C   UNL     1      23.367  13.488  38.504  0.00  0.00    +0.000 C 
ATOM     10  C   UNL     1      21.394  11.983  38.620  0.00  0.00    +0.000 A 
ENDBRANCH   1   2
BRANCH   1  12
ATOM     11  C   UNL     1      17.748  10.144  36.946  0.00  0.00    +0.000 C 
ATOM     12  C   UNL     1      18.992   9.524  37.536  0.00  0.00    +0.000 C 
ENDBRANCH   1  12
BRANCH   1  13
ATOM     13  C   UNL     1      19.736   9.234  39.874  0.00  0.00    +0.000 C 
BRANCH  13  14
ATOM     14  C   UNL     1      18.304   8.918  40.397  0.00  0.00    +0.000 A 
ATOM     15  C   UNL     1      18.089   7.569  40.550  0.00  0.00    +0.000 A 
ATOM     16  C   UNL     1      16.845   7.090  41.016  0.00  0.00    +0.000 A 
ATOM     17  C   UNL     1      15.869   7.978  41.309  0.00  0.00    +0.000 A 
ATOM     18  O   UNL     1      14.656   7.467  41.765  0.00  0.00    +0.000 OA
ATOM     19  C   UNL     1      16.089   9.323  41.155  0.00  0.00    +0.000 A 
ATOM     20  C   UNL     1      17.322   9.751  40.696  0.00  0.00    +0.000 A 
ENDBRANCH  13  14
BRANCH  13  21
ATOM     21  C   UNL     1      20.169  10.313  41.045  0.00  0.00    +0.000 C 
ATOM     22  C   UNL     1      21.119   9.514  41.916  0.00  0.00    +0.000 C 
ENDBRANCH  13  21
ENDBRANCH   1  13
TORSDOF 5
ENDMDL
