MODEL 1
REMARK VINA RESULT:      -6.6      0.000      0.000
REMARK  Name = 
REMARK  2 active torsions:
REMARK  status: ('A' for Active; 'I' for Inactive)
REMARK    1  A    between atoms: C_7  and  N_8
REMARK    2  A    between atoms: C_9  and  C_11
REMARK                            x       y       z     vdW  Elec       q    Type
REMARK                         _______ _______ _______ _____ _____    ______ ____
ROOT
ATOM      1  N   UNL     1      18.100  11.170  36.925  0.00  0.00    +0.000 NA
ATOM      2  C   UNL     1      16.778  11.381  36.536  0.00  0.00    +0.000 C 
ATOM      3  O   UNL     1      15.985  11.570  37.502  0.00  0.00    +0.000 OA
ENDROOT
BRANCH   2   4
ATOM      4  C   UNL     1      16.318  11.392  35.140  0.00  0.00    +0.000 A 
ATOM      5  N   UNL     1      16.596  10.571  34.134  0.00  0.00    +0.000 NA
ATOM      6  C   UNL     1      15.910  11.002  33.034  0.00  0.00    +0.000 A 
ATOM      7  C   UNL     1      15.811  10.554  31.737  0.00  0.00    +0.000 A 
ATOM      8  C   UNL     1      15.007  11.236  30.846  0.00  0.00    +0.000 A 
ATOM      9  C   UNL     1      14.286  12.359  31.187  0.00  0.00    +0.000 A 
ATOM     10  C   UNL     1      14.387  12.805  32.491  0.00  0.00    +0.000 A 
ATOM     11  C   UNL     1      15.189  12.126  33.385  0.00  0.00    +0.000 A 
ATOM     12  N   UNL     1      15.469  12.331  34.688  0.00  0.00    +0.000 NA
ENDBRANCH   2   4
BRANCH   1  19
ATOM     13  C   UNL     1      18.493   8.847  37.648  0.00  0.00    +0.000 C 
ATOM     14  C   UNL     1      19.500   9.811  38.432  0.00  0.00    +0.000 C 
ATOM     15  C   UNL     1      20.432  10.182  37.178  0.00  0.00    +0.000 C 
ATOM     16  C   UNL     1      21.595  10.887  37.885  0.00  0.00    +0.000 C 
ATOM     17  C   UNL     1      20.920  11.797  38.908  0.00  0.00    +0.000 C 
ATOM     18  C   UNL     1      19.678  12.266  38.309  0.00  0.00    +0.000 C 
ATOM     19  C   UNL     1      18.494  11.174  38.416  0.00  0.00    +0.000 C 
ENDBRANCH   1  19
TORSDOF 2
ENDMDL
MODEL 2
REMARK VINA RESULT:      -6.6      2.936      4.450
REMARK  Name = 
REMARK  2 active torsions:
REMARK  status: ('A' for Active; 'I' for Inactive)
REMARK    1  A    between atoms: C_7  and  N_8
REMARK    2  A    between atoms: C_9  and  C_11
REMARK                            x       y       z     vdW  Elec       q    Type
REMARK                         _______ _______ _______ _____ _____    ______ ____
ROOT
ATOM      1  N   UNL     1      18.160   8.691  39.427  0.00  0.00    +0.000 NA
ATOM      2  C   UNL     1      18.712   9.336  38.321  0.00  0.00    +0.000 C 
ATOM      3  O   UNL     1      19.972   9.422  38.356  0.00  0.00    +0.000 OA
ENDROOT
BRANCH   2   4
ATOM      4  C   UNL     1      17.928   9.873  37.200  0.00  0.00    +0.000 A 
ATOM      5  N   UNL     1      16.843  10.638  37.195  0.00  0.00    +0.000 NA
ATOM      6  C   UNL     1      16.497  10.875  35.895  0.00  0.00    +0.000 A 
ATOM      7  C   UNL     1      15.487  11.587  35.292  0.00  0.00    +0.000 A 
ATOM      8  C   UNL     1      15.418  11.629  33.913  0.00  0.00    +0.000 A 
ATOM      9  C   UNL     1      16.318  10.986  33.093  0.00  0.00    +0.000 A 
ATOM     10  C   UNL     1      17.334  10.272  33.702  0.00  0.00    +0.000 A 
ATOM     11  C   UNL     1      17.406  10.229  35.079  0.00  0.00    +0.000 A 
ATOM     12  N   UNL     1      18.267   9.625  35.922  0.00  0.00    +0.000 NA
ENDBRANCH   2   4
BRANCH   1  19
ATOM     13  C   UNL     1      17.313   9.542  41.579  0.00  0.00    +0.000 C 
ATOM     14  C   UNL     1      17.910   8.074  41.801  0.00  0.00    +0.000 C 
ATOM     15  C   UNL     1      16.761   7.274  41.013  0.00  0.00    +0.000 C 
ATOM     16  C   UNL     1      17.099   5.832  41.405  0.00  0.00    +0.000 C 
ATOM     17  C   UNL     1      18.616   5.749  41.274  0.00  0.00    +0.000 C 
ATOM     18  C   UNL     1      18.996   6.598  40.153  0.00  0.00    +0.000 C 
ATOM     19  C   UNL     1      19.060   8.159  40.560  0.00  0.00    +0.000 C 
ENDBRANCH   1  19
TORSDOF 2
ENDMDL
MODEL 3
REMARK VINA RESULT:      -6.5      1.491      2.411
REMARK  Name = 
REMARK  2 active torsions:
REMARK  status: ('A' for Active; 'I' for Inactive)
REMARK    1  A    between atoms: C_7  and  N_8
REMARK    2  A    between atoms: C_9  and  C_11
REMARK                            x       y       z     vdW  Elec       q    Type
REMARK                         _______ _______ _______ _____ _____    ______ ____
ROOT
ATOM      1  N   UNL     1      19.617  10.276  37.268  0.00  0.00    +0.000 NA
ATOM      2  C   UNL     1      18.332   9.829  36.958  0.00  0.00    +0.000 C 
ATOM      3  O   UNL     1      17.895   8.945  37.748  0.00  0.00    +0.000 OA
ENDROOT
BRANCH   2   4
ATOM      4  C   UNL     1      17.535  10.324  35.827  0.00  0.00    +0.000 A 
ATOM      5  N   UNL     1      16.528  11.188  35.795  0.00  0.00    +0.000 NA
ATOM      6  C   UNL     1      16.128  11.325  34.496  0.00  0.00    +0.000 A 
ATOM      7  C   UNL     1      15.153  12.068  33.871  0.00  0.00    +0.000 A 
ATOM      8  C   UNL     1      15.005  11.976  32.501  0.00  0.00    +0.000 A 
ATOM      9  C   UNL     1      15.791  11.167  31.711  0.00  0.00    +0.000 A 
ATOM     10  C   UNL     1      16.771  10.423  32.341  0.00  0.00    +0.000 A 
ATOM     11  C   UNL     1      16.922  10.513  33.709  0.00  0.00    +0.000 A 
ATOM     12  N   UNL     1      17.773   9.916  34.568  0.00  0.00    +0.000 NA
ENDBRANCH   2   4
BRANCH   1  19
ATOM     13  C   UNL     1      21.949   9.852  36.598  0.00  0.00    +0.000 C 
ATOM     14  C   UNL     1      21.925  10.308  38.131  0.00  0.00    +0.000 C 
ATOM     15  C   UNL     1      21.528  11.843  37.873  0.00  0.00    +0.000 C 
ATOM     16  C   UNL     1      21.750  12.433  39.270  0.00  0.00    +0.000 C 
ATOM     17  C   UNL     1      21.133  11.407  40.216  0.00  0.00    +0.000 C 
ATOM     18  C   UNL     1      19.974  10.843  39.539  0.00  0.00    +0.000 C 
ATOM     19  C   UNL     1      20.383   9.699  38.475  0.00  0.00    +0.000 C 
ENDBRANCH   1  19
TORSDOF 2
ENDMDL
MODEL 4
REMARK VINA RESULT:      -6.2     22.198     22.934
REMARK  Name = 
REMARK  2 active torsions:
REMARK  status: ('A' for Active; 'I' for Inactive)
REMARK    1  A    between atoms: C_7  and  N_8
REMARK    2  A    between atoms: C_9  and  C_11
REMARK                            x       y       z     vdW  Elec       q    Type
REMARK                         _______ _______ _______ _____ _____    ______ ____
ROOT
ATOM      1  N   UNL     1      29.561  23.943  23.523  0.00  0.00    +0.000 NA
ATOM      2  C   UNL     1      29.031  24.198  22.259  0.00  0.00    +0.000 C 
ATOM      3  O   UNL     1      28.342  23.247  21.792  0.00  0.00    +0.000 OA
ENDROOT
BRANCH   2   4
ATOM      4  C   UNL     1      29.233  25.449  21.515  0.00  0.00    +0.000 A 
ATOM      5  N   UNL     1      29.037  26.711  21.878  0.00  0.00    +0.000 NA
ATOM      6  C   UNL     1      29.383  27.513  20.828  0.00  0.00    +0.000 A 
ATOM      7  C   UNL     1      29.390  28.875  20.631  0.00  0.00    +0.000 A 
ATOM      8  C   UNL     1      29.811  29.380  19.417  0.00  0.00    +0.000 A 
ATOM      9  C   UNL     1      30.231  28.585  18.373  0.00  0.00    +0.000 A 
ATOM     10  C   UNL     1      30.223  27.218  18.575  0.00  0.00    +0.000 A 
ATOM     11  C   UNL     1      29.804  26.709  19.787  0.00  0.00    +0.000 A 
ATOM     12  N   UNL     1      29.696  25.448  20.252  0.00  0.00    +0.000 NA
ENDBRANCH   2   4
BRANCH   1  19
ATOM     13  C   UNL     1      31.672  23.141  24.509  0.00  0.00    +0.000 C 
ATOM     14  C   UNL     1      30.460  22.711  25.460  0.00  0.00    +0.000 C 
ATOM     15  C   UNL     1      30.103  24.182  25.998  0.00  0.00    +0.000 C 
ATOM     16  C   UNL     1      29.128  23.842  27.131  0.00  0.00    +0.000 C 
ATOM     17  C   UNL     1      28.220  22.768  26.539  0.00  0.00    +0.000 C 
ATOM     18  C   UNL     1      28.046  23.085  25.128  0.00  0.00    +0.000 C 
ATOM     19  C   UNL     1      29.299  22.599  24.232  0.00  0.00    +0.000 C 
ENDBRANCH   1  19
TORSDOF 2
ENDMDL
MODEL 5
REMARK VINA RESULT:      -6.1     19.679     21.650
REMARK  Name = 
REMARK  2 active torsions:
REMARK  status: ('A' for Active; 'I' for Inactive)
REMARK    1  A    between atoms: C_7  and  N_8
REMARK    2  A    between atoms: C_9  and  C_11
REMARK                            x       y       z     vdW  Elec       q    Type
REMARK                         _______ _______ _______ _____ _____    ______ ____
ROOT
ATOM      1  N   UNL     1      22.128   2.453  17.406  0.00  0.00    +0.000 NA
ATOM      2  C   UNL     1      23.479   2.394  17.744  0.00  0.00    +0.000 C 
ATOM      3  O   UNL     1      23.859   1.256  18.139  0.00  0.00    +0.000 OA
ENDROOT
BRANCH   2   4
ATOM      4  C   UNL     1      24.403   3.533  17.655  0.00  0.00    +0.000 A 
ATOM      5  N   UNL     1      24.554   4.451  16.707  0.00  0.00    +0.000 NA
ATOM      6  C   UNL     1      25.543   5.307  17.098  0.00  0.00    +0.000 A 
ATOM      7  C   UNL     1      26.116   6.423  16.534  0.00  0.00    +0.000 A 
ATOM      8  C   UNL     1      27.126   7.080  17.210  0.00  0.00    +0.000 A 
ATOM      9  C   UNL     1      27.601   6.674  18.437  0.00  0.00    +0.000 A 
ATOM     10  C   UNL     1      27.022   5.553  19.001  0.00  0.00    +0.000 A 
ATOM     11  C   UNL     1      26.013   4.894  18.330  0.00  0.00    +0.000 A 
ATOM     12  N   UNL     1      25.285   3.801  18.635  0.00  0.00    +0.000 NA
ENDBRANCH   2   4
BRANCH   1  19
ATOM     13  C   UNL     1      19.947   3.136  18.326  0.00  0.00    +0.000 C 
ATOM     14  C   UNL     1      19.720   1.936  17.292  0.00  0.00    +0.000 C 
ATOM     15  C   UNL     1      20.059   2.762  15.957  0.00  0.00    +0.000 C 
ATOM     16  C   UNL     1      19.601   1.768  14.884  0.00  0.00    +0.000 C 
ATOM     17  C   UNL     1      20.133   0.421  15.364  0.00  0.00    +0.000 C 
ATOM     18  C   UNL     1      21.410   0.673  16.018  0.00  0.00    +0.000 C 
ATOM     19  C   UNL     1      21.229   1.206  17.532  0.00  0.00    +0.000 C 
ENDBRANCH   1  19
TORSDOF 2
ENDMDL
MODEL 6
REMARK VINA RESULT:      -6.1     25.505     27.158
REMARK  Name = 
REMARK  2 active torsions:
REMARK  status: ('A' for Active; 'I' for Inactive)
REMARK    1  A    between atoms: C_7  and  N_8
REMARK    2  A    between atoms: C_9  and  C_11
REMARK                            x       y       z     vdW  Elec       q    Type
REMARK                         _______ _______ _______ _____ _____    ______ ____
ROOT
ATOM      1  N   UNL     1      30.127  28.093  17.235  0.00  0.00    +0.000 NA
ATOM      2  C   UNL     1      30.658  27.387  18.313  0.00  0.00    +0.000 C 
ATOM      3  O   UNL     1      31.887  27.117  18.193  0.00  0.00    +0.000 OA
ENDROOT
BRANCH   2   4
ATOM      4  C   UNL     1      29.886  26.982  19.496  0.00  0.00    +0.000 A 
ATOM      5  N   UNL     1      29.140  27.699  20.327  0.00  0.00    +0.000 NA
ATOM      6  C   UNL     1      28.621  26.856  21.267  0.00  0.00    +0.000 A 
ATOM      7  C   UNL     1      27.793  27.031  22.352  0.00  0.00    +0.000 A 
ATOM      8  C   UNL     1      27.446  25.939  23.122  0.00  0.00    +0.000 A 
ATOM      9  C   UNL     1      27.890  24.661  22.862  0.00  0.00    +0.000 A 
ATOM     10  C   UNL     1      28.720  24.488  21.771  0.00  0.00    +0.000 A 
ATOM     11  C   UNL     1      29.068  25.577  20.999  0.00  0.00    +0.000 A 
ATOM     12  N   UNL     1      29.843  25.700  19.902  0.00  0.00    +0.000 NA
ENDBRANCH   2   4
BRANCH   1  19
ATOM     13  C   UNL     1      29.195  27.058  15.203  0.00  0.00    +0.000 C 
ATOM     14  C   UNL     1      29.831  28.474  14.817  0.00  0.00    +0.000 C 
ATOM     15  C   UNL     1      28.730  29.388  15.547  0.00  0.00    +0.000 C 
ATOM     16  C   UNL     1      29.101  30.771  15.001  0.00  0.00    +0.000 C 
ATOM     17  C   UNL     1      30.624  30.815  15.085  0.00  0.00    +0.000 C 
ATOM     18  C   UNL     1      31.008  30.072  16.278  0.00  0.00    +0.000 C 
ATOM     19  C   UNL     1      31.012  28.477  16.031  0.00  0.00    +0.000 C 
ENDBRANCH   1  19
TORSDOF 2
ENDMDL
MODEL 7
REMARK VINA RESULT:      -6.1     20.877     23.287
REMARK  Name = 
REMARK  2 active torsions:
REMARK  status: ('A' for Active; 'I' for Inactive)
REMARK    1  A    between atoms: C_7  and  N_8
REMARK    2  A    between atoms: C_9  and  C_11
REMARK                            x       y       z     vdW  Elec       q    Type
REMARK                         _______ _______ _______ _____ _____    ______ ____
ROOT
ATOM      1  N   UNL     1      33.180  -5.938  31.659  0.00  0.00    +0.000 NA
ATOM      2  C   UNL     1      33.269  -5.636  33.018  0.00  0.00    +0.000 C 
ATOM      3  O   UNL     1      33.481  -6.642  33.752  0.00  0.00    +0.000 OA
ENDROOT
BRANCH   2   4
ATOM      4  C   UNL     1      33.136  -4.282  33.574  0.00  0.00    +0.000 A 
ATOM      5  N   UNL     1      32.488  -3.851  34.650  0.00  0.00    +0.000 NA
ATOM      6  C   UNL     1      32.676  -2.502  34.747  0.00  0.00    +0.000 A 
ATOM      7  C   UNL     1      32.256  -1.542  35.638  0.00  0.00    +0.000 A 
ATOM      8  C   UNL     1      32.634  -0.228  35.445  0.00  0.00    +0.000 A 
ATOM      9  C   UNL     1      33.422   0.184  34.393  0.00  0.00    +0.000 A 
ATOM     10  C   UNL     1      33.844  -0.783  33.500  0.00  0.00    +0.000 A 
ATOM     11  C   UNL     1      33.469  -2.097  33.690  0.00  0.00    +0.000 A 
ATOM     12  N   UNL     1      33.728  -3.223  32.994  0.00  0.00    +0.000 NA
ENDBRANCH   2   4
BRANCH   1  19
ATOM     13  C   UNL     1      31.113  -6.595  30.491  0.00  0.00    +0.000 C 
ATOM     14  C   UNL     1      32.358  -7.304  29.779  0.00  0.00    +0.000 C 
ATOM     15  C   UNL     1      32.987  -5.979  29.122  0.00  0.00    +0.000 C 
ATOM     16  C   UNL     1      34.034  -6.595  28.187  0.00  0.00    +0.000 C 
ATOM     17  C   UNL     1      34.698  -7.682  29.027  0.00  0.00    +0.000 C 
ATOM     18  C   UNL     1      34.741  -7.197  30.399  0.00  0.00    +0.000 C 
ATOM     19  C   UNL     1      33.331  -7.389  31.163  0.00  0.00    +0.000 C 
ENDBRANCH   1  19
TORSDOF 2
ENDMDL
MODEL 8
REMARK VINA RESULT:      -6.0     23.076     24.124
REMARK  Name = 
REMARK  2 active torsions:
REMARK  status: ('A' for Active; 'I' for Inactive)
REMARK    1  A    between atoms: C_7  and  N_8
REMARK    2  A    between atoms: C_9  and  C_11
REMARK                            x       y       z     vdW  Elec       q    Type
REMARK                         _______ _______ _______ _____ _____    ______ ____
ROOT
ATOM      1  N   UNL     1      28.433  25.153  22.424  0.00  0.00    +0.000 NA
ATOM      2  C   UNL     1      29.223  25.234  21.278  0.00  0.00    +0.000 C 
ATOM      3  O   UNL     1      29.676  24.119  20.890  0.00  0.00    +0.000 OA
ENDROOT
BRANCH   2   4
ATOM      4  C   UNL     1      29.517  26.483  20.563  0.00  0.00    +0.000 A 
ATOM      5  N   UNL     1      29.240  27.743  20.877  0.00  0.00    +0.000 NA
ATOM      6  C   UNL     1      29.734  28.545  19.888  0.00  0.00    +0.000 A 
ATOM      7  C   UNL     1      29.746  29.905  19.680  0.00  0.00    +0.000 A 
ATOM      8  C   UNL     1      30.347  30.411  18.544  0.00  0.00    +0.000 A 
ATOM      9  C   UNL     1      30.945  29.618  17.590  0.00  0.00    +0.000 A 
ATOM     10  C   UNL     1      30.933  28.252  17.803  0.00  0.00    +0.000 A 
ATOM     11  C   UNL     1      30.334  27.743  18.937  0.00  0.00    +0.000 A 
ATOM     12  N   UNL     1      30.178  26.483  19.391  0.00  0.00    +0.000 NA
ENDBRANCH   2   4
BRANCH   1  19
ATOM     13  C   UNL     1      29.190  25.296  24.764  0.00  0.00    +0.000 C 
ATOM     14  C   UNL     1      27.906  24.344  24.692  0.00  0.00    +0.000 C 
ATOM     15  C   UNL     1      26.829  25.491  24.371  0.00  0.00    +0.000 C 
ATOM     16  C   UNL     1      25.521  24.714  24.556  0.00  0.00    +0.000 C 
ATOM     17  C   UNL     1      25.771  23.381  23.856  0.00  0.00    +0.000 C 
ATOM     18  C   UNL     1      26.621  23.655  22.705  0.00  0.00    +0.000 C 
ATOM     19  C   UNL     1      28.177  23.797  23.112  0.00  0.00    +0.000 C 
ENDBRANCH   1  19
TORSDOF 2
ENDMDL
MODEL 9
REMARK VINA RESULT:      -5.9      5.108      6.647
REMARK  Name = 
REMARK  2 active torsions:
REMARK  status: ('A' for Active; 'I' for Inactive)
REMARK    1  A    between atoms: C_7  and  N_8
REMARK    2  A    between atoms: C_9  and  C_11
REMARK                            x       y       z     vdW  Elec       q    Type
REMARK                         _______ _______ _______ _____ _____    ______ ____
ROOT
ATOM      1  N   UNL     1      21.189  10.066  37.988  0.00  0.00    +0.000 NA
ATOM      2  C   UNL     1      19.867   9.708  37.729  0.00  0.00    +0.000 C 
ATOM      3  O   UNL     1      19.519   9.872  36.525  0.00  0.00    +0.000 OA
ENDROOT
BRANCH   2   4
ATOM      4  C   UNL     1      18.939   9.182  38.741  0.00  0.00    +0.000 A 
ATOM      5  N   UNL     1      18.952   8.036  39.410  0.00  0.00    +0.000 NA
ATOM      6  C   UNL     1      17.873   8.021  40.247  0.00  0.00    +0.000 A 
ATOM      7  C   UNL     1      17.387   7.114  41.160  0.00  0.00    +0.000 A 
ATOM      8  C   UNL     1      16.238   7.413  41.865  0.00  0.00    +0.000 A 
ATOM      9  C   UNL     1      15.537   8.588  41.702  0.00  0.00    +0.000 A 
ATOM     10  C   UNL     1      16.029   9.497  40.785  0.00  0.00    +0.000 A 
ATOM     11  C   UNL     1      17.177   9.203  40.079  0.00  0.00    +0.000 A 
ATOM     12  N   UNL     1      17.867   9.886  39.144  0.00  0.00    +0.000 NA
ENDBRANCH   2   4
BRANCH   1  19
ATOM     13  C   UNL     1      22.338  12.086  38.806  0.00  0.00    +0.000 C 
ATOM     14  C   UNL     1      23.316  11.300  37.813  0.00  0.00    +0.000 C 
ATOM     15  C   UNL     1      23.609  10.049  38.777  0.00  0.00    +0.000 C 
ATOM     16  C   UNL     1      24.757   9.371  38.022  0.00  0.00    +0.000 C 
ATOM     17  C   UNL     1      24.319   9.401  36.561  0.00  0.00    +0.000 C 
ATOM     18  C   UNL     1      22.872   9.235  36.545  0.00  0.00    +0.000 C 
ATOM     19  C   UNL     1      22.093  10.612  36.865  0.00  0.00    +0.000 C 
ENDBRANCH   1  19
TORSDOF 2
ENDMDL
MODEL 10
REMARK VINA RESULT:      -5.9     18.946     20.421
REMARK  Name = 
REMARK  2 active torsions:
REMARK  status: ('A' for Active; 'I' for Inactive)
REMARK    1  A    between atoms: C_7  and  N_8
REMARK    2  A    between atoms: C_9  and  C_11
REMARK                            x       y       z     vdW  Elec       q    Type
REMARK                         _______ _______ _______ _____ _____    ______ ____
ROOT
ATOM      1  N   UNL     1      28.430  23.559  24.009  0.00  0.00    +0.000 NA
ATOM      2  C   UNL     1      29.300  22.851  24.837  0.00  0.00    +0.000 C 
ATOM      3  O   UNL     1      30.234  22.267  24.217  0.00  0.00    +0.000 OA
ENDROOT
BRANCH   2   4
ATOM      4  C   UNL     1      29.172  22.775  26.299  0.00  0.00    +0.000 A 
ATOM      5  N   UNL     1      30.068  22.987  27.255  0.00  0.00    +0.000 NA
ATOM      6  C   UNL     1      29.454  22.798  28.461  0.00  0.00    +0.000 A 
ATOM      7  C   UNL     1      29.874  22.881  29.768  0.00  0.00    +0.000 A 
ATOM      8  C   UNL     1      28.976  22.622  30.785  0.00  0.00    +0.000 A 
ATOM      9  C   UNL     1      27.661  22.280  30.561  0.00  0.00    +0.000 A 
ATOM     10  C   UNL     1      27.242  22.200  29.247  0.00  0.00    +0.000 A 
ATOM     11  C   UNL     1      28.135  22.458  28.228  0.00  0.00    +0.000 A 
ATOM     12  N   UNL     1      28.005  22.455  26.886  0.00  0.00    +0.000 NA
ENDBRANCH   2   4
BRANCH   1  19
ATOM     13  C   UNL     1      26.233  23.397  22.905  0.00  0.00    +0.000 C 
ATOM     14  C   UNL     1      27.189  24.329  22.022  0.00  0.00    +0.000 C 
ATOM     15  C   UNL     1      27.228  25.578  23.031  0.00  0.00    +0.000 C 
ATOM     16  C   UNL     1      27.899  26.636  22.147  0.00  0.00    +0.000 C 
ATOM     17  C   UNL     1      29.042  25.890  21.466  0.00  0.00    +0.000 C 
ATOM     18  C   UNL     1      29.549  24.917  22.423  0.00  0.00    +0.000 C 
ATOM     19  C   UNL     1      28.639  23.583  22.481  0.00  0.00    +0.000 C 
ENDBRANCH   1  19
TORSDOF 2
ENDMDL
