MODEL 1
REMARK VINA RESULT:      -6.5      0.000      0.000
REMARK  Name = 
REMARK  4 active torsions:
REMARK  status: ('A' for Active; 'I' for Inactive)
REMARK    1  A    between atoms: C_2  and  C_3
REMARK    2  A    between atoms: C_3  and  C_16
REMARK    3  A    between atoms: C_4  and  C_5
REMARK    4  A    between atoms: C_16  and  N_18
REMARK                            x       y       z     vdW  Elec       q    Type
REMARK                         _______ _______ _______ _____ _____    ______ ____
ROOT
ATOM      1  C   UNL     1      25.507  24.282  26.795  0.00  0.00    +0.000 A 
ATOM      2  C   UNL     1      24.648  25.279  27.151  0.00  0.00    +0.000 A 
ATOM      3 CL   UNL     1      23.608  26.289  26.159  0.00  0.00    +0.000 Cl
ATOM      4  N   UNL     1      24.753  25.394  28.509  0.00  0.00    +0.000 N 
ATOM      5  C   UNL     1      24.001  26.352  29.306  0.00  0.00    +0.000 C 
ATOM      6  C   UNL     1      25.636  24.512  28.988  0.00  0.00    +0.000 A 
ATOM      7  C   UNL     1      26.094  24.230  30.283  0.00  0.00    +0.000 A 
ATOM      8  C   UNL     1      27.026  23.245  30.494  0.00  0.00    +0.000 A 
ATOM      9  C   UNL     1      27.521  22.527  29.432  0.00  0.00    +0.000 A 
ATOM     10  C   UNL     1      27.089  22.780  28.128  0.00  0.00    +0.000 A 
ATOM     11  C   UNL     1      26.150  23.777  27.953  0.00  0.00    +0.000 A 
ENDROOT
BRANCH   1  13
ATOM     12  C   UNL     1      26.700  24.126  24.708  0.00  0.00    +0.000 C 
ATOM     13  C   UNL     1      25.762  23.734  25.500  0.00  0.00    +0.000 C 
BRANCH  12  15
ATOM     14  C   UNL     1      26.999  26.503  24.526  0.00  0.00    +0.000 C 
ATOM     15  C   UNL     1      27.643  25.198  25.037  0.00  0.00    +0.000 C 
ENDBRANCH  12  15
BRANCH  12  16
ATOM     16  C   UNL     1      26.847  23.468  23.407  0.00  0.00    +0.000 C 
ATOM     17  O   UNL     1      25.848  22.949  22.874  0.00  0.00    +0.000 OA
BRANCH  16  18
ATOM     18  N   UNL     1      28.115  23.413  22.738  0.00  0.00    +0.000 NA
ATOM     19  C   UNL     1      28.355  24.244  21.787  0.00  0.00    +0.000 C 
ATOM     20  N   UNL     1      27.373  25.211  21.399  0.00  0.00    +0.000 NA
ATOM     21  N   UNL     1      29.591  24.221  21.103  0.00  0.00    +0.000 NA
ENDBRANCH  16  18
ENDBRANCH  12  16
ENDBRANCH   1  13
TORSDOF 4
ENDMDL
MODEL 2
REMARK VINA RESULT:      -6.5      2.242      2.930
REMARK  Name = 
REMARK  4 active torsions:
REMARK  status: ('A' for Active; 'I' for Inactive)
REMARK    1  A    between atoms: C_2  and  C_3
REMARK    2  A    between atoms: C_3  and  C_16
REMARK    3  A    between atoms: C_4  and  C_5
REMARK    4  A    between atoms: C_16  and  N_18
REMARK                            x       y       z     vdW  Elec       q    Type
REMARK                         _______ _______ _______ _____ _____    ______ ____
ROOT
ATOM      1  C   UNL     1      28.150  23.009  27.216  0.00  0.00    +0.000 A 
ATOM      2  C   UNL     1      27.290  23.464  28.171  0.00  0.00    +0.000 A 
ATOM      3 CL   UNL     1      25.641  24.049  28.028  0.00  0.00    +0.000 Cl
ATOM      4  N   UNL     1      27.983  23.415  29.349  0.00  0.00    +0.000 N 
ATOM      5  C   UNL     1      27.433  23.819  30.635  0.00  0.00    +0.000 C 
ATOM      6  C   UNL     1      29.220  22.950  29.147  0.00  0.00    +0.000 A 
ATOM      7  C   UNL     1      30.300  22.711  30.009  0.00  0.00    +0.000 A 
ATOM      8  C   UNL     1      31.483  22.216  29.522  0.00  0.00    +0.000 A 
ATOM      9  C   UNL     1      31.619  21.950  28.181  0.00  0.00    +0.000 A 
ATOM     10  C   UNL     1      30.565  22.175  27.292  0.00  0.00    +0.000 A 
ATOM     11  C   UNL     1      29.389  22.674  27.817  0.00  0.00    +0.000 A 
ENDROOT
BRANCH   1  13
ATOM     12  C   UNL     1      28.016  23.751  24.928  0.00  0.00    +0.000 C 
ATOM     13  C   UNL     1      27.923  22.823  25.817  0.00  0.00    +0.000 C 
BRANCH  12  15
ATOM     14  C   UNL     1      27.051  25.931  25.232  0.00  0.00    +0.000 C 
ATOM     15  C   UNL     1      28.373  25.138  25.239  0.00  0.00    +0.000 C 
ENDBRANCH  12  15
BRANCH  12  16
ATOM     16  C   UNL     1      27.758  23.415  23.526  0.00  0.00    +0.000 C 
ATOM     17  O   UNL     1      26.631  22.997  23.201  0.00  0.00    +0.000 OA
BRANCH  16  18
ATOM     18  N   UNL     1      28.776  23.557  22.525  0.00  0.00    +0.000 NA
ATOM     19  C   UNL     1      28.670  24.500  21.658  0.00  0.00    +0.000 C 
ATOM     20  N   UNL     1      27.554  25.396  21.688  0.00  0.00    +0.000 NA
ATOM     21  N   UNL     1      29.651  24.673  20.656  0.00  0.00    +0.000 NA
ENDBRANCH  16  18
ENDBRANCH  12  16
ENDBRANCH   1  13
TORSDOF 4
ENDMDL
MODEL 3
REMARK VINA RESULT:      -6.5      1.584      2.763
REMARK  Name = 
REMARK  4 active torsions:
REMARK  status: ('A' for Active; 'I' for Inactive)
REMARK    1  A    between atoms: C_2  and  C_3
REMARK    2  A    between atoms: C_3  and  C_16
REMARK    3  A    between atoms: C_4  and  C_5
REMARK    4  A    between atoms: C_16  and  N_18
REMARK                            x       y       z     vdW  Elec       q    Type
REMARK                         _______ _______ _______ _____ _____    ______ ____
ROOT
ATOM      1  C   UNL     1      25.978  23.819  27.122  0.00  0.00    +0.000 A 
ATOM      2  C   UNL     1      26.649  23.376  28.223  0.00  0.00    +0.000 A 
ATOM      3 CL   UNL     1      27.859  22.114  28.385  0.00  0.00    +0.000 Cl
ATOM      4  N   UNL     1      26.171  24.113  29.271  0.00  0.00    +0.000 N 
ATOM      5  C   UNL     1      26.620  23.960  30.648  0.00  0.00    +0.000 C 
ATOM      6  C   UNL     1      25.243  24.979  28.851  0.00  0.00    +0.000 A 
ATOM      7  C   UNL     1      24.467  25.940  29.516  0.00  0.00    +0.000 A 
ATOM      8  C   UNL     1      23.571  26.713  28.822  0.00  0.00    +0.000 A 
ATOM      9  C   UNL     1      23.427  26.550  27.465  0.00  0.00    +0.000 A 
ATOM     10  C   UNL     1      24.182  25.604  26.769  0.00  0.00    +0.000 A 
ATOM     11  C   UNL     1      25.074  24.844  27.499  0.00  0.00    +0.000 A 
ENDROOT
BRANCH   1  13
ATOM     12  C   UNL     1      26.966  23.908  24.927  0.00  0.00    +0.000 C 
ATOM     13  C   UNL     1      26.118  23.410  25.760  0.00  0.00    +0.000 C 
BRANCH  12  15
ATOM     14  C   UNL     1      27.263  26.290  24.801  0.00  0.00    +0.000 C 
ATOM     15  C   UNL     1      27.912  24.972  25.272  0.00  0.00    +0.000 C 
ENDBRANCH  12  15
BRANCH  12  16
ATOM     16  C   UNL     1      27.000  23.388  23.557  0.00  0.00    +0.000 C 
ATOM     17  O   UNL     1      25.946  22.971  23.042  0.00  0.00    +0.000 OA
BRANCH  16  18
ATOM     18  N   UNL     1      28.220  23.352  22.803  0.00  0.00    +0.000 NA
ATOM     19  C   UNL     1      28.382  24.188  21.840  0.00  0.00    +0.000 C 
ATOM     20  N   UNL     1      27.362  25.142  21.523  0.00  0.00    +0.000 NA
ATOM     21  N   UNL     1      29.569  24.184  21.074  0.00  0.00    +0.000 NA
ENDBRANCH  16  18
ENDBRANCH  12  16
ENDBRANCH   1  13
TORSDOF 4
ENDMDL
MODEL 4
REMARK VINA RESULT:      -6.5      3.694      4.721
REMARK  Name = 
REMARK  4 active torsions:
REMARK  status: ('A' for Active; 'I' for Inactive)
REMARK    1  A    between atoms: C_2  and  C_3
REMARK    2  A    between atoms: C_3  and  C_16
REMARK    3  A    between atoms: C_4  and  C_5
REMARK    4  A    between atoms: C_16  and  N_18
REMARK                            x       y       z     vdW  Elec       q    Type
REMARK                         _______ _______ _______ _____ _____    ______ ____
ROOT
ATOM      1  C   UNL     1      30.535  23.297  25.327  0.00  0.00    +0.000 A 
ATOM      2  C   UNL     1      31.778  23.666  25.750  0.00  0.00    +0.000 A 
ATOM      3 CL   UNL     1      33.191  24.152  24.828  0.00  0.00    +0.000 Cl
ATOM      4  N   UNL     1      31.755  23.561  27.112  0.00  0.00    +0.000 N 
ATOM      5  C   UNL     1      32.890  23.862  27.973  0.00  0.00    +0.000 C 
ATOM      6  C   UNL     1      30.554  23.148  27.531  0.00  0.00    +0.000 A 
ATOM      7  C   UNL     1      30.026  22.890  28.804  0.00  0.00    +0.000 A 
ATOM      8  C   UNL     1      28.729  22.467  28.948  0.00  0.00    +0.000 A 
ATOM      9  C   UNL     1      27.935  22.291  27.841  0.00  0.00    +0.000 A 
ATOM     10  C   UNL     1      28.426  22.537  26.557  0.00  0.00    +0.000 A 
ATOM     11  C   UNL     1      29.735  22.962  26.449  0.00  0.00    +0.000 A 
ENDROOT
BRANCH   1  13
ATOM     12  C   UNL     1      29.414  24.242  23.416  0.00  0.00    +0.000 C 
ATOM     13  C   UNL     1      30.011  23.260  23.998  0.00  0.00    +0.000 C 
BRANCH  12  15
ATOM     14  C   UNL     1      27.716  25.559  24.493  0.00  0.00    +0.000 C 
ATOM     15  C   UNL     1      29.192  25.545  24.048  0.00  0.00    +0.000 C 
ENDBRANCH  12  15
BRANCH  12  16
ATOM     16  C   UNL     1      28.929  24.061  22.045  0.00  0.00    +0.000 C 
ATOM     17  O   UNL     1      27.866  23.442  21.855  0.00  0.00    +0.000 OA
BRANCH  16  18
ATOM     18  N   UNL     1      29.654  24.584  20.922  0.00  0.00    +0.000 NA
ATOM     19  C   UNL     1      29.336  25.740  20.459  0.00  0.00    +0.000 C 
ATOM     20  N   UNL     1      28.274  26.496  21.051  0.00  0.00    +0.000 NA
ATOM     21  N   UNL     1      30.025  26.289  19.354  0.00  0.00    +0.000 NA
ENDBRANCH  16  18
ENDBRANCH  12  16
ENDBRANCH   1  13
TORSDOF 4
ENDMDL
MODEL 5
REMARK VINA RESULT:      -6.4      3.973      5.127
REMARK  Name = 
REMARK  4 active torsions:
REMARK  status: ('A' for Active; 'I' for Inactive)
REMARK    1  A    between atoms: C_2  and  C_3
REMARK    2  A    between atoms: C_3  and  C_16
REMARK    3  A    between atoms: C_4  and  C_5
REMARK    4  A    between atoms: C_16  and  N_18
REMARK                            x       y       z     vdW  Elec       q    Type
REMARK                         _______ _______ _______ _____ _____    ______ ____
ROOT
ATOM      1  C   UNL     1      30.476  23.127  25.717  0.00  0.00    +0.000 A 
ATOM      2  C   UNL     1      29.882  22.693  26.865  0.00  0.00    +0.000 A 
ATOM      3 CL   UNL     1      28.301  21.973  27.122  0.00  0.00    +0.000 Cl
ATOM      4  N   UNL     1      30.773  22.954  27.868  0.00  0.00    +0.000 N 
ATOM      5  C   UNL     1      30.535  22.646  29.271  0.00  0.00    +0.000 C 
ATOM      6  C   UNL     1      31.879  23.524  27.377  0.00  0.00    +0.000 A 
ATOM      7  C   UNL     1      33.064  23.974  27.975  0.00  0.00    +0.000 A 
ATOM      8  C   UNL     1      34.061  24.531  27.214  0.00  0.00    +0.000 A 
ATOM      9  C   UNL     1      33.902  24.655  25.855  0.00  0.00    +0.000 A 
ATOM     10  C   UNL     1      32.735  24.218  25.224  0.00  0.00    +0.000 A 
ATOM     11  C   UNL     1      31.754  23.662  26.020  0.00  0.00    +0.000 A 
ENDROOT
BRANCH   1  13
ATOM     12  C   UNL     1      29.301  23.984  23.797  0.00  0.00    +0.000 C 
ATOM     13  C   UNL     1      29.993  23.063  24.374  0.00  0.00    +0.000 C 
BRANCH  12  15
ATOM     14  C   UNL     1      27.470  25.032  24.949  0.00  0.00    +0.000 C 
ATOM     15  C   UNL     1      28.915  25.237  24.451  0.00  0.00    +0.000 C 
ENDBRANCH  12  15
BRANCH  12  16
ATOM     16  C   UNL     1      28.874  23.783  22.410  0.00  0.00    +0.000 C 
ATOM     17  O   UNL     1      27.845  23.120  22.183  0.00  0.00    +0.000 OA
BRANCH  16  18
ATOM     18  N   UNL     1      29.617  24.335  21.313  0.00  0.00    +0.000 NA
ATOM     19  C   UNL     1      29.179  25.397  20.736  0.00  0.00    +0.000 C 
ATOM     20  N   UNL     1      27.969  26.021  21.179  0.00  0.00    +0.000 NA
ATOM     21  N   UNL     1      29.881  25.970  19.653  0.00  0.00    +0.000 NA
ENDBRANCH  16  18
ENDBRANCH  12  16
ENDBRANCH   1  13
TORSDOF 4
ENDMDL
MODEL 6
REMARK VINA RESULT:      -6.3      4.121      5.257
REMARK  Name = 
REMARK  4 active torsions:
REMARK  status: ('A' for Active; 'I' for Inactive)
REMARK    1  A    between atoms: C_2  and  C_3
REMARK    2  A    between atoms: C_3  and  C_16
REMARK    3  A    between atoms: C_4  and  C_5
REMARK    4  A    between atoms: C_16  and  N_18
REMARK                            x       y       z     vdW  Elec       q    Type
REMARK                         _______ _______ _______ _____ _____    ______ ____
ROOT
ATOM      1  C   UNL     1      31.233  23.539  25.434  0.00  0.00    +0.000 A 
ATOM      2  C   UNL     1      32.497  24.003  25.651  0.00  0.00    +0.000 A 
ATOM      3 CL   UNL     1      33.746  24.470  24.509  0.00  0.00    +0.000 Cl
ATOM      4  N   UNL     1      32.659  24.022  27.008  0.00  0.00    +0.000 N 
ATOM      5  C   UNL     1      33.878  24.453  27.678  0.00  0.00    +0.000 C 
ATOM      6  C   UNL     1      31.550  23.592  27.620  0.00  0.00    +0.000 A 
ATOM      7  C   UNL     1      31.210  23.427  28.970  0.00  0.00    +0.000 A 
ATOM      8  C   UNL     1      29.970  22.958  29.324  0.00  0.00    +0.000 A 
ATOM      9  C   UNL     1      29.049  22.644  28.353  0.00  0.00    +0.000 A 
ATOM     10  C   UNL     1      29.352  22.796  26.998  0.00  0.00    +0.000 A 
ATOM     11  C   UNL     1      30.609  23.270  26.679  0.00  0.00    +0.000 A 
ENDROOT
BRANCH   1  13
ATOM     12  C   UNL     1      29.930  24.289  23.552  0.00  0.00    +0.000 C 
ATOM     13  C   UNL     1      30.542  23.356  24.197  0.00  0.00    +0.000 C 
BRANCH  12  15
ATOM     14  C   UNL     1      28.510  25.824  24.737  0.00  0.00    +0.000 C 
ATOM     15  C   UNL     1      29.862  25.679  24.008  0.00  0.00    +0.000 C 
ENDBRANCH  12  15
BRANCH  12  16
ATOM     16  C   UNL     1      29.265  23.955  22.290  0.00  0.00    +0.000 C 
ATOM     17  O   UNL     1      29.777  24.330  21.218  0.00  0.00    +0.000 OA
BRANCH  16  18
ATOM     18  N   UNL     1      28.040  23.207  22.266  0.00  0.00    +0.000 NA
ATOM     19  C   UNL     1      26.949  23.809  21.950  0.00  0.00    +0.000 C 
ATOM     20  N   UNL     1      26.953  25.203  21.626  0.00  0.00    +0.000 NA
ATOM     21  N   UNL     1      25.723  23.108  21.917  0.00  0.00    +0.000 NA
ENDBRANCH  16  18
ENDBRANCH  12  16
ENDBRANCH   1  13
TORSDOF 4
ENDMDL
MODEL 7
REMARK VINA RESULT:      -6.3      2.823      3.648
REMARK  Name = 
REMARK  4 active torsions:
REMARK  status: ('A' for Active; 'I' for Inactive)
REMARK    1  A    between atoms: C_2  and  C_3
REMARK    2  A    between atoms: C_3  and  C_16
REMARK    3  A    between atoms: C_4  and  C_5
REMARK    4  A    between atoms: C_16  and  N_18
REMARK                            x       y       z     vdW  Elec       q    Type
REMARK                         _______ _______ _______ _____ _____    ______ ____
ROOT
ATOM      1  C   UNL     1      28.539  23.013  26.974  0.00  0.00    +0.000 A 
ATOM      2  C   UNL     1      29.503  22.631  27.860  0.00  0.00    +0.000 A 
ATOM      3 CL   UNL     1      31.056  21.858  27.584  0.00  0.00    +0.000 Cl
ATOM      4  N   UNL     1      29.017  22.947  29.098  0.00  0.00    +0.000 N 
ATOM      5  C   UNL     1      29.735  22.703  30.342  0.00  0.00    +0.000 C 
ATOM      6  C   UNL     1      27.805  23.502  28.999  0.00  0.00    +0.000 A 
ATOM      7  C   UNL     1      26.902  23.993  29.953  0.00  0.00    +0.000 A 
ATOM      8  C   UNL     1      25.699  24.525  29.564  0.00  0.00    +0.000 A 
ATOM      9  C   UNL     1      25.368  24.580  28.231  0.00  0.00    +0.000 A 
ATOM     10  C   UNL     1      26.243  24.101  27.253  0.00  0.00    +0.000 A 
ATOM     11  C   UNL     1      27.444  23.573  27.681  0.00  0.00    +0.000 A 
ENDROOT
BRANCH   1  13
ATOM     12  C   UNL     1      29.076  23.826  24.771  0.00  0.00    +0.000 C 
ATOM     13  C   UNL     1      28.550  22.942  25.547  0.00  0.00    +0.000 C 
BRANCH  12  15
ATOM     14  C   UNL     1      28.693  26.164  25.176  0.00  0.00    +0.000 C 
ATOM     15  C   UNL     1      29.743  25.037  25.257  0.00  0.00    +0.000 C 
ENDBRANCH  12  15
BRANCH  12  16
ATOM     16  C   UNL     1      29.015  23.619  23.322  0.00  0.00    +0.000 C 
ATOM     17  O   UNL     1      29.987  23.956  22.621  0.00  0.00    +0.000 OA
BRANCH  16  18
ATOM     18  N   UNL     1      27.860  23.038  22.699  0.00  0.00    +0.000 NA
ATOM     19  C   UNL     1      27.024  23.806  22.096  0.00  0.00    +0.000 C 
ATOM     20  N   UNL     1      27.240  25.220  22.046  0.00  0.00    +0.000 NA
ATOM     21  N   UNL     1      25.875  23.272  21.472  0.00  0.00    +0.000 NA
ENDBRANCH  16  18
ENDBRANCH  12  16
ENDBRANCH   1  13
TORSDOF 4
ENDMDL
MODEL 8
REMARK VINA RESULT:      -6.1      3.259      6.631
REMARK  Name = 
REMARK  4 active torsions:
REMARK  status: ('A' for Active; 'I' for Inactive)
REMARK    1  A    between atoms: C_2  and  C_3
REMARK    2  A    between atoms: C_3  and  C_16
REMARK    3  A    between atoms: C_4  and  C_5
REMARK    4  A    between atoms: C_16  and  N_18
REMARK                            x       y       z     vdW  Elec       q    Type
REMARK                         _______ _______ _______ _____ _____    ______ ____
ROOT
ATOM      1  C   UNL     1      28.252  24.525  26.102  0.00  0.00    +0.000 A 
ATOM      2  C   UNL     1      29.218  25.228  25.443  0.00  0.00    +0.000 A 
ATOM      3 CL   UNL     1      30.618  26.086  26.064  0.00  0.00    +0.000 Cl
ATOM      4  N   UNL     1      28.879  25.176  24.120  0.00  0.00    +0.000 N 
ATOM      5  C   UNL     1      29.649  25.806  23.056  0.00  0.00    +0.000 C 
ATOM      6  C   UNL     1      27.754  24.474  23.950  0.00  0.00    +0.000 A 
ATOM      7  C   UNL     1      27.007  24.133  22.814  0.00  0.00    +0.000 A 
ATOM      8  C   UNL     1      25.865  23.381  22.931  0.00  0.00    +0.000 A 
ATOM      9  C   UNL     1      25.443  22.957  24.168  0.00  0.00    +0.000 A 
ATOM     10  C   UNL     1      26.162  23.276  25.322  0.00  0.00    +0.000 A 
ATOM     11  C   UNL     1      27.306  24.034  25.167  0.00  0.00    +0.000 A 
ENDROOT
BRANCH   1  13
ATOM     12  C   UNL     1      28.621  23.191  28.073  0.00  0.00    +0.000 C 
ATOM     13  C   UNL     1      28.142  24.239  27.497  0.00  0.00    +0.000 C 
BRANCH  12  15
ATOM     14  C   UNL     1      30.848  22.387  27.657  0.00  0.00    +0.000 C 
ATOM     15  C   UNL     1      29.354  22.140  27.362  0.00  0.00    +0.000 C 
ENDBRANCH  12  15
BRANCH  12  16
ATOM     16  C   UNL     1      28.435  23.030  29.517  0.00  0.00    +0.000 C 
ATOM     17  O   UNL     1      28.968  23.846  30.291  0.00  0.00    +0.000 OA
BRANCH  16  18
ATOM     18  N   UNL     1      27.651  21.953  30.053  0.00  0.00    +0.000 NA
ATOM     19  C   UNL     1      26.466  22.199  30.484  0.00  0.00    +0.000 C 
ATOM     20  N   UNL     1      25.932  23.527  30.432  0.00  0.00    +0.000 NA
ATOM     21  N   UNL     1      25.664  21.167  31.019  0.00  0.00    +0.000 NA
ENDBRANCH  16  18
ENDBRANCH  12  16
ENDBRANCH   1  13
TORSDOF 4
ENDMDL
MODEL 9
REMARK VINA RESULT:      -5.9     17.830     19.485
REMARK  Name = 
REMARK  4 active torsions:
REMARK  status: ('A' for Active; 'I' for Inactive)
REMARK    1  A    between atoms: C_2  and  C_3
REMARK    2  A    between atoms: C_3  and  C_16
REMARK    3  A    between atoms: C_4  and  C_5
REMARK    4  A    between atoms: C_16  and  N_18
REMARK                            x       y       z     vdW  Elec       q    Type
REMARK                         _______ _______ _______ _____ _____    ______ ____
ROOT
ATOM      1  C   UNL     1      20.891  11.667  37.928  0.00  0.00    +0.000 A 
ATOM      2  C   UNL     1      21.390  12.739  38.608  0.00  0.00    +0.000 A 
ATOM      3 CL   UNL     1      20.558  14.055  39.420  0.00  0.00    +0.000 Cl
ATOM      4  N   UNL     1      22.750  12.631  38.527  0.00  0.00    +0.000 N 
ATOM      5  C   UNL     1      23.680  13.580  39.123  0.00  0.00    +0.000 C 
ATOM      6  C   UNL     1      23.095  11.543  37.830  0.00  0.00    +0.000 A 
ATOM      7  C   UNL     1      24.334  10.995  37.472  0.00  0.00    +0.000 A 
ATOM      8  C   UNL     1      24.398   9.838  36.736  0.00  0.00    +0.000 A 
ATOM      9  C   UNL     1      23.242   9.208  36.342  0.00  0.00    +0.000 A 
ATOM     10  C   UNL     1      21.990   9.724  36.681  0.00  0.00    +0.000 A 
ATOM     11  C   UNL     1      21.963  10.889  37.422  0.00  0.00    +0.000 A 
ENDROOT
BRANCH   1  13
ATOM     12  C   UNL     1      18.828  10.610  38.581  0.00  0.00    +0.000 C 
ATOM     13  C   UNL     1      19.530  11.280  37.733  0.00  0.00    +0.000 C 
BRANCH  12  15
ATOM     14  C   UNL     1      19.752   8.680  39.675  0.00  0.00    +0.000 C 
ATOM     15  C   UNL     1      19.340  10.153  39.875  0.00  0.00    +0.000 C 
ENDBRANCH  12  15
BRANCH  12  16
ATOM     16  C   UNL     1      17.438  10.286  38.247  0.00  0.00    +0.000 C 
ATOM     17  O   UNL     1      16.627  10.078  39.169  0.00  0.00    +0.000 OA
BRANCH  16  18
ATOM     18  N   UNL     1      16.998  10.203  36.884  0.00  0.00    +0.000 NA
ATOM     19  C   UNL     1      16.357  11.195  36.375  0.00  0.00    +0.000 C 
ATOM     20  N   UNL     1      16.086  12.365  37.155  0.00  0.00    +0.000 NA
ATOM     21  N   UNL     1      15.906  11.152  35.037  0.00  0.00    +0.000 NA
ENDBRANCH  16  18
ENDBRANCH  12  16
ENDBRANCH   1  13
TORSDOF 4
ENDMDL
MODEL 10
REMARK VINA RESULT:      -5.9      3.416      6.992
REMARK  Name = 
REMARK  4 active torsions:
REMARK  status: ('A' for Active; 'I' for Inactive)
REMARK    1  A    between atoms: C_2  and  C_3
REMARK    2  A    between atoms: C_3  and  C_16
REMARK    3  A    between atoms: C_4  and  C_5
REMARK    4  A    between atoms: C_16  and  N_18
REMARK                            x       y       z     vdW  Elec       q    Type
REMARK                         _______ _______ _______ _____ _____    ______ ____
ROOT
ATOM      1  C   UNL     1      28.183  22.803  27.026  0.00  0.00    +0.000 A 
ATOM      2  C   UNL     1      29.485  22.586  26.685  0.00  0.00    +0.000 A 
ATOM      3 CL   UNL     1      30.882  22.251  27.696  0.00  0.00    +0.000 Cl
ATOM      4  N   UNL     1      29.540  22.708  25.325  0.00  0.00    +0.000 N 
ATOM      5  C   UNL     1      30.756  22.552  24.540  0.00  0.00    +0.000 C 
ATOM      6  C   UNL     1      28.329  22.988  24.830  0.00  0.00    +0.000 A 
ATOM      7  C   UNL     1      27.860  23.202  23.526  0.00  0.00    +0.000 A 
ATOM      8  C   UNL     1      26.535  23.476  23.299  0.00  0.00    +0.000 A 
ATOM      9  C   UNL     1      25.655  23.544  24.352  0.00  0.00    +0.000 A 
ATOM     10  C   UNL     1      26.086  23.336  25.664  0.00  0.00    +0.000 A 
ATOM     11  C   UNL     1      27.425  23.062  25.856  0.00  0.00    +0.000 A 
ENDROOT
BRANCH   1  13
ATOM     12  C   UNL     1      27.504  23.757  29.131  0.00  0.00    +0.000 C 
ATOM     13  C   UNL     1      27.572  22.761  28.317  0.00  0.00    +0.000 C 
BRANCH  12  15
ATOM     14  C   UNL     1      26.881  25.910  28.264  0.00  0.00    +0.000 C 
ATOM     15  C   UNL     1      28.051  25.084  28.835  0.00  0.00    +0.000 C 
ENDBRANCH  12  15
BRANCH  12  16
ATOM     16  C   UNL     1      26.843  23.569  30.425  0.00  0.00    +0.000 C 
ATOM     17  O   UNL     1      25.957  22.700  30.532  0.00  0.00    +0.000 OA
BRANCH  16  18
ATOM     18  N   UNL     1      27.197  24.364  31.567  0.00  0.00    +0.000 NA
ATOM     19  C   UNL     1      26.364  25.243  31.996  0.00  0.00    +0.000 C 
ATOM     20  N   UNL     1      25.101  25.428  31.348  0.00  0.00    +0.000 NA
ATOM     21  N   UNL     1      26.675  26.045  33.116  0.00  0.00    +0.000 NA
ENDBRANCH  16  18
ENDBRANCH  12  16
ENDBRANCH   1  13
TORSDOF 4
ENDMDL
