MODEL 1
REMARK VINA RESULT:      -6.5      0.000      0.000
REMARK  Name = 
REMARK  3 active torsions:
REMARK  status: ('A' for Active; 'I' for Inactive)
REMARK    1  A    between atoms: C_6  and  N_7
REMARK    2  A    between atoms: N_7  and  N_8
REMARK    3  A    between atoms: N_8  and  C_9
REMARK                            x       y       z     vdW  Elec       q    Type
REMARK                         _______ _______ _______ _____ _____    ______ ____
ROOT
ATOM      1 CL   UNL     1      31.287  22.081  28.035  0.00  0.00    +0.000 Cl
ATOM      2  C   UNL     1      30.281  22.411  26.637  0.00  0.00    +0.000 A 
ATOM      3  C   UNL     1      30.799  22.542  25.366  0.00  0.00    +0.000 A 
ATOM      4  C   UNL     1      29.980  22.803  24.291  0.00  0.00    +0.000 A 
ATOM      5  C   UNL     1      28.598  22.947  24.428  0.00  0.00    +0.000 A 
ATOM      6  C   UNL     1      27.792  23.204  23.341  0.00  0.00    +0.000 A 
ATOM      7  C   UNL     1      26.427  23.323  23.597  0.00  0.00    +0.000 A 
ATOM      8  C   UNL     1      26.012  23.177  24.873  0.00  0.00    +0.000 A 
ATOM      9  N   UNL     1      26.773  22.929  25.939  0.00  0.00    +0.000 NA
ATOM     10  C   UNL     1      28.098  22.810  25.713  0.00  0.00    +0.000 A 
ATOM     11  C   UNL     1      28.917  22.549  26.792  0.00  0.00    +0.000 A 
ENDROOT
BRANCH   6  12
ATOM     12  N   UNL     1      28.325  23.332  22.032  0.00  0.00    +0.000 NA
BRANCH  12  13
ATOM     13  N   UNL     1      29.247  24.330  21.701  0.00  0.00    +0.000 NA
BRANCH  13  14
ATOM     14  C   UNL     1      28.854  25.590  21.200  0.00  0.00    +0.000 C 
ATOM     15  C   UNL     1      29.651  26.351  20.458  0.00  0.00    +0.000 C 
ATOM     16  C   UNL     1      29.062  27.653  20.017  0.00  0.00    +0.000 C 
ATOM     17  C   UNL     1      28.480  28.396  21.197  0.00  0.00    +0.000 C 
ATOM     18  C   UNL     1      27.754  27.491  22.166  0.00  0.00    +0.000 C 
ATOM     19  C   UNL     1      27.508  26.158  21.469  0.00  0.00    +0.000 C 
ENDBRANCH  13  14
ENDBRANCH  12  13
ENDBRANCH   6  12
TORSDOF 3
ENDMDL
MODEL 2
REMARK VINA RESULT:      -6.3      2.685      5.383
REMARK  Name = 
REMARK  3 active torsions:
REMARK  status: ('A' for Active; 'I' for Inactive)
REMARK    1  A    between atoms: C_6  and  N_7
REMARK    2  A    between atoms: N_7  and  N_8
REMARK    3  A    between atoms: N_8  and  C_9
REMARK                            x       y       z     vdW  Elec       q    Type
REMARK                         _______ _______ _______ _____ _____    ______ ____
ROOT
ATOM      1 CL   UNL     1      29.398  27.166  20.291  0.00  0.00    +0.000 Cl
ATOM      2  C   UNL     1      28.751  26.341  21.696  0.00  0.00    +0.000 A 
ATOM      3  C   UNL     1      29.141  26.649  22.982  0.00  0.00    +0.000 A 
ATOM      4  C   UNL     1      28.614  25.978  24.062  0.00  0.00    +0.000 A 
ATOM      5  C   UNL     1      27.667  24.964  23.916  0.00  0.00    +0.000 A 
ATOM      6  C   UNL     1      27.145  24.305  25.008  0.00  0.00    +0.000 A 
ATOM      7  C   UNL     1      26.203  23.313  24.741  0.00  0.00    +0.000 A 
ATOM      8  C   UNL     1      25.882  23.082  23.450  0.00  0.00    +0.000 A 
ATOM      9  N   UNL     1      26.374  23.705  22.379  0.00  0.00    +0.000 NA
ATOM     10  C   UNL     1      27.287  24.670  22.616  0.00  0.00    +0.000 A 
ATOM     11  C   UNL     1      27.815  25.339  21.531  0.00  0.00    +0.000 A 
ENDROOT
BRANCH   6  12
ATOM     12  N   UNL     1      27.543  24.628  26.332  0.00  0.00    +0.000 NA
BRANCH  12  13
ATOM     13  N   UNL     1      28.501  23.879  27.021  0.00  0.00    +0.000 NA
BRANCH  13  14
ATOM     14  C   UNL     1      29.780  23.607  26.489  0.00  0.00    +0.000 C 
ATOM     15  C   UNL     1      30.772  24.490  26.508  0.00  0.00    +0.000 C 
ATOM     16  C   UNL     1      32.055  24.022  25.898  0.00  0.00    +0.000 C 
ATOM     17  C   UNL     1      31.808  23.453  24.521  0.00  0.00    +0.000 C 
ATOM     18  C   UNL     1      30.550  22.619  24.442  0.00  0.00    +0.000 C 
ATOM     19  C   UNL     1      30.108  22.299  25.865  0.00  0.00    +0.000 C 
ENDBRANCH  13  14
ENDBRANCH  12  13
ENDBRANCH   6  12
TORSDOF 3
ENDMDL
MODEL 3
REMARK VINA RESULT:      -6.2     20.942     24.048
REMARK  Name = 
REMARK  3 active torsions:
REMARK  status: ('A' for Active; 'I' for Inactive)
REMARK    1  A    between atoms: C_6  and  N_7
REMARK    2  A    between atoms: N_7  and  N_8
REMARK    3  A    between atoms: N_8  and  C_9
REMARK                            x       y       z     vdW  Elec       q    Type
REMARK                         _______ _______ _______ _____ _____    ______ ____
ROOT
ATOM      1 CL   UNL     1      14.837  12.779  35.543  0.00  0.00    +0.000 Cl
ATOM      2  C   UNL     1      16.175  12.061  36.419  0.00  0.00    +0.000 A 
ATOM      3  C   UNL     1      16.232  10.716  36.713  0.00  0.00    +0.000 A 
ATOM      4  C   UNL     1      17.298  10.186  37.404  0.00  0.00    +0.000 A 
ATOM      5  C   UNL     1      18.366  10.973  37.839  0.00  0.00    +0.000 A 
ATOM      6  C   UNL     1      19.427  10.426  38.527  0.00  0.00    +0.000 A 
ATOM      7  C   UNL     1      20.438  11.307  38.907  0.00  0.00    +0.000 A 
ATOM      8  C   UNL     1      20.296  12.608  38.574  0.00  0.00    +0.000 A 
ATOM      9  N   UNL     1      19.279  13.158  37.911  0.00  0.00    +0.000 NA
ATOM     10  C   UNL     1      18.289  12.322  37.532  0.00  0.00    +0.000 A 
ATOM     11  C   UNL     1      17.222  12.856  36.841  0.00  0.00    +0.000 A 
ENDROOT
BRANCH   6  12
ATOM     12  N   UNL     1      19.488   9.039  38.822  0.00  0.00    +0.000 NA
BRANCH  12  13
ATOM     13  N   UNL     1      19.439   8.558  40.134  0.00  0.00    +0.000 NA
BRANCH  13  14
ATOM     14  C   UNL     1      18.225   8.363  40.827  0.00  0.00    +0.000 C 
ATOM     15  C   UNL     1      17.620   7.183  40.902  0.00  0.00    +0.000 C 
ATOM     16  C   UNL     1      16.343   7.169  41.681  0.00  0.00    +0.000 C 
ATOM     17  C   UNL     1      15.422   8.267  41.204  0.00  0.00    +0.000 C 
ATOM     18  C   UNL     1      16.147   9.559  40.905  0.00  0.00    +0.000 C 
ATOM     19  C   UNL     1      17.534   9.475  41.530  0.00  0.00    +0.000 C 
ENDBRANCH  13  14
ENDBRANCH  12  13
ENDBRANCH   6  12
TORSDOF 3
ENDMDL
MODEL 4
REMARK VINA RESULT:      -6.1      3.740      5.468
REMARK  Name = 
REMARK  3 active torsions:
REMARK  status: ('A' for Active; 'I' for Inactive)
REMARK    1  A    between atoms: C_6  and  N_7
REMARK    2  A    between atoms: N_7  and  N_8
REMARK    3  A    between atoms: N_8  and  C_9
REMARK                            x       y       z     vdW  Elec       q    Type
REMARK                         _______ _______ _______ _____ _____    ______ ____
ROOT
ATOM      1 CL   UNL     1      23.618  26.425  25.236  0.00  0.00    +0.000 Cl
ATOM      2  C   UNL     1      24.740  25.347  26.045  0.00  0.00    +0.000 A 
ATOM      3  C   UNL     1      25.630  24.552  25.357  0.00  0.00    +0.000 A 
ATOM      4  C   UNL     1      26.496  23.716  26.025  0.00  0.00    +0.000 A 
ATOM      5  C   UNL     1      26.518  23.630  27.418  0.00  0.00    +0.000 A 
ATOM      6  C   UNL     1      27.394  22.791  28.072  0.00  0.00    +0.000 A 
ATOM      7  C   UNL     1      27.330  22.791  29.464  0.00  0.00    +0.000 A 
ATOM      8  C   UNL     1      26.426  23.606  30.051  0.00  0.00    +0.000 A 
ATOM      9  N   UNL     1      25.570  24.424  29.439  0.00  0.00    +0.000 NA
ATOM     10  C   UNL     1      25.616  24.439  28.090  0.00  0.00    +0.000 A 
ATOM     11  C   UNL     1      24.747  25.277  27.424  0.00  0.00    +0.000 A 
ENDROOT
BRANCH   6  12
ATOM     12  N   UNL     1      28.316  21.977  27.362  0.00  0.00    +0.000 NA
BRANCH  12  13
ATOM     13  N   UNL     1      29.644  22.364  27.161  0.00  0.00    +0.000 NA
BRANCH  13  14
ATOM     14  C   UNL     1      30.058  23.102  26.031  0.00  0.00    +0.000 C 
ATOM     15  C   UNL     1      30.224  24.420  26.052  0.00  0.00    +0.000 C 
ATOM     16  C   UNL     1      30.668  25.027  24.760  0.00  0.00    +0.000 C 
ATOM     17  C   UNL     1      29.779  24.569  23.628  0.00  0.00    +0.000 C 
ATOM     18  C   UNL     1      29.406  23.108  23.722  0.00  0.00    +0.000 C 
ATOM     19  C   UNL     1      30.343  22.448  24.728  0.00  0.00    +0.000 C 
ENDBRANCH  13  14
ENDBRANCH  12  13
ENDBRANCH   6  12
TORSDOF 3
ENDMDL
MODEL 5
REMARK VINA RESULT:      -6.0     23.084     25.590
REMARK  Name = 
REMARK  3 active torsions:
REMARK  status: ('A' for Active; 'I' for Inactive)
REMARK    1  A    between atoms: C_6  and  N_7
REMARK    2  A    between atoms: N_7  and  N_8
REMARK    3  A    between atoms: N_8  and  C_9
REMARK                            x       y       z     vdW  Elec       q    Type
REMARK                         _______ _______ _______ _____ _____    ______ ____
ROOT
ATOM      1 CL   UNL     1      33.267  -3.312  34.149  0.00  0.00    +0.000 Cl
ATOM      2  C   UNL     1      33.447  -1.600  34.481  0.00  0.00    +0.000 A 
ATOM      3  C   UNL     1      33.492  -1.094  35.762  0.00  0.00    +0.000 A 
ATOM      4  C   UNL     1      33.633   0.257  35.985  0.00  0.00    +0.000 A 
ATOM      5  C   UNL     1      33.738   1.175  34.940  0.00  0.00    +0.000 A 
ATOM      6  C   UNL     1      33.883   2.524  35.180  0.00  0.00    +0.000 A 
ATOM      7  C   UNL     1      33.981   3.346  34.059  0.00  0.00    +0.000 A 
ATOM      8  C   UNL     1      33.929   2.760  32.844  0.00  0.00    +0.000 A 
ATOM      9  N   UNL     1      33.789   1.460  32.587  0.00  0.00    +0.000 NA
ATOM     10  C   UNL     1      33.692   0.646  33.660  0.00  0.00    +0.000 A 
ATOM     11  C   UNL     1      33.549  -0.707  33.433  0.00  0.00    +0.000 A 
ENDROOT
BRANCH   6  12
ATOM     12  N   UNL     1      33.936   3.044  36.500  0.00  0.00    +0.000 NA
BRANCH  12  13
ATOM     13  N   UNL     1      35.124   3.524  37.061  0.00  0.00    +0.000 NA
BRANCH  13  14
ATOM     14  C   UNL     1      35.582   4.843  36.855  0.00  0.00    +0.000 C 
ATOM     15  C   UNL     1      34.892   5.913  37.235  0.00  0.00    +0.000 C 
ATOM     16  C   UNL     1      35.537   7.228  36.935  0.00  0.00    +0.000 C 
ATOM     17  C   UNL     1      35.959   7.291  35.485  0.00  0.00    +0.000 C 
ATOM     18  C   UNL     1      36.549   5.993  34.984  0.00  0.00    +0.000 C 
ATOM     19  C   UNL     1      36.882   5.129  36.196  0.00  0.00    +0.000 C 
ENDBRANCH  13  14
ENDBRANCH  12  13
ENDBRANCH   6  12
TORSDOF 3
ENDMDL
MODEL 6
REMARK VINA RESULT:      -6.0     32.224     34.178
REMARK  Name = 
REMARK  3 active torsions:
REMARK  status: ('A' for Active; 'I' for Inactive)
REMARK    1  A    between atoms: C_6  and  N_7
REMARK    2  A    between atoms: N_7  and  N_8
REMARK    3  A    between atoms: N_8  and  C_9
REMARK                            x       y       z     vdW  Elec       q    Type
REMARK                         _______ _______ _______ _____ _____    ______ ____
ROOT
ATOM      1 CL   UNL     1      23.722  -7.741  23.806  0.00  0.00    +0.000 Cl
ATOM      2  C   UNL     1      22.271  -7.681  24.788  0.00  0.00    +0.000 A 
ATOM      3  C   UNL     1      21.795  -8.777  25.475  0.00  0.00    +0.000 A 
ATOM      4  C   UNL     1      20.651  -8.694  26.235  0.00  0.00    +0.000 A 
ATOM      5  C   UNL     1      19.921  -7.510  26.352  0.00  0.00    +0.000 A 
ATOM      6  C   UNL     1      18.780  -7.443  27.122  0.00  0.00    +0.000 A 
ATOM      7  C   UNL     1      18.136  -6.208  27.167  0.00  0.00    +0.000 A 
ATOM      8  C   UNL     1      18.677  -5.190  26.464  0.00  0.00    +0.000 A 
ATOM      9  N   UNL     1      19.778  -5.233  25.713  0.00  0.00    +0.000 NA
ATOM     10  C   UNL     1      20.417  -6.420  25.655  0.00  0.00    +0.000 A 
ATOM     11  C   UNL     1      21.562  -6.500  24.891  0.00  0.00    +0.000 A 
ENDROOT
BRANCH   6  12
ATOM     12  N   UNL     1      18.294  -8.571  27.834  0.00  0.00    +0.000 NA
BRANCH  12  13
ATOM     13  N   UNL     1      17.054  -9.150  27.548  0.00  0.00    +0.000 NA
BRANCH  13  14
ATOM     14  C   UNL     1      16.553  -9.262  26.233  0.00  0.00    +0.000 C 
ATOM     15  C   UNL     1      15.536  -8.535  25.784  0.00  0.00    +0.000 C 
ATOM     16  C   UNL     1      15.147  -8.791  24.363  0.00  0.00    +0.000 C 
ATOM     17  C   UNL     1      14.954 -10.270  24.127  0.00  0.00    +0.000 C 
ATOM     18  C   UNL     1      15.992 -11.121  24.823  0.00  0.00    +0.000 C 
ATOM     19  C   UNL     1      17.137 -10.210  25.248  0.00  0.00    +0.000 C 
ENDBRANCH  13  14
ENDBRANCH  12  13
ENDBRANCH   6  12
TORSDOF 3
ENDMDL
MODEL 7
REMARK VINA RESULT:      -6.0      4.361      6.409
REMARK  Name = 
REMARK  3 active torsions:
REMARK  status: ('A' for Active; 'I' for Inactive)
REMARK    1  A    between atoms: C_6  and  N_7
REMARK    2  A    between atoms: N_7  and  N_8
REMARK    3  A    between atoms: N_8  and  C_9
REMARK                            x       y       z     vdW  Elec       q    Type
REMARK                         _______ _______ _______ _____ _____    ______ ____
ROOT
ATOM      1 CL   UNL     1      24.053  28.365  31.283  0.00  0.00    +0.000 Cl
ATOM      2  C   UNL     1      24.653  27.010  30.347  0.00  0.00    +0.000 A 
ATOM      3  C   UNL     1      24.637  26.995  28.969  0.00  0.00    +0.000 A 
ATOM      4  C   UNL     1      25.114  25.912  28.266  0.00  0.00    +0.000 A 
ATOM      5  C   UNL     1      25.635  24.785  28.903  0.00  0.00    +0.000 A 
ATOM      6  C   UNL     1      26.113  23.710  28.184  0.00  0.00    +0.000 A 
ATOM      7  C   UNL     1      26.613  22.642  28.927  0.00  0.00    +0.000 A 
ATOM      8  C   UNL     1      26.589  22.747  30.273  0.00  0.00    +0.000 A 
ATOM      9  N   UNL     1      26.132  23.774  30.988  0.00  0.00    +0.000 NA
ATOM     10  C   UNL     1      25.643  24.820  30.288  0.00  0.00    +0.000 A 
ATOM     11  C   UNL     1      25.164  25.903  30.995  0.00  0.00    +0.000 A 
ENDROOT
BRANCH   6  12
ATOM     12  N   UNL     1      26.102  23.700  26.765  0.00  0.00    +0.000 NA
BRANCH  12  13
ATOM     13  N   UNL     1      26.856  22.784  26.025  0.00  0.00    +0.000 NA
BRANCH  13  14
ATOM     14  C   UNL     1      28.138  23.087  25.520  0.00  0.00    +0.000 C 
ATOM     15  C   UNL     1      28.414  23.115  24.221  0.00  0.00    +0.000 C 
ATOM     16  C   UNL     1      29.828  23.458  23.876  0.00  0.00    +0.000 C 
ATOM     17  C   UNL     1      30.788  22.591  24.657  0.00  0.00    +0.000 C 
ATOM     18  C   UNL     1      30.358  22.376  26.090  0.00  0.00    +0.000 C 
ATOM     19  C   UNL     1      29.280  23.403  26.417  0.00  0.00    +0.000 C 
ENDBRANCH  13  14
ENDBRANCH  12  13
ENDBRANCH   6  12
TORSDOF 3
ENDMDL
MODEL 8
REMARK VINA RESULT:      -5.9      5.099      7.100
REMARK  Name = 
REMARK  3 active torsions:
REMARK  status: ('A' for Active; 'I' for Inactive)
REMARK    1  A    between atoms: C_6  and  N_7
REMARK    2  A    between atoms: N_7  and  N_8
REMARK    3  A    between atoms: N_8  and  C_9
REMARK                            x       y       z     vdW  Elec       q    Type
REMARK                         _______ _______ _______ _____ _____    ______ ____
ROOT
ATOM      1 CL   UNL     1      31.065  22.770  24.604  0.00  0.00    +0.000 Cl
ATOM      2  C   UNL     1      30.217  22.656  26.134  0.00  0.00    +0.000 A 
ATOM      3  C   UNL     1      28.868  22.385  26.216  0.00  0.00    +0.000 A 
ATOM      4  C   UNL     1      28.234  22.304  27.435  0.00  0.00    +0.000 A 
ATOM      5  C   UNL     1      28.914  22.490  28.639  0.00  0.00    +0.000 A 
ATOM      6  C   UNL     1      28.265  22.402  29.852  0.00  0.00    +0.000 A 
ATOM      7  C   UNL     1      29.047  22.602  30.989  0.00  0.00    +0.000 A 
ATOM      8  C   UNL     1      30.361  22.860  30.810  0.00  0.00    +0.000 A 
ATOM      9  N   UNL     1      31.008  22.951  29.649  0.00  0.00    +0.000 NA
ATOM     10  C   UNL     1      30.269  22.760  28.535  0.00  0.00    +0.000 A 
ATOM     11  C   UNL     1      30.907  22.843  27.315  0.00  0.00    +0.000 A 
ENDROOT
BRANCH   6  12
ATOM     12  N   UNL     1      26.878  22.116  29.935  0.00  0.00    +0.000 NA
BRANCH  12  13
ATOM     13  N   UNL     1      25.967  23.016  30.497  0.00  0.00    +0.000 NA
BRANCH  13  14
ATOM     14  C   UNL     1      25.982  24.396  30.202  0.00  0.00    +0.000 C 
ATOM     15  C   UNL     1      26.208  25.328  31.121  0.00  0.00    +0.000 C 
ATOM     16  C   UNL     1      26.187  26.737  30.620  0.00  0.00    +0.000 C 
ATOM     17  C   UNL     1      24.929  26.995  29.824  0.00  0.00    +0.000 C 
ATOM     18  C   UNL     1      24.545  25.837  28.932  0.00  0.00    +0.000 C 
ATOM     19  C   UNL     1      25.748  24.907  28.826  0.00  0.00    +0.000 C 
ENDBRANCH  13  14
ENDBRANCH  12  13
ENDBRANCH   6  12
TORSDOF 3
ENDMDL
MODEL 9
REMARK VINA RESULT:      -5.7      4.890      8.151
REMARK  Name = 
REMARK  3 active torsions:
REMARK  status: ('A' for Active; 'I' for Inactive)
REMARK    1  A    between atoms: C_6  and  N_7
REMARK    2  A    between atoms: N_7  and  N_8
REMARK    3  A    between atoms: N_8  and  C_9
REMARK                            x       y       z     vdW  Elec       q    Type
REMARK                         _______ _______ _______ _____ _____    ______ ____
ROOT
ATOM      1 CL   UNL     1      25.491  23.490  24.081  0.00  0.00    +0.000 Cl
ATOM      2  C   UNL     1      26.353  23.328  25.599  0.00  0.00    +0.000 A 
ATOM      3  C   UNL     1      27.615  22.780  25.680  0.00  0.00    +0.000 A 
ATOM      4  C   UNL     1      28.262  22.668  26.889  0.00  0.00    +0.000 A 
ATOM      5  C   UNL     1      27.684  23.097  28.084  0.00  0.00    +0.000 A 
ATOM      6  C   UNL     1      28.347  22.981  29.286  0.00  0.00    +0.000 A 
ATOM      7  C   UNL     1      27.672  23.448  30.413  0.00  0.00    +0.000 A 
ATOM      8  C   UNL     1      26.440  23.970  30.236  0.00  0.00    +0.000 A 
ATOM      9  N   UNL     1      25.779  24.092  29.085  0.00  0.00    +0.000 NA
ATOM     10  C   UNL     1      26.415  23.646  27.981  0.00  0.00    +0.000 A 
ATOM     11  C   UNL     1      25.763  23.759  26.771  0.00  0.00    +0.000 A 
ENDROOT
BRANCH   6  12
ATOM     12  N   UNL     1      29.649  22.423  29.367  0.00  0.00    +0.000 NA
BRANCH  12  13
ATOM     13  N   UNL     1      30.339  22.322  30.579  0.00  0.00    +0.000 NA
BRANCH  13  14
ATOM     14  C   UNL     1      31.653  21.815  30.666  0.00  0.00    +0.000 C 
ATOM     15  C   UNL     1      32.218  21.468  31.817  0.00  0.00    +0.000 C 
ATOM     16  C   UNL     1      33.617  20.950  31.711  0.00  0.00    +0.000 C 
ATOM     17  C   UNL     1      34.472  21.899  30.905  0.00  0.00    +0.000 C 
ATOM     18  C   UNL     1      33.752  22.470  29.705  0.00  0.00    +0.000 C 
ATOM     19  C   UNL     1      32.504  21.630  29.462  0.00  0.00    +0.000 C 
ENDBRANCH  13  14
ENDBRANCH  12  13
ENDBRANCH   6  12
TORSDOF 3
ENDMDL
MODEL 10
REMARK VINA RESULT:      -5.6      3.831      5.327
REMARK  Name = 
REMARK  3 active torsions:
REMARK  status: ('A' for Active; 'I' for Inactive)
REMARK    1  A    between atoms: C_6  and  N_7
REMARK    2  A    between atoms: N_7  and  N_8
REMARK    3  A    between atoms: N_8  and  C_9
REMARK                            x       y       z     vdW  Elec       q    Type
REMARK                         _______ _______ _______ _____ _____    ______ ____
ROOT
ATOM      1 CL   UNL     1      23.539  27.347  30.363  0.00  0.00    +0.000 Cl
ATOM      2  C   UNL     1      24.496  26.112  29.568  0.00  0.00    +0.000 A 
ATOM      3  C   UNL     1      24.453  25.902  28.206  0.00  0.00    +0.000 A 
ATOM      4  C   UNL     1      25.217  24.922  27.616  0.00  0.00    +0.000 A 
ATOM      5  C   UNL     1      26.067  24.097  28.354  0.00  0.00    +0.000 A 
ATOM      6  C   UNL     1      26.829  23.123  27.747  0.00  0.00    +0.000 A 
ATOM      7  C   UNL     1      27.644  22.363  28.584  0.00  0.00    +0.000 A 
ATOM      8  C   UNL     1      27.621  22.641  29.905  0.00  0.00    +0.000 A 
ATOM      9  N   UNL     1      26.893  23.577  30.514  0.00  0.00    +0.000 NA
ATOM     10  C   UNL     1      26.096  24.325  29.721  0.00  0.00    +0.000 A 
ATOM     11  C   UNL     1      25.331  25.306  30.316  0.00  0.00    +0.000 A 
ENDROOT
BRANCH   6  12
ATOM     12  N   UNL     1      26.788  22.913  26.344  0.00  0.00    +0.000 NA
BRANCH  12  13
ATOM     13  N   UNL     1      27.931  23.020  25.545  0.00  0.00    +0.000 NA
BRANCH  13  14
ATOM     14  C   UNL     1      27.881  23.446  24.200  0.00  0.00    +0.000 C 
ATOM     15  C   UNL     1      28.898  23.298  23.358  0.00  0.00    +0.000 C 
ATOM     16  C   UNL     1      28.660  23.808  21.973  0.00  0.00    +0.000 C 
ATOM     17  C   UNL     1      28.141  25.226  22.016  0.00  0.00    +0.000 C 
ATOM     18  C   UNL     1      27.137  25.456  23.122  0.00  0.00    +0.000 C 
ATOM     19  C   UNL     1      26.674  24.094  23.627  0.00  0.00    +0.000 C 
ENDBRANCH  13  14
ENDBRANCH  12  13
ENDBRANCH   6  12
TORSDOF 3
ENDMDL
