MODEL 1
REMARK VINA RESULT:      -6.9      0.000      0.000
REMARK  Name = 
REMARK  4 active torsions:
REMARK  status: ('A' for Active; 'I' for Inactive)
REMARK    1  A    between atoms: C_2  and  O_3
REMARK    2  A    between atoms: O_3  and  C_4
REMARK    3  A    between atoms: C_7  and  N_8
REMARK    4  A    between atoms: C_16  and  C_17
REMARK                            x       y       z     vdW  Elec       q    Type
REMARK                         _______ _______ _______ _____ _____    ______ ____
ROOT
ATOM      1  N   UNL     1      16.982  10.790  36.320  0.00  0.00    +0.000 NA
ATOM      2  C   UNL     1      16.198  10.611  37.468  0.00  0.00    +0.000 A 
ATOM      3  N   UNL     1      14.868  10.776  37.480  0.00  0.00    +0.000 NA
ATOM      4  C   UNL     1      14.101  10.608  38.570  0.00  0.00    +0.000 A 
ATOM      5  C   UNL     1      12.608  10.818  38.479  0.00  0.00    +0.000 C 
ATOM      6  C   UNL     1      14.677  10.249  39.762  0.00  0.00    +0.000 A 
ATOM      7  C   UNL     1      16.036  10.065  39.815  0.00  0.00    +0.000 A 
ATOM      8  C   UNL     1      16.743   9.674  41.067  0.00  0.00    +0.000 C 
ATOM      9  C   UNL     1      16.788  10.251  38.656  0.00  0.00    +0.000 A 
ENDROOT
BRANCH   1  13
ATOM     10  C   UNL     1      15.427  11.908  32.536  0.00  0.00    +0.000 A 
ATOM     11  C   UNL     1      16.404  10.944  32.636  0.00  0.00    +0.000 A 
ATOM     12  C   UNL     1      16.902  10.589  33.872  0.00  0.00    +0.000 A 
ATOM     13  C   UNL     1      16.466  11.161  35.050  0.00  0.00    +0.000 A 
ATOM     14  C   UNL     1      15.487  12.125  34.941  0.00  0.00    +0.000 A 
ATOM     15  C   UNL     1      14.983  12.485  33.708  0.00  0.00    +0.000 A 
BRANCH  10  16
ATOM     16  O   UNL     1      14.894  12.298  31.302  0.00  0.00    +0.000 OA
BRANCH  16  18
ATOM     17  C   UNL     1      16.413  13.744  30.180  0.00  0.00    +0.000 C 
ATOM     18  C   UNL     1      15.042  13.595  30.792  0.00  0.00    +0.000 C 
ENDBRANCH  16  18
ENDBRANCH  10  16
ENDBRANCH   1  13
BRANCH   9  19
ATOM     19  C   UNL     1      18.217  10.065  38.679  0.00  0.00    +0.000 C 
ATOM     20  N   UNL     1      18.754   8.776  38.434  0.00  0.00    +0.000 NA
ATOM     21  O   UNL     1      19.016  10.988  38.906  0.00  0.00    +0.000 OA
ENDBRANCH   9  19
TORSDOF 4
ENDMDL
MODEL 2
REMARK VINA RESULT:      -6.8      2.420      3.806
REMARK  Name = 
REMARK  4 active torsions:
REMARK  status: ('A' for Active; 'I' for Inactive)
REMARK    1  A    between atoms: C_2  and  O_3
REMARK    2  A    between atoms: O_3  and  C_4
REMARK    3  A    between atoms: C_7  and  N_8
REMARK    4  A    between atoms: C_16  and  C_17
REMARK                            x       y       z     vdW  Elec       q    Type
REMARK                         _______ _______ _______ _____ _____    ______ ____
ROOT
ATOM      1  N   UNL     1      17.633   9.681  37.504  0.00  0.00    +0.000 NA
ATOM      2  C   UNL     1      18.580  10.264  38.358  0.00  0.00    +0.000 A 
ATOM      3  N   UNL     1      19.249  11.386  38.055  0.00  0.00    +0.000 NA
ATOM      4  C   UNL     1      20.159  11.958  38.860  0.00  0.00    +0.000 A 
ATOM      5  C   UNL     1      20.858  13.224  38.425  0.00  0.00    +0.000 C 
ATOM      6  C   UNL     1      20.451  11.389  40.073  0.00  0.00    +0.000 A 
ATOM      7  C   UNL     1      19.800  10.239  40.442  0.00  0.00    +0.000 A 
ATOM      8  C   UNL     1      20.056   9.556  41.742  0.00  0.00    +0.000 C 
ATOM      9  C   UNL     1      18.864   9.684  39.572  0.00  0.00    +0.000 A 
ENDROOT
BRANCH   1  13
ATOM     10  C   UNL     1      16.573  11.235  33.703  0.00  0.00    +0.000 A 
ATOM     11  C   UNL     1      15.984  11.720  34.849  0.00  0.00    +0.000 A 
ATOM     12  C   UNL     1      16.337  11.207  36.079  0.00  0.00    +0.000 A 
ATOM     13  C   UNL     1      17.274  10.205  36.235  0.00  0.00    +0.000 A 
ATOM     14  C   UNL     1      17.860   9.726  35.083  0.00  0.00    +0.000 A 
ATOM     15  C   UNL     1      17.512  10.235  33.848  0.00  0.00    +0.000 A 
BRANCH  10  16
ATOM     16  O   UNL     1      16.245  11.728  32.436  0.00  0.00    +0.000 OA
BRANCH  16  18
ATOM     17  C   UNL     1      14.476  10.317  31.703  0.00  0.00    +0.000 C 
ATOM     18  C   UNL     1      15.832  10.896  31.386  0.00  0.00    +0.000 C 
ENDBRANCH  16  18
ENDBRANCH  10  16
ENDBRANCH   1  13
BRANCH   9  19
ATOM     19  C   UNL     1      18.163   8.477  39.930  0.00  0.00    +0.000 C 
ATOM     20  N   UNL     1      16.923   8.570  40.611  0.00  0.00    +0.000 NA
ATOM     21  O   UNL     1      18.595   7.342  39.671  0.00  0.00    +0.000 OA
ENDBRANCH   9  19
TORSDOF 4
ENDMDL
MODEL 3
REMARK VINA RESULT:      -6.4      3.745      5.872
REMARK  Name = 
REMARK  4 active torsions:
REMARK  status: ('A' for Active; 'I' for Inactive)
REMARK    1  A    between atoms: C_2  and  O_3
REMARK    2  A    between atoms: O_3  and  C_4
REMARK    3  A    between atoms: C_7  and  N_8
REMARK    4  A    between atoms: C_16  and  C_17
REMARK                            x       y       z     vdW  Elec       q    Type
REMARK                         _______ _______ _______ _____ _____    ______ ____
ROOT
ATOM      1  N   UNL     1      19.290  11.086  37.603  0.00  0.00    +0.000 NA
ATOM      2  C   UNL     1      20.208  12.042  38.058  0.00  0.00    +0.000 A 
ATOM      3  N   UNL     1      19.850  13.269  38.464  0.00  0.00    +0.000 NA
ATOM      4  C   UNL     1      20.716  14.197  38.903  0.00  0.00    +0.000 A 
ATOM      5  C   UNL     1      20.210  15.552  39.338  0.00  0.00    +0.000 C 
ATOM      6  C   UNL     1      22.057  13.910  38.953  0.00  0.00    +0.000 A 
ATOM      7  C   UNL     1      22.488  12.672  38.552  0.00  0.00    +0.000 A 
ATOM      8  C   UNL     1      23.924  12.277  38.574  0.00  0.00    +0.000 C 
ATOM      9  C   UNL     1      21.550  11.743  38.104  0.00  0.00    +0.000 A 
ENDROOT
BRANCH   1  13
ATOM     10  C   UNL     1      15.108  11.746  37.344  0.00  0.00    +0.000 A 
ATOM     11  C   UNL     1      15.611  10.720  38.113  0.00  0.00    +0.000 A 
ATOM     12  C   UNL     1      16.973  10.515  38.189  0.00  0.00    +0.000 A 
ATOM     13  C   UNL     1      17.889  11.302  37.520  0.00  0.00    +0.000 A 
ATOM     14  C   UNL     1      17.377  12.327  36.753  0.00  0.00    +0.000 A 
ATOM     15  C   UNL     1      16.016  12.538  36.672  0.00  0.00    +0.000 A 
BRANCH  10  16
ATOM     16  O   UNL     1      13.734  11.988  37.239  0.00  0.00    +0.000 OA
BRANCH  16  18
ATOM     17  C   UNL     1      11.405  11.508  37.263  0.00  0.00    +0.000 C 
ATOM     18  C   UNL     1      12.772  11.119  37.771  0.00  0.00    +0.000 C 
ENDBRANCH  16  18
ENDBRANCH  10  16
ENDBRANCH   1  13
BRANCH   9  19
ATOM     19  C   UNL     1      21.970  10.433  37.676  0.00  0.00    +0.000 C 
ATOM     20  N   UNL     1      22.315  10.224  36.317  0.00  0.00    +0.000 NA
ATOM     21  O   UNL     1      22.045   9.461  38.445  0.00  0.00    +0.000 OA
ENDBRANCH   9  19
TORSDOF 4
ENDMDL
MODEL 4
REMARK VINA RESULT:      -6.1     29.370     33.099
REMARK  Name = 
REMARK  4 active torsions:
REMARK  status: ('A' for Active; 'I' for Inactive)
REMARK    1  A    between atoms: C_2  and  O_3
REMARK    2  A    between atoms: O_3  and  C_4
REMARK    3  A    between atoms: C_7  and  N_8
REMARK    4  A    between atoms: C_16  and  C_17
REMARK                            x       y       z     vdW  Elec       q    Type
REMARK                         _______ _______ _______ _____ _____    ______ ____
ROOT
ATOM      1  N   UNL     1      32.146  20.930   9.811  0.00  0.00    +0.000 NA
ATOM      2  C   UNL     1      33.281  21.548   9.269  0.00  0.00    +0.000 A 
ATOM      3  N   UNL     1      33.732  22.742   9.678  0.00  0.00    +0.000 NA
ATOM      4  C   UNL     1      34.818  23.349   9.170  0.00  0.00    +0.000 A 
ATOM      5  C   UNL     1      35.244  24.697   9.701  0.00  0.00    +0.000 C 
ATOM      6  C   UNL     1      35.534  22.741   8.170  0.00  0.00    +0.000 A 
ATOM      7  C   UNL     1      35.123  21.517   7.707  0.00  0.00    +0.000 A 
ATOM      8  C   UNL     1      35.842  20.788   6.625  0.00  0.00    +0.000 C 
ATOM      9  C   UNL     1      33.990  20.929   8.267  0.00  0.00    +0.000 A 
ENDROOT
BRANCH   1  13
ATOM     10  C   UNL     1      29.779  22.591  12.915  0.00  0.00    +0.000 A 
ATOM     11  C   UNL     1      29.499  22.866  11.595  0.00  0.00    +0.000 A 
ATOM     12  C   UNL     1      30.276  22.320  10.594  0.00  0.00    +0.000 A 
ATOM     13  C   UNL     1      31.350  21.490  10.846  0.00  0.00    +0.000 A 
ATOM     14  C   UNL     1      31.623  21.219  12.170  0.00  0.00    +0.000 A 
ATOM     15  C   UNL     1      30.850  21.762  13.176  0.00  0.00    +0.000 A 
BRANCH  10  16
ATOM     16  O   UNL     1      29.017  23.124  13.960  0.00  0.00    +0.000 OA
BRANCH  16  18
ATOM     17  C   UNL     1      28.683  25.323  14.802  0.00  0.00    +0.000 C 
ATOM     18  C   UNL     1      28.234  24.277  13.812  0.00  0.00    +0.000 C 
ENDBRANCH  16  18
ENDBRANCH  10  16
ENDBRANCH   1  13
BRANCH   9  19
ATOM     19  C   UNL     1      33.533  19.644   7.803  0.00  0.00    +0.000 C 
ATOM     20  N   UNL     1      32.613  19.581   6.726  0.00  0.00    +0.000 NA
ATOM     21  O   UNL     1      33.906  18.571   8.305  0.00  0.00    +0.000 OA
ENDBRANCH   9  19
TORSDOF 4
ENDMDL
MODEL 5
REMARK VINA RESULT:      -6.0      2.072      2.926
REMARK  Name = 
REMARK  4 active torsions:
REMARK  status: ('A' for Active; 'I' for Inactive)
REMARK    1  A    between atoms: C_2  and  O_3
REMARK    2  A    between atoms: O_3  and  C_4
REMARK    3  A    between atoms: C_7  and  N_8
REMARK    4  A    between atoms: C_16  and  C_17
REMARK                            x       y       z     vdW  Elec       q    Type
REMARK                         _______ _______ _______ _____ _____    ______ ____
ROOT
ATOM      1  N   UNL     1      18.841  10.617  37.758  0.00  0.00    +0.000 NA
ATOM      2  C   UNL     1      18.488  10.200  39.049  0.00  0.00    +0.000 A 
ATOM      3  N   UNL     1      17.231   9.897  39.403  0.00  0.00    +0.000 NA
ATOM      4  C   UNL     1      16.874   9.496  40.635  0.00  0.00    +0.000 A 
ATOM      5  C   UNL     1      15.428   9.178  40.933  0.00  0.00    +0.000 C 
ATOM      6  C   UNL     1      17.825   9.378  41.617  0.00  0.00    +0.000 A 
ATOM      7  C   UNL     1      19.131   9.673  41.317  0.00  0.00    +0.000 A 
ATOM      8  C   UNL     1      20.226   9.572  42.322  0.00  0.00    +0.000 C 
ATOM      9  C   UNL     1      19.450  10.085  40.024  0.00  0.00    +0.000 A 
ENDROOT
BRANCH   1  13
ATOM     10  C   UNL     1      16.085  11.074  34.567  0.00  0.00    +0.000 A 
ATOM     11  C   UNL     1      16.887   9.958  34.648  0.00  0.00    +0.000 A 
ATOM     12  C   UNL     1      17.780   9.820  35.690  0.00  0.00    +0.000 A 
ATOM     13  C   UNL     1      17.921  10.765  36.687  0.00  0.00    +0.000 A 
ATOM     14  C   UNL     1      17.114  11.879  36.599  0.00  0.00    +0.000 A 
ATOM     15  C   UNL     1      16.219  12.023  35.559  0.00  0.00    +0.000 A 
BRANCH  10  16
ATOM     16  O   UNL     1      15.167  11.253  33.527  0.00  0.00    +0.000 OA
BRANCH  16  18
ATOM     17  C   UNL     1      15.975  11.572  31.312  0.00  0.00    +0.000 C 
ATOM     18  C   UNL     1      15.306  10.627  32.280  0.00  0.00    +0.000 C 
ENDBRANCH  16  18
ENDBRANCH  10  16
ENDBRANCH   1  13
BRANCH   9  19
ATOM     19  C   UNL     1      20.812  10.403  39.677  0.00  0.00    +0.000 C 
ATOM     20  N   UNL     1      21.665   9.376  39.200  0.00  0.00    +0.000 NA
ATOM     21  O   UNL     1      21.287  11.545  39.777  0.00  0.00    +0.000 OA
ENDBRANCH   9  19
TORSDOF 4
ENDMDL
MODEL 6
REMARK VINA RESULT:      -6.0     18.296     20.551
REMARK  Name = 
REMARK  4 active torsions:
REMARK  status: ('A' for Active; 'I' for Inactive)
REMARK    1  A    between atoms: C_2  and  O_3
REMARK    2  A    between atoms: O_3  and  C_4
REMARK    3  A    between atoms: C_7  and  N_8
REMARK    4  A    between atoms: C_16  and  C_17
REMARK                            x       y       z     vdW  Elec       q    Type
REMARK                         _______ _______ _______ _____ _____    ______ ____
ROOT
ATOM      1  N   UNL     1      31.302  22.902  27.674  0.00  0.00    +0.000 NA
ATOM      2  C   UNL     1      30.390  22.759  28.728  0.00  0.00    +0.000 A 
ATOM      3  N   UNL     1      29.065  22.904  28.576  0.00  0.00    +0.000 NA
ATOM      4  C   UNL     1      28.176  22.771  29.574  0.00  0.00    +0.000 A 
ATOM      5  C   UNL     1      26.703  22.954  29.299  0.00  0.00    +0.000 C 
ATOM      6  C   UNL     1      28.611  22.469  30.840  0.00  0.00    +0.000 A 
ATOM      7  C   UNL     1      29.955  22.308  31.061  0.00  0.00    +0.000 A 
ATOM      8  C   UNL     1      30.513  21.979  32.403  0.00  0.00    +0.000 C 
ATOM      9  C   UNL     1      30.838  22.457  29.992  0.00  0.00    +0.000 A 
ENDROOT
BRANCH   1  13
ATOM     10  C   UNL     1      30.216  23.847  23.684  0.00  0.00    +0.000 A 
ATOM     11  C   UNL     1      29.863  22.638  24.241  0.00  0.00    +0.000 A 
ATOM     12  C   UNL     1      30.222  22.342  25.539  0.00  0.00    +0.000 A 
ATOM     13  C   UNL     1      30.936  23.213  26.338  0.00  0.00    +0.000 A 
ATOM     14  C   UNL     1      31.285  24.421  25.774  0.00  0.00    +0.000 A 
ATOM     15  C   UNL     1      30.929  24.724  24.475  0.00  0.00    +0.000 A 
BRANCH  10  16
ATOM     16  O   UNL     1      29.872  24.186  22.372  0.00  0.00    +0.000 OA
BRANCH  16  18
ATOM     17  C   UNL     1      27.979  25.365  21.544  0.00  0.00    +0.000 C 
ATOM     18  C   UNL     1      28.577  24.016  21.862  0.00  0.00    +0.000 C 
ENDBRANCH  16  18
ENDBRANCH  10  16
ENDBRANCH   1  13
BRANCH   9  19
ATOM     19  C   UNL     1      32.256  22.294  30.191  0.00  0.00    +0.000 C 
ATOM     20  N   UNL     1      33.037  23.415  30.568  0.00  0.00    +0.000 NA
ATOM     21  O   UNL     1      32.839  21.207  30.046  0.00  0.00    +0.000 OA
ENDBRANCH   9  19
TORSDOF 4
ENDMDL
MODEL 7
REMARK VINA RESULT:      -5.9      5.078      6.633
REMARK  Name = 
REMARK  4 active torsions:
REMARK  status: ('A' for Active; 'I' for Inactive)
REMARK    1  A    between atoms: C_2  and  O_3
REMARK    2  A    between atoms: O_3  and  C_4
REMARK    3  A    between atoms: C_7  and  N_8
REMARK    4  A    between atoms: C_16  and  C_17
REMARK                            x       y       z     vdW  Elec       q    Type
REMARK                         _______ _______ _______ _____ _____    ______ ____
ROOT
ATOM      1  N   UNL     1      18.499   9.345  39.752  0.00  0.00    +0.000 NA
ATOM      2  C   UNL     1      18.203   8.118  40.361  0.00  0.00    +0.000 A 
ATOM      3  N   UNL     1      18.879   6.989  40.101  0.00  0.00    +0.000 NA
ATOM      4  C   UNL     1      18.609   5.804  40.675  0.00  0.00    +0.000 A 
ATOM      5  C   UNL     1      19.431   4.590  40.314  0.00  0.00    +0.000 C 
ATOM      6  C   UNL     1      17.589   5.704  41.586  0.00  0.00    +0.000 A 
ATOM      7  C   UNL     1      16.860   6.823  41.895  0.00  0.00    +0.000 A 
ATOM      8  C   UNL     1      15.735   6.803  42.873  0.00  0.00    +0.000 C 
ATOM      9  C   UNL     1      17.178   8.029  41.273  0.00  0.00    +0.000 A 
ENDROOT
BRANCH   1  13
ATOM     10  C   UNL     1      21.585   9.911  36.898  0.00  0.00    +0.000 A 
ATOM     11  C   UNL     1      21.875   9.850  38.243  0.00  0.00    +0.000 A 
ATOM     12  C   UNL     1      20.863   9.666  39.162  0.00  0.00    +0.000 A 
ATOM     13  C   UNL     1      19.536   9.535  38.802  0.00  0.00    +0.000 A 
ATOM     14  C   UNL     1      19.255   9.597  37.454  0.00  0.00    +0.000 A 
ATOM     15  C   UNL     1      20.262   9.781  36.529  0.00  0.00    +0.000 A 
BRANCH  10  16
ATOM     16  O   UNL     1      22.581  10.096  35.934  0.00  0.00    +0.000 OA
BRANCH  16  18
ATOM     17  C   UNL     1      24.915  10.536  36.070  0.00  0.00    +0.000 C 
ATOM     18  C   UNL     1      23.838   9.481  36.018  0.00  0.00    +0.000 C 
ENDBRANCH  16  18
ENDBRANCH  10  16
ENDBRANCH   1  13
BRANCH   9  19
ATOM     19  C   UNL     1      16.431   9.224  41.575  0.00  0.00    +0.000 C 
ATOM     20  N   UNL     1      16.818  10.023  42.681  0.00  0.00    +0.000 NA
ATOM     21  O   UNL     1      15.451   9.597  40.911  0.00  0.00    +0.000 OA
ENDBRANCH   9  19
TORSDOF 4
ENDMDL
MODEL 8
REMARK VINA RESULT:      -5.9     28.937     32.407
REMARK  Name = 
REMARK  4 active torsions:
REMARK  status: ('A' for Active; 'I' for Inactive)
REMARK    1  A    between atoms: C_2  and  O_3
REMARK    2  A    between atoms: O_3  and  C_4
REMARK    3  A    between atoms: C_7  and  N_8
REMARK    4  A    between atoms: C_16  and  C_17
REMARK                            x       y       z     vdW  Elec       q    Type
REMARK                         _______ _______ _______ _____ _____    ______ ____
ROOT
ATOM      1  N   UNL     1      33.749  20.413  10.262  0.00  0.00    +0.000 NA
ATOM      2  C   UNL     1      34.942  19.913  10.802  0.00  0.00    +0.000 A 
ATOM      3  N   UNL     1      35.200  19.895  12.118  0.00  0.00    +0.000 NA
ATOM      4  C   UNL     1      36.337  19.420  12.653  0.00  0.00    +0.000 A 
ATOM      5  C   UNL     1      36.531  19.446  14.151  0.00  0.00    +0.000 C 
ATOM      6  C   UNL     1      37.317  18.915  11.837  0.00  0.00    +0.000 A 
ATOM      7  C   UNL     1      37.113  18.904  10.481  0.00  0.00    +0.000 A 
ATOM      8  C   UNL     1      38.123  18.374   9.523  0.00  0.00    +0.000 C 
ATOM      9  C   UNL     1      35.916  19.408   9.974  0.00  0.00    +0.000 A 
ENDROOT
BRANCH   1  13
ATOM     10  C   UNL     1      30.572  22.006  12.576  0.00  0.00    +0.000 A 
ATOM     11  C   UNL     1      31.312  22.818  11.746  0.00  0.00    +0.000 A 
ATOM     12  C   UNL     1      32.343  22.289  10.998  0.00  0.00    +0.000 A 
ATOM     13  C   UNL     1      32.687  20.952  11.034  0.00  0.00    +0.000 A 
ATOM     14  C   UNL     1      31.941  20.146  11.867  0.00  0.00    +0.000 A 
ATOM     15  C   UNL     1      30.908  20.669  12.618  0.00  0.00    +0.000 A 
BRANCH  10  16
ATOM     16  O   UNL     1      29.518  22.503  13.351  0.00  0.00    +0.000 OA
BRANCH  16  18
ATOM     17  C   UNL     1      27.307  23.362  13.524  0.00  0.00    +0.000 C 
ATOM     18  C   UNL     1      28.674  23.531  12.908  0.00  0.00    +0.000 C 
ENDBRANCH  16  18
ENDBRANCH  10  16
ENDBRANCH   1  13
BRANCH   9  19
ATOM     19  C   UNL     1      35.671  19.412   8.554  0.00  0.00    +0.000 C 
ATOM     20  N   UNL     1      36.071  20.532   7.783  0.00  0.00    +0.000 NA
ATOM     21  O   UNL     1      35.118  18.472   7.960  0.00  0.00    +0.000 OA
ENDBRANCH   9  19
TORSDOF 4
ENDMDL
MODEL 9
REMARK VINA RESULT:      -5.9     21.089     22.833
REMARK  Name = 
REMARK  4 active torsions:
REMARK  status: ('A' for Active; 'I' for Inactive)
REMARK    1  A    between atoms: C_2  and  O_3
REMARK    2  A    between atoms: O_3  and  C_4
REMARK    3  A    between atoms: C_7  and  N_8
REMARK    4  A    between atoms: C_16  and  C_17
REMARK                            x       y       z     vdW  Elec       q    Type
REMARK                         _______ _______ _______ _____ _____    ______ ____
ROOT
ATOM      1  N   UNL     1      19.847  -9.719  27.441  0.00  0.00    +0.000 NA
ATOM      2  C   UNL     1      20.027  -8.497  26.779  0.00  0.00    +0.000 A 
ATOM      3  N   UNL     1      19.233  -7.434  26.973  0.00  0.00    +0.000 NA
ATOM      4  C   UNL     1      19.391  -6.255  26.348  0.00  0.00    +0.000 A 
ATOM      5  C   UNL     1      18.441  -5.117  26.636  0.00  0.00    +0.000 C 
ATOM      6  C   UNL     1      20.415  -6.091  25.449  0.00  0.00    +0.000 A 
ATOM      7  C   UNL     1      21.262  -7.142  25.207  0.00  0.00    +0.000 A 
ATOM      8  C   UNL     1      22.399  -7.050  24.248  0.00  0.00    +0.000 C 
ATOM      9  C   UNL     1      21.057  -8.344  25.881  0.00  0.00    +0.000 A 
ENDROOT
BRANCH   1  13
ATOM     10  C   UNL     1      16.755 -10.480  30.244  0.00  0.00    +0.000 A 
ATOM     11  C   UNL     1      17.920  -9.860  30.635  0.00  0.00    +0.000 A 
ATOM     12  C   UNL     1      18.919  -9.618  29.715  0.00  0.00    +0.000 A 
ATOM     13  C   UNL     1      18.815  -9.971  28.384  0.00  0.00    +0.000 A 
ATOM     14  C   UNL     1      17.645 -10.591  28.000  0.00  0.00    +0.000 A 
ATOM     15  C   UNL     1      16.642 -10.836  28.915  0.00  0.00    +0.000 A 
BRANCH  10  16
ATOM     16  O   UNL     1      15.718 -10.743  31.144  0.00  0.00    +0.000 OA
BRANCH  16  18
ATOM     17  C   UNL     1      14.454  -9.990  33.013  0.00  0.00    +0.000 C 
ATOM     18  C   UNL     1      15.805 -10.434  32.509  0.00  0.00    +0.000 C 
ENDBRANCH  16  18
ENDBRANCH  10  16
ENDBRANCH   1  13
BRANCH   9  19
ATOM     19  C   UNL     1      21.930  -9.467  25.649  0.00  0.00    +0.000 C 
ATOM     20  N   UNL     1      21.609 -10.396  24.627  0.00  0.00    +0.000 NA
ATOM     21  O   UNL     1      22.962  -9.669  26.308  0.00  0.00    +0.000 OA
ENDBRANCH   9  19
TORSDOF 4
ENDMDL
MODEL 10
REMARK VINA RESULT:      -5.8     18.275     21.633
REMARK  Name = 
REMARK  4 active torsions:
REMARK  status: ('A' for Active; 'I' for Inactive)
REMARK    1  A    between atoms: C_2  and  O_3
REMARK    2  A    between atoms: O_3  and  C_4
REMARK    3  A    between atoms: C_7  and  N_8
REMARK    4  A    between atoms: C_16  and  C_17
REMARK                            x       y       z     vdW  Elec       q    Type
REMARK                         _______ _______ _______ _____ _____    ______ ____
ROOT
ATOM      1  N   UNL     1      28.643  24.122  25.194  0.00  0.00    +0.000 NA
ATOM      2  C   UNL     1      27.456  24.362  25.899  0.00  0.00    +0.000 A 
ATOM      3  N   UNL     1      26.422  25.042  25.384  0.00  0.00    +0.000 NA
ATOM      4  C   UNL     1      25.277  25.281  26.045  0.00  0.00    +0.000 A 
ATOM      5  C   UNL     1      24.170  26.059  25.375  0.00  0.00    +0.000 C 
ATOM      6  C   UNL     1      25.119  24.817  27.327  0.00  0.00    +0.000 A 
ATOM      7  C   UNL     1      26.142  24.114  27.910  0.00  0.00    +0.000 A 
ATOM      8  C   UNL     1      26.055  23.575  29.296  0.00  0.00    +0.000 C 
ATOM      9  C   UNL     1      27.310  23.892  27.183  0.00  0.00    +0.000 A 
ENDROOT
BRANCH   1  13
ATOM     10  C   UNL     1      29.368  25.429  21.224  0.00  0.00    +0.000 A 
ATOM     11  C   UNL     1      29.530  26.288  22.287  0.00  0.00    +0.000 A 
ATOM     12  C   UNL     1      29.291  25.852  23.573  0.00  0.00    +0.000 A 
ATOM     13  C   UNL     1      28.887  24.565  23.867  0.00  0.00    +0.000 A 
ATOM     14  C   UNL     1      28.728  23.710  22.797  0.00  0.00    +0.000 A 
ATOM     15  C   UNL     1      28.965  24.140  21.508  0.00  0.00    +0.000 A 
BRANCH  10  16
ATOM     16  O   UNL     1      29.599  25.830  19.904  0.00  0.00    +0.000 OA
BRANCH  16  18
ATOM     17  C   UNL     1      30.397  27.238  18.160  0.00  0.00    +0.000 C 
ATOM     18  C   UNL     1      29.807  27.170  19.548  0.00  0.00    +0.000 C 
ENDBRANCH  16  18
ENDBRANCH  10  16
ENDBRANCH   1  13
BRANCH   9  19
ATOM     19  C   UNL     1      28.403  23.156  27.767  0.00  0.00    +0.000 C 
ATOM     20  N   UNL     1      29.394  23.853  28.503  0.00  0.00    +0.000 NA
ATOM     21  O   UNL     1      28.525  21.925  27.657  0.00  0.00    +0.000 OA
ENDBRANCH   9  19
TORSDOF 4
ENDMDL
