MODEL 1
REMARK VINA RESULT:      -8.1      0.000      0.000
REMARK  Name = 
REMARK  8 active torsions:
REMARK  status: ('A' for Active; 'I' for Inactive)
REMARK    1  A    between atoms: O_2  and  C_3
REMARK    2  A    between atoms: C_6  and  C_7
REMARK    3  A    between atoms: C_8  and  N_9
REMARK    4  A    between atoms: C_8  and  C_22
REMARK    5  A    between atoms: C_10  and  C_12
REMARK    6  A    between atoms: C_15  and  C_16
REMARK    7  A    between atoms: N_24  and  C_25
REMARK    8  A    between atoms: C_25  and  C_26
REMARK                            x       y       z     vdW  Elec       q    Type
REMARK                         _______ _______ _______ _____ _____    ______ ____
ROOT
ATOM      1  C   UNL     1      38.910   3.301  15.056  0.00  0.00    +0.000 C 
ATOM      2  C   UNL     1      37.947   3.701  15.867  0.00  0.00    +0.000 C 
ENDROOT
BRANCH   1   6
ATOM      3  C   UNL     1      39.017  -0.249  12.669  0.00  0.00    +0.000 A 
ATOM      4  C   UNL     1      38.211   0.822  12.265  0.00  0.00    +0.000 A 
ATOM      5  C   UNL     1      38.202   1.962  13.056  0.00  0.00    +0.000 A 
ATOM      6  C   UNL     1      38.916   2.136  14.210  0.00  0.00    +0.000 A 
ATOM      7  C   UNL     1      39.721   1.036  14.588  0.00  0.00    +0.000 A 
ATOM      8  C   UNL     1      39.747  -0.102  13.824  0.00  0.00    +0.000 A 
BRANCH   3  10
ATOM      9  C   UNL     1      39.267  -2.666  12.560  0.00  0.00    +0.000 C 
ATOM     10  O   UNL     1      39.065  -1.407  11.919  0.00  0.00    +0.000 OA
ENDBRANCH   3  10
ENDBRANCH   1   6
BRANCH   2  11
ATOM     11  N   UNL     1      38.242   4.899  16.572  0.00  0.00    +0.000 NA
ATOM     12  C   UNL     1      38.552   5.007  17.934  0.00  0.00    +0.000 C 
ATOM     13  O   UNL     1      38.609   4.028  18.696  0.00  0.00    +0.000 OA
BRANCH  12  14
ATOM     14  C   UNL     1      38.812   6.368  18.447  0.00  0.00    +0.000 A 
ATOM     15  C   UNL     1      38.325   7.505  17.849  0.00  0.00    +0.000 A 
ATOM     16  C   UNL     1      38.541   8.771  18.385  0.00  0.00    +0.000 A 
ATOM     17  C   UNL     1      39.286   8.845  19.566  0.00  0.00    +0.000 A 
ATOM     18  C   UNL     1      39.783   7.728  20.175  0.00  0.00    +0.000 A 
ATOM     19  C   UNL     1      39.543   6.474  19.609  0.00  0.00    +0.000 A 
BRANCH  17  20
ATOM     20  C   UNL     1      39.505  10.192  20.130  0.00  0.00    +0.000 C 
ATOM     21  C   UNL     1      40.947  10.197  20.685  0.00  0.00    +0.000 C 
ATOM     22  C   UNL     1      39.437  11.204  19.009  0.00  0.00    +0.000 C 
ATOM     23  C   UNL     1      38.515  10.483  21.211  0.00  0.00    +0.000 C 
ENDBRANCH  17  20
ENDBRANCH  12  14
ENDBRANCH   2  11
BRANCH   2  24
ATOM     24  C   UNL     1      36.783   2.895  16.054  0.00  0.00    +0.000 C 
ATOM     25  O   UNL     1      35.718   3.094  15.373  0.00  0.00    +0.000 OA
ATOM     26  N   UNL     1      36.632   1.805  16.965  0.00  0.00    +0.000 NA
BRANCH  26  27
ATOM     27  C   UNL     1      35.436   1.034  17.080  0.00  0.00    +0.000 C 
BRANCH  27  28
ATOM     28  C   UNL     1      35.427  -0.306  16.531  0.00  0.00    +0.000 A 
ATOM     29  C   UNL     1      36.239  -0.641  15.482  0.00  0.00    +0.000 A 
ATOM     30  C   UNL     1      36.260  -1.894  14.925  0.00  0.00    +0.000 A 
ATOM     31  C   UNL     1      35.450  -2.864  15.423  0.00  0.00    +0.000 A 
ATOM     32  C   UNL     1      34.617  -2.596  16.470  0.00  0.00    +0.000 A 
ATOM     33  C   UNL     1      34.612  -1.326  17.010  0.00  0.00    +0.000 A 
ENDBRANCH  27  28
ENDBRANCH  26  27
ENDBRANCH   2  24
TORSDOF 8
ENDMDL
MODEL 2
REMARK VINA RESULT:      -7.6      4.312      8.225
REMARK  Name = 
REMARK  8 active torsions:
REMARK  status: ('A' for Active; 'I' for Inactive)
REMARK    1  A    between atoms: O_2  and  C_3
REMARK    2  A    between atoms: C_6  and  C_7
REMARK    3  A    between atoms: C_8  and  N_9
REMARK    4  A    between atoms: C_8  and  C_22
REMARK    5  A    between atoms: C_10  and  C_12
REMARK    6  A    between atoms: C_15  and  C_16
REMARK    7  A    between atoms: N_24  and  C_25
REMARK    8  A    between atoms: C_25  and  C_26
REMARK                            x       y       z     vdW  Elec       q    Type
REMARK                         _______ _______ _______ _____ _____    ______ ____
ROOT
ATOM      1  C   UNL     1      35.995   2.208  14.854  0.00  0.00    +0.000 C 
ATOM      2  C   UNL     1      36.696   3.315  14.686  0.00  0.00    +0.000 C 
ENDROOT
BRANCH   1   6
ATOM      3  C   UNL     1      36.500  -0.741  17.913  0.00  0.00    +0.000 A 
ATOM      4  C   UNL     1      35.723   0.392  18.179  0.00  0.00    +0.000 A 
ATOM      5  C   UNL     1      35.572   1.327  17.165  0.00  0.00    +0.000 A 
ATOM      6  C   UNL     1      36.123   1.243  15.916  0.00  0.00    +0.000 A 
ATOM      7  C   UNL     1      36.901   0.085  15.680  0.00  0.00    +0.000 A 
ATOM      8  C   UNL     1      37.064  -0.855  16.666  0.00  0.00    +0.000 A 
BRANCH   3  10
ATOM      9  C   UNL     1      37.990  -2.209  19.156  0.00  0.00    +0.000 C 
ATOM     10  O   UNL     1      36.682  -1.706  18.885  0.00  0.00    +0.000 OA
ENDBRANCH   3  10
ENDBRANCH   1   6
BRANCH   2  11
ATOM     11  N   UNL     1      36.331   4.063  13.534  0.00  0.00    +0.000 NA
ATOM     12  C   UNL     1      35.672   5.300  13.521  0.00  0.00    +0.000 C 
ATOM     13  O   UNL     1      35.333   5.899  14.555  0.00  0.00    +0.000 OA
BRANCH  12  14
ATOM     14  C   UNL     1      35.386   5.882  12.194  0.00  0.00    +0.000 A 
ATOM     15  C   UNL     1      34.478   6.894  11.992  0.00  0.00    +0.000 A 
ATOM     16  C   UNL     1      34.269   7.458  10.738  0.00  0.00    +0.000 A 
ATOM     17  C   UNL     1      35.021   6.949   9.675  0.00  0.00    +0.000 A 
ATOM     18  C   UNL     1      35.926   5.942   9.852  0.00  0.00    +0.000 A 
ATOM     19  C   UNL     1      36.112   5.400  11.126  0.00  0.00    +0.000 A 
BRANCH  17  20
ATOM     20  C   UNL     1      34.797   7.559   8.349  0.00  0.00    +0.000 C 
ATOM     21  C   UNL     1      36.106   7.357   7.555  0.00  0.00    +0.000 C 
ATOM     22  C   UNL     1      33.704   6.790   7.642  0.00  0.00    +0.000 C 
ATOM     23  C   UNL     1      34.468   9.011   8.480  0.00  0.00    +0.000 C 
ENDBRANCH  17  20
ENDBRANCH  12  14
ENDBRANCH   2  11
BRANCH   2  24
ATOM     24  C   UNL     1      37.784   3.618  15.560  0.00  0.00    +0.000 C 
ATOM     25  O   UNL     1      38.926   3.057  15.423  0.00  0.00    +0.000 OA
ATOM     26  N   UNL     1      37.776   4.538  16.652  0.00  0.00    +0.000 NA
BRANCH  26  27
ATOM     27  C   UNL     1      38.915   4.800  17.471  0.00  0.00    +0.000 C 
BRANCH  27  28
ATOM     28  C   UNL     1      38.888   5.960  18.336  0.00  0.00    +0.000 A 
ATOM     29  C   UNL     1      37.998   6.977  18.121  0.00  0.00    +0.000 A 
ATOM     30  C   UNL     1      37.940   8.098  18.909  0.00  0.00    +0.000 A 
ATOM     31  C   UNL     1      38.792   8.225  19.960  0.00  0.00    +0.000 A 
ATOM     32  C   UNL     1      39.703   7.246  20.231  0.00  0.00    +0.000 A 
ATOM     33  C   UNL     1      39.743   6.129  19.420  0.00  0.00    +0.000 A 
ENDBRANCH  27  28
ENDBRANCH  26  27
ENDBRANCH   2  24
TORSDOF 8
ENDMDL
MODEL 3
REMARK VINA RESULT:      -7.5      1.379      2.158
REMARK  Name = 
REMARK  8 active torsions:
REMARK  status: ('A' for Active; 'I' for Inactive)
REMARK    1  A    between atoms: O_2  and  C_3
REMARK    2  A    between atoms: C_6  and  C_7
REMARK    3  A    between atoms: C_8  and  N_9
REMARK    4  A    between atoms: C_8  and  C_22
REMARK    5  A    between atoms: C_10  and  C_12
REMARK    6  A    between atoms: C_15  and  C_16
REMARK    7  A    between atoms: N_24  and  C_25
REMARK    8  A    between atoms: C_25  and  C_26
REMARK                            x       y       z     vdW  Elec       q    Type
REMARK                         _______ _______ _______ _____ _____    ______ ____
ROOT
ATOM      1  C   UNL     1      39.325   1.828  14.608  0.00  0.00    +0.000 C 
ATOM      2  C   UNL     1      38.284   2.166  15.347  0.00  0.00    +0.000 C 
ENDROOT
BRANCH   1   6
ATOM      3  C   UNL     1      39.651  -1.515  11.957  0.00  0.00    +0.000 A 
ATOM      4  C   UNL     1      39.052  -0.336  11.499  0.00  0.00    +0.000 A 
ATOM      5  C   UNL     1      38.967   0.733  12.380  0.00  0.00    +0.000 A 
ATOM      6  C   UNL     1      39.418   0.738  13.671  0.00  0.00    +0.000 A 
ATOM      7  C   UNL     1      40.019  -0.468  14.101  0.00  0.00    +0.000 A 
ATOM      8  C   UNL     1      40.116  -1.538  13.250  0.00  0.00    +0.000 A 
BRANCH   3  10
ATOM      9  C   UNL     1      40.497  -2.507   9.904  0.00  0.00    +0.000 C 
ATOM     10  O   UNL     1      39.764  -2.610  11.123  0.00  0.00    +0.000 OA
ENDBRANCH   3  10
ENDBRANCH   1   6
BRANCH   2  11
ATOM     11  N   UNL     1      38.506   3.298  16.178  0.00  0.00    +0.000 NA
ATOM     12  C   UNL     1      37.928   4.565  16.029  0.00  0.00    +0.000 C 
ATOM     13  O   UNL     1      37.124   4.841  15.124  0.00  0.00    +0.000 OA
BRANCH  12  14
ATOM     14  C   UNL     1      38.323   5.592  17.014  0.00  0.00    +0.000 A 
ATOM     15  C   UNL     1      38.872   5.292  18.238  0.00  0.00    +0.000 A 
ATOM     16  C   UNL     1      39.284   6.283  19.124  0.00  0.00    +0.000 A 
ATOM     17  C   UNL     1      39.112   7.611  18.722  0.00  0.00    +0.000 A 
ATOM     18  C   UNL     1      38.565   7.931  17.512  0.00  0.00    +0.000 A 
ATOM     19  C   UNL     1      38.165   6.911  16.647  0.00  0.00    +0.000 A 
BRANCH  17  20
ATOM     20  C   UNL     1      39.558   8.655  19.666  0.00  0.00    +0.000 C 
ATOM     21  C   UNL     1      39.490   9.991  18.895  0.00  0.00    +0.000 C 
ATOM     22  C   UNL     1      38.570   8.728  20.809  0.00  0.00    +0.000 C 
ATOM     23  C   UNL     1      40.949   8.382  20.142  0.00  0.00    +0.000 C 
ENDBRANCH  17  20
ENDBRANCH  12  14
ENDBRANCH   2  11
BRANCH   2  24
ATOM     24  C   UNL     1      37.107   1.358  15.345  0.00  0.00    +0.000 C 
ATOM     25  O   UNL     1      36.165   1.554  14.501  0.00  0.00    +0.000 OA
ATOM     26  N   UNL     1      36.813   0.269  16.221  0.00  0.00    +0.000 NA
BRANCH  26  27
ATOM     27  C   UNL     1      35.616  -0.505  16.142  0.00  0.00    +0.000 C 
BRANCH  27  28
ATOM     28  C   UNL     1      35.706  -1.861  15.645  0.00  0.00    +0.000 A 
ATOM     29  C   UNL     1      36.658  -2.211  14.727  0.00  0.00    +0.000 A 
ATOM     30  C   UNL     1      36.777  -3.481  14.223  0.00  0.00    +0.000 A 
ATOM     31  C   UNL     1      35.926  -4.453  14.642  0.00  0.00    +0.000 A 
ATOM     32  C   UNL     1      34.954  -4.171  15.559  0.00  0.00    +0.000 A 
ATOM     33  C   UNL     1      34.854  -2.884  16.048  0.00  0.00    +0.000 A 
ENDBRANCH  27  28
ENDBRANCH  26  27
ENDBRANCH   2  24
TORSDOF 8
ENDMDL
MODEL 4
REMARK VINA RESULT:      -7.5      3.755      5.078
REMARK  Name = 
REMARK  8 active torsions:
REMARK  status: ('A' for Active; 'I' for Inactive)
REMARK    1  A    between atoms: O_2  and  C_3
REMARK    2  A    between atoms: C_6  and  C_7
REMARK    3  A    between atoms: C_8  and  N_9
REMARK    4  A    between atoms: C_8  and  C_22
REMARK    5  A    between atoms: C_10  and  C_12
REMARK    6  A    between atoms: C_15  and  C_16
REMARK    7  A    between atoms: N_24  and  C_25
REMARK    8  A    between atoms: C_25  and  C_26
REMARK                            x       y       z     vdW  Elec       q    Type
REMARK                         _______ _______ _______ _____ _____    ______ ____
ROOT
ATOM      1  C   UNL     1      37.142   6.908  14.084  0.00  0.00    +0.000 C 
ATOM      2  C   UNL     1      37.583   5.820  14.690  0.00  0.00    +0.000 C 
ENDROOT
BRANCH   1   6
ATOM      3  C   UNL     1      34.358   7.105  10.841  0.00  0.00    +0.000 A 
ATOM      4  C   UNL     1      33.881   7.167  12.155  0.00  0.00    +0.000 A 
ATOM      5  C   UNL     1      34.809   7.108  13.186  0.00  0.00    +0.000 A 
ATOM      6  C   UNL     1      36.163   6.990  13.031  0.00  0.00    +0.000 A 
ATOM      7  C   UNL     1      36.611   6.932  11.691  0.00  0.00    +0.000 A 
ATOM      8  C   UNL     1      35.714   6.989  10.655  0.00  0.00    +0.000 A 
BRANCH   3  10
ATOM      9  C   UNL     1      33.975   7.323   8.449  0.00  0.00    +0.000 C 
ATOM     10  O   UNL     1      33.480   7.162   9.777  0.00  0.00    +0.000 OA
ENDBRANCH   3  10
ENDBRANCH   1   6
BRANCH   2  11
ATOM     11  N   UNL     1      38.556   6.070  15.695  0.00  0.00    +0.000 NA
ATOM     12  C   UNL     1      38.670   5.408  16.925  0.00  0.00    +0.000 C 
ATOM     13  O   UNL     1      37.906   4.494  17.276  0.00  0.00    +0.000 OA
BRANCH  12  14
ATOM     14  C   UNL     1      39.761   5.853  17.815  0.00  0.00    +0.000 A 
ATOM     15  C   UNL     1      39.633   5.938  19.181  0.00  0.00    +0.000 A 
ATOM     16  C   UNL     1      40.696   6.309  20.000  0.00  0.00    +0.000 A 
ATOM     17  C   UNL     1      41.912   6.601  19.374  0.00  0.00    +0.000 A 
ATOM     18  C   UNL     1      42.060   6.527  18.018  0.00  0.00    +0.000 A 
ATOM     19  C   UNL     1      40.972   6.149  17.228  0.00  0.00    +0.000 A 
BRANCH  17  20
ATOM     20  C   UNL     1      43.035   6.988  20.251  0.00  0.00    +0.000 C 
ATOM     21  C   UNL     1      44.293   7.012  19.356  0.00  0.00    +0.000 C 
ATOM     22  C   UNL     1      42.796   8.395  20.751  0.00  0.00    +0.000 C 
ATOM     23  C   UNL     1      43.194   6.012  21.372  0.00  0.00    +0.000 C 
ENDBRANCH  17  20
ENDBRANCH  12  14
ENDBRANCH   2  11
BRANCH   2  24
ATOM     24  C   UNL     1      37.158   4.530  14.250  0.00  0.00    +0.000 C 
ATOM     25  O   UNL     1      37.779   3.903  13.323  0.00  0.00    +0.000 OA
ATOM     26  N   UNL     1      36.049   3.778  14.745  0.00  0.00    +0.000 NA
BRANCH  26  27
ATOM     27  C   UNL     1      35.698   2.481  14.263  0.00  0.00    +0.000 C 
BRANCH  27  28
ATOM     28  C   UNL     1      35.585   1.400  15.220  0.00  0.00    +0.000 A 
ATOM     29  C   UNL     1      36.122   0.169  14.957  0.00  0.00    +0.000 A 
ATOM     30  C   UNL     1      36.034  -0.885  15.829  0.00  0.00    +0.000 A 
ATOM     31  C   UNL     1      35.392  -0.724  17.015  0.00  0.00    +0.000 A 
ATOM     32  C   UNL     1      34.835   0.479  17.340  0.00  0.00    +0.000 A 
ATOM     33  C   UNL     1      34.935   1.523  16.443  0.00  0.00    +0.000 A 
ENDBRANCH  27  28
ENDBRANCH  26  27
ENDBRANCH   2  24
TORSDOF 8
ENDMDL
MODEL 5
REMARK VINA RESULT:      -7.5      2.341      3.165
REMARK  Name = 
REMARK  8 active torsions:
REMARK  status: ('A' for Active; 'I' for Inactive)
REMARK    1  A    between atoms: O_2  and  C_3
REMARK    2  A    between atoms: C_6  and  C_7
REMARK    3  A    between atoms: C_8  and  N_9
REMARK    4  A    between atoms: C_8  and  C_22
REMARK    5  A    between atoms: C_10  and  C_12
REMARK    6  A    between atoms: C_15  and  C_16
REMARK    7  A    between atoms: N_24  and  C_25
REMARK    8  A    between atoms: C_25  and  C_26
REMARK                            x       y       z     vdW  Elec       q    Type
REMARK                         _______ _______ _______ _____ _____    ______ ____
ROOT
ATOM      1  C   UNL     1      39.042   3.646  14.204  0.00  0.00    +0.000 C 
ATOM      2  C   UNL     1      38.509   3.746  15.408  0.00  0.00    +0.000 C 
ENDROOT
BRANCH   1   6
ATOM      3  C   UNL     1      37.243   2.157  10.618  0.00  0.00    +0.000 A 
ATOM      4  C   UNL     1      37.752   1.250  11.555  0.00  0.00    +0.000 A 
ATOM      5  C   UNL     1      38.323   1.762  12.711  0.00  0.00    +0.000 A 
ATOM      6  C   UNL     1      38.438   3.090  13.020  0.00  0.00    +0.000 A 
ATOM      7  C   UNL     1      37.913   3.979  12.053  0.00  0.00    +0.000 A 
ATOM      8  C   UNL     1      37.343   3.497  10.903  0.00  0.00    +0.000 A 
BRANCH   3  10
ATOM      9  C   UNL     1      36.258   2.630   8.445  0.00  0.00    +0.000 C 
ATOM     10  O   UNL     1      36.662   1.702   9.451  0.00  0.00    +0.000 OA
ENDBRANCH   3  10
ENDBRANCH   1   6
BRANCH   2  11
ATOM     11  N   UNL     1      39.362   4.347  16.372  0.00  0.00    +0.000 NA
ATOM     12  C   UNL     1      39.170   5.588  16.994  0.00  0.00    +0.000 C 
ATOM     13  O   UNL     1      38.192   6.317  16.764  0.00  0.00    +0.000 OA
BRANCH  12  14
ATOM     14  C   UNL     1      40.205   6.010  17.959  0.00  0.00    +0.000 A 
ATOM     15  C   UNL     1      39.995   6.063  19.317  0.00  0.00    +0.000 A 
ATOM     16  C   UNL     1      41.006   6.414  20.207  0.00  0.00    +0.000 A 
ATOM     17  C   UNL     1      42.258   6.718  19.663  0.00  0.00    +0.000 A 
ATOM     18  C   UNL     1      42.488   6.675  18.317  0.00  0.00    +0.000 A 
ATOM     19  C   UNL     1      41.450   6.317  17.454  0.00  0.00    +0.000 A 
BRANCH  17  20
ATOM     20  C   UNL     1      43.326   7.082  20.615  0.00  0.00    +0.000 C 
ATOM     21  C   UNL     1      44.650   7.022  19.822  0.00  0.00    +0.000 C 
ATOM     22  C   UNL     1      43.114   8.513  21.056  0.00  0.00    +0.000 C 
ATOM     23  C   UNL     1      43.352   6.136  21.772  0.00  0.00    +0.000 C 
ENDBRANCH  17  20
ENDBRANCH  12  14
ENDBRANCH   2  11
BRANCH   2  24
ATOM     24  C   UNL     1      37.225   3.181  15.675  0.00  0.00    +0.000 C 
ATOM     25  O   UNL     1      36.147   3.790  15.347  0.00  0.00    +0.000 OA
ATOM     26  N   UNL     1      36.953   1.928  16.303  0.00  0.00    +0.000 NA
BRANCH  26  27
ATOM     27  C   UNL     1      35.635   1.423  16.519  0.00  0.00    +0.000 C 
BRANCH  27  28
ATOM     28  C   UNL     1      35.417  -0.003  16.399  0.00  0.00    +0.000 A 
ATOM     29  C   UNL     1      36.093  -0.742  15.467  0.00  0.00    +0.000 A 
ATOM     30  C   UNL     1      35.915  -2.093  15.312  0.00  0.00    +0.000 A 
ATOM     31  C   UNL     1      35.036  -2.750  16.112  0.00  0.00    +0.000 A 
ATOM     32  C   UNL     1      34.330  -2.073  17.064  0.00  0.00    +0.000 A 
ATOM     33  C   UNL     1      34.526  -0.713  17.197  0.00  0.00    +0.000 A 
ENDBRANCH  27  28
ENDBRANCH  26  27
ENDBRANCH   2  24
TORSDOF 8
ENDMDL
MODEL 6
REMARK VINA RESULT:      -7.4     24.240     27.848
REMARK  Name = 
REMARK  8 active torsions:
REMARK  status: ('A' for Active; 'I' for Inactive)
REMARK    1  A    between atoms: O_2  and  C_3
REMARK    2  A    between atoms: C_6  and  C_7
REMARK    3  A    between atoms: C_8  and  N_9
REMARK    4  A    between atoms: C_8  and  C_22
REMARK    5  A    between atoms: C_10  and  C_12
REMARK    6  A    between atoms: C_15  and  C_16
REMARK    7  A    between atoms: N_24  and  C_25
REMARK    8  A    between atoms: C_25  and  C_26
REMARK                            x       y       z     vdW  Elec       q    Type
REMARK                         _______ _______ _______ _____ _____    ______ ____
ROOT
ATOM      1  C   UNL     1      13.030  -1.719  27.319  0.00  0.00    +0.000 C 
ATOM      2  C   UNL     1      13.362  -0.522  26.868  0.00  0.00    +0.000 C 
ENDROOT
BRANCH   1   6
ATOM      3  C   UNL     1       9.347  -2.895  29.152  0.00  0.00    +0.000 A 
ATOM      4  C   UNL     1      10.430  -2.539  29.963  0.00  0.00    +0.000 A 
ATOM      5  C   UNL     1      11.609  -2.156  29.340  0.00  0.00    +0.000 A 
ATOM      6  C   UNL     1      11.812  -2.096  27.989  0.00  0.00    +0.000 A 
ATOM      7  C   UNL     1      10.697  -2.461  27.198  0.00  0.00    +0.000 A 
ATOM      8  C   UNL     1       9.520  -2.843  27.790  0.00  0.00    +0.000 A 
BRANCH   3  10
ATOM      9  C   UNL     1       6.924  -3.064  29.020  0.00  0.00    +0.000 C 
ATOM     10  O   UNL     1       8.149  -3.283  29.718  0.00  0.00    +0.000 OA
ENDBRANCH   3  10
ENDBRANCH   1   6
BRANCH   2  11
ATOM     11  N   UNL     1      14.641  -0.471  26.249  0.00  0.00    +0.000 NA
ATOM     12  C   UNL     1      15.837  -0.052  26.846  0.00  0.00    +0.000 C 
ATOM     13  O   UNL     1      15.909   0.326  28.027  0.00  0.00    +0.000 OA
BRANCH  12  14
ATOM     14  C   UNL     1      17.043  -0.074  25.995  0.00  0.00    +0.000 A 
ATOM     15  C   UNL     1      17.630  -1.233  25.546  0.00  0.00    +0.000 A 
ATOM     16  C   UNL     1      18.735  -1.221  24.700  0.00  0.00    +0.000 A 
ATOM     17  C   UNL     1      19.237   0.028  24.323  0.00  0.00    +0.000 A 
ATOM     18  C   UNL     1      18.672   1.192  24.760  0.00  0.00    +0.000 A 
ATOM     19  C   UNL     1      17.562   1.142  25.606  0.00  0.00    +0.000 A 
BRANCH  17  20
ATOM     20  C   UNL     1      20.405   0.030  23.421  0.00  0.00    +0.000 C 
ATOM     21  C   UNL     1      20.159   1.162  22.398  0.00  0.00    +0.000 C 
ATOM     22  C   UNL     1      21.636   0.391  24.223  0.00  0.00    +0.000 C 
ATOM     23  C   UNL     1      20.550  -1.290  22.734  0.00  0.00    +0.000 C 
ENDBRANCH  17  20
ENDBRANCH  12  14
ENDBRANCH   2  11
BRANCH   2  24
ATOM     24  C   UNL     1      12.513   0.599  27.110  0.00  0.00    +0.000 C 
ATOM     25  O   UNL     1      12.559   1.245  28.215  0.00  0.00    +0.000 OA
ATOM     26  N   UNL     1      11.544   1.150  26.218  0.00  0.00    +0.000 NA
BRANCH  26  27
ATOM     27  C   UNL     1      10.743   2.290  26.529  0.00  0.00    +0.000 C 
BRANCH  27  28
ATOM     28  C   UNL     1       9.349   2.279  26.136  0.00  0.00    +0.000 A 
ATOM     29  C   UNL     1       8.951   1.671  24.977  0.00  0.00    +0.000 A 
ATOM     30  C   UNL     1       7.644   1.641  24.561  0.00  0.00    +0.000 A 
ATOM     31  C   UNL     1       6.684   2.233  25.319  0.00  0.00    +0.000 A 
ATOM     32  C   UNL     1       7.014   2.856  26.488  0.00  0.00    +0.000 A 
ATOM     33  C   UNL     1       8.337   2.874  26.882  0.00  0.00    +0.000 A 
ENDBRANCH  27  28
ENDBRANCH  26  27
ENDBRANCH   2  24
TORSDOF 8
ENDMDL
MODEL 7
REMARK VINA RESULT:      -7.4      3.440      9.699
REMARK  Name = 
REMARK  8 active torsions:
REMARK  status: ('A' for Active; 'I' for Inactive)
REMARK    1  A    between atoms: O_2  and  C_3
REMARK    2  A    between atoms: C_6  and  C_7
REMARK    3  A    between atoms: C_8  and  N_9
REMARK    4  A    between atoms: C_8  and  C_22
REMARK    5  A    between atoms: C_10  and  C_12
REMARK    6  A    between atoms: C_15  and  C_16
REMARK    7  A    between atoms: N_24  and  C_25
REMARK    8  A    between atoms: C_25  and  C_26
REMARK                            x       y       z     vdW  Elec       q    Type
REMARK                         _______ _______ _______ _____ _____    ______ ____
ROOT
ATOM      1  C   UNL     1      35.159   5.197  13.880  0.00  0.00    +0.000 C 
ATOM      2  C   UNL     1      36.290   4.630  14.261  0.00  0.00    +0.000 C 
ENDROOT
BRANCH   1   6
ATOM      3  C   UNL     1      34.374   9.370  13.346  0.00  0.00    +0.000 A 
ATOM      4  C   UNL     1      35.138   8.691  12.390  0.00  0.00    +0.000 A 
ATOM      5  C   UNL     1      35.370   7.337  12.587  0.00  0.00    +0.000 A 
ATOM      6  C   UNL     1      34.917   6.597  13.645  0.00  0.00    +0.000 A 
ATOM      7  C   UNL     1      34.147   7.313  14.592  0.00  0.00    +0.000 A 
ATOM      8  C   UNL     1      33.903   8.652  14.420  0.00  0.00    +0.000 A 
BRANCH   3  10
ATOM      9  C   UNL     1      34.493  11.636  14.223  0.00  0.00    +0.000 C 
ATOM     10  O   UNL     1      34.110  10.717  13.200  0.00  0.00    +0.000 OA
ENDBRANCH   3  10
ENDBRANCH   1   6
BRANCH   2  11
ATOM     11  N   UNL     1      36.210   3.218  14.407  0.00  0.00    +0.000 NA
ATOM     12  C   UNL     1      36.154   2.510  15.614  0.00  0.00    +0.000 C 
ATOM     13  O   UNL     1      36.161   3.063  16.726  0.00  0.00    +0.000 OA
BRANCH  12  14
ATOM     14  C   UNL     1      36.086   1.038  15.513  0.00  0.00    +0.000 A 
ATOM     15  C   UNL     1      36.792   0.311  14.584  0.00  0.00    +0.000 A 
ATOM     16  C   UNL     1      36.750  -1.079  14.547  0.00  0.00    +0.000 A 
ATOM     17  C   UNL     1      35.950  -1.718  15.499  0.00  0.00    +0.000 A 
ATOM     18  C   UNL     1      35.237  -1.017  16.429  0.00  0.00    +0.000 A 
ATOM     19  C   UNL     1      35.305   0.378  16.437  0.00  0.00    +0.000 A 
BRANCH  17  20
ATOM     20  C   UNL     1      35.917  -3.194  15.456  0.00  0.00    +0.000 C 
ATOM     21  C   UNL     1      36.754  -3.609  14.227  0.00  0.00    +0.000 C 
ATOM     22  C   UNL     1      36.608  -3.730  16.689  0.00  0.00    +0.000 C 
ATOM     23  C   UNL     1      34.512  -3.691  15.340  0.00  0.00    +0.000 C 
ENDBRANCH  17  20
ENDBRANCH  12  14
ENDBRANCH   2  11
BRANCH   2  24
ATOM     24  C   UNL     1      37.424   5.434  14.586  0.00  0.00    +0.000 C 
ATOM     25  O   UNL     1      38.297   5.744  13.703  0.00  0.00    +0.000 OA
ATOM     26  N   UNL     1      37.744   5.990  15.862  0.00  0.00    +0.000 NA
BRANCH  26  27
ATOM     27  C   UNL     1      38.893   6.802  16.104  0.00  0.00    +0.000 C 
BRANCH  27  28
ATOM     28  C   UNL     1      39.581   6.660  17.369  0.00  0.00    +0.000 A 
ATOM     29  C   UNL     1      38.899   6.734  18.553  0.00  0.00    +0.000 A 
ATOM     30  C   UNL     1      39.510   6.612  19.774  0.00  0.00    +0.000 A 
ATOM     31  C   UNL     1      40.851   6.404  19.838  0.00  0.00    +0.000 A 
ATOM     32  C   UNL     1      41.590   6.318  18.694  0.00  0.00    +0.000 A 
ATOM     33  C   UNL     1      40.952   6.448  17.477  0.00  0.00    +0.000 A 
ENDBRANCH  27  28
ENDBRANCH  26  27
ENDBRANCH   2  24
TORSDOF 8
ENDMDL
MODEL 8
REMARK VINA RESULT:      -7.2      2.856      9.924
REMARK  Name = 
REMARK  8 active torsions:
REMARK  status: ('A' for Active; 'I' for Inactive)
REMARK    1  A    between atoms: O_2  and  C_3
REMARK    2  A    between atoms: C_6  and  C_7
REMARK    3  A    between atoms: C_8  and  N_9
REMARK    4  A    between atoms: C_8  and  C_22
REMARK    5  A    between atoms: C_10  and  C_12
REMARK    6  A    between atoms: C_15  and  C_16
REMARK    7  A    between atoms: N_24  and  C_25
REMARK    8  A    between atoms: C_25  and  C_26
REMARK                            x       y       z     vdW  Elec       q    Type
REMARK                         _______ _______ _______ _____ _____    ______ ____
ROOT
ATOM      1  C   UNL     1      38.470   4.571  17.899  0.00  0.00    +0.000 C 
ATOM      2  C   UNL     1      38.111   4.381  16.643  0.00  0.00    +0.000 C 
ENDROOT
BRANCH   1   6
ATOM      3  C   UNL     1      39.718   8.195  19.802  0.00  0.00    +0.000 A 
ATOM      4  C   UNL     1      38.514   8.178  19.088  0.00  0.00    +0.000 A 
ATOM      5  C   UNL     1      38.133   6.986  18.488  0.00  0.00    +0.000 A 
ATOM      6  C   UNL     1      38.836   5.814  18.529  0.00  0.00    +0.000 A 
ATOM      7  C   UNL     1      40.046   5.865  19.259  0.00  0.00    +0.000 A 
ATOM      8  C   UNL     1      40.445   7.031  19.862  0.00  0.00    +0.000 A 
BRANCH   3  10
ATOM      9  C   UNL     1      39.194  10.279  20.942  0.00  0.00    +0.000 C 
ATOM     10  O   UNL     1      40.146   9.353  20.421  0.00  0.00    +0.000 OA
ENDBRANCH   3  10
ENDBRANCH   1   6
BRANCH   2  11
ATOM     11  N   UNL     1      37.807   3.030  16.324  0.00  0.00    +0.000 NA
ATOM     12  C   UNL     1      36.529   2.487  16.135  0.00  0.00    +0.000 C 
ATOM     13  O   UNL     1      35.488   3.158  16.222  0.00  0.00    +0.000 OA
BRANCH  12  14
ATOM     14  C   UNL     1      36.464   1.045  15.821  0.00  0.00    +0.000 A 
ATOM     15  C   UNL     1      37.203   0.455  14.825  0.00  0.00    +0.000 A 
ATOM     16  C   UNL     1      37.160  -0.916  14.588  0.00  0.00    +0.000 A 
ATOM     17  C   UNL     1      36.324  -1.679  15.407  0.00  0.00    +0.000 A 
ATOM     18  C   UNL     1      35.577  -1.113  16.401  0.00  0.00    +0.000 A 
ATOM     19  C   UNL     1      35.647   0.266  16.612  0.00  0.00    +0.000 A 
BRANCH  17  20
ATOM     20  C   UNL     1      36.290  -3.134  15.153  0.00  0.00    +0.000 C 
ATOM     21  C   UNL     1      36.840  -3.808  16.429  0.00  0.00    +0.000 C 
ATOM     22  C   UNL     1      34.850  -3.562  14.986  0.00  0.00    +0.000 C 
ATOM     23  C   UNL     1      37.122  -3.484  13.961  0.00  0.00    +0.000 C 
ENDBRANCH  17  20
ENDBRANCH  12  14
ENDBRANCH   2  11
BRANCH   2  24
ATOM     24  C   UNL     1      38.151   5.463  15.712  0.00  0.00    +0.000 C 
ATOM     25  O   UNL     1      39.262   5.924  15.272  0.00  0.00    +0.000 OA
ATOM     26  N   UNL     1      37.034   6.156  15.153  0.00  0.00    +0.000 NA
BRANCH  26  27
ATOM     27  C   UNL     1      37.158   7.221  14.210  0.00  0.00    +0.000 C 
BRANCH  27  28
ATOM     28  C   UNL     1      36.147   8.257  14.207  0.00  0.00    +0.000 A 
ATOM     29  C   UNL     1      35.754   8.859  15.371  0.00  0.00    +0.000 A 
ATOM     30  C   UNL     1      34.796   9.840  15.417  0.00  0.00    +0.000 A 
ATOM     31  C   UNL     1      34.200  10.251  14.269  0.00  0.00    +0.000 A 
ATOM     32  C   UNL     1      34.547   9.693  13.073  0.00  0.00    +0.000 A 
ATOM     33  C   UNL     1      35.511   8.705  13.054  0.00  0.00    +0.000 A 
ENDBRANCH  27  28
ENDBRANCH  26  27
ENDBRANCH   2  24
TORSDOF 8
ENDMDL
MODEL 9
REMARK VINA RESULT:      -7.2     23.804     27.432
REMARK  Name = 
REMARK  8 active torsions:
REMARK  status: ('A' for Active; 'I' for Inactive)
REMARK    1  A    between atoms: O_2  and  C_3
REMARK    2  A    between atoms: C_6  and  C_7
REMARK    3  A    between atoms: C_8  and  N_9
REMARK    4  A    between atoms: C_8  and  C_22
REMARK    5  A    between atoms: C_10  and  C_12
REMARK    6  A    between atoms: C_15  and  C_16
REMARK    7  A    between atoms: N_24  and  C_25
REMARK    8  A    between atoms: C_25  and  C_26
REMARK                            x       y       z     vdW  Elec       q    Type
REMARK                         _______ _______ _______ _____ _____    ______ ____
ROOT
ATOM      1  C   UNL     1      12.871   1.357  27.097  0.00  0.00    +0.000 C 
ATOM      2  C   UNL     1      13.726   0.467  27.568  0.00  0.00    +0.000 C 
ENDROOT
BRANCH   1   6
ATOM      3  C   UNL     1       9.009   2.317  28.668  0.00  0.00    +0.000 A 
ATOM      4  C   UNL     1      10.133   2.987  29.163  0.00  0.00    +0.000 A 
ATOM      5  C   UNL     1      11.371   2.659  28.630  0.00  0.00    +0.000 A 
ATOM      6  C   UNL     1      11.596   1.728  27.654  0.00  0.00    +0.000 A 
ATOM      7  C   UNL     1      10.438   1.070  27.175  0.00  0.00    +0.000 A 
ATOM      8  C   UNL     1       9.203   1.377  27.686  0.00  0.00    +0.000 A 
BRANCH   3  10
ATOM      9  C   UNL     1       7.071   3.786  28.740  0.00  0.00    +0.000 C 
ATOM     10  O   UNL     1       7.751   2.605  29.161  0.00  0.00    +0.000 OA
ENDBRANCH   3  10
ENDBRANCH   1   6
BRANCH   2  11
ATOM     11  N   UNL     1      14.906   0.327  26.788  0.00  0.00    +0.000 NA
ATOM     12  C   UNL     1      16.222   0.308  27.269  0.00  0.00    +0.000 C 
ATOM     13  O   UNL     1      16.505   0.407  28.474  0.00  0.00    +0.000 OA
BRANCH  12  14
ATOM     14  C   UNL     1      17.291   0.164  26.261  0.00  0.00    +0.000 A 
ATOM     15  C   UNL     1      17.694  -1.049  25.754  0.00  0.00    +0.000 A 
ATOM     16  C   UNL     1      18.667  -1.149  24.765  0.00  0.00    +0.000 A 
ATOM     17  C   UNL     1      19.232   0.043  24.302  0.00  0.00    +0.000 A 
ATOM     18  C   UNL     1      18.850   1.259  24.794  0.00  0.00    +0.000 A 
ATOM     19  C   UNL     1      17.868   1.321  25.785  0.00  0.00    +0.000 A 
BRANCH  17  20
ATOM     20  C   UNL     1      20.260  -0.073  23.248  0.00  0.00    +0.000 C 
ATOM     21  C   UNL     1      21.606   0.281  23.917  0.00  0.00    +0.000 C 
ATOM     22  C   UNL     1      20.332  -1.515  22.799  0.00  0.00    +0.000 C 
ATOM     23  C   UNL     1      19.965   0.854  22.114  0.00  0.00    +0.000 C 
ENDBRANCH  17  20
ENDBRANCH  12  14
ENDBRANCH   2  11
BRANCH   2  24
ATOM     24  C   UNL     1      13.383  -0.330  28.702  0.00  0.00    +0.000 C 
ATOM     25  O   UNL     1      12.853  -1.487  28.569  0.00  0.00    +0.000 OA
ATOM     26  N   UNL     1      13.569   0.011  30.077  0.00  0.00    +0.000 NA
BRANCH  26  27
ATOM     27  C   UNL     1      13.215  -0.852  31.158  0.00  0.00    +0.000 C 
BRANCH  27  28
ATOM     28  C   UNL     1      13.912  -0.697  32.417  0.00  0.00    +0.000 A 
ATOM     29  C   UNL     1      14.930  -1.542  32.765  0.00  0.00    +0.000 A 
ATOM     30  C   UNL     1      15.614  -1.439  33.949  0.00  0.00    +0.000 A 
ATOM     31  C   UNL     1      15.287  -0.458  34.831  0.00  0.00    +0.000 A 
ATOM     32  C   UNL     1      14.282   0.420  34.544  0.00  0.00    +0.000 A 
ATOM     33  C   UNL     1      13.607   0.291  33.347  0.00  0.00    +0.000 A 
ENDBRANCH  27  28
ENDBRANCH  26  27
ENDBRANCH   2  24
TORSDOF 8
ENDMDL
MODEL 10
REMARK VINA RESULT:      -7.1     25.882     29.884
REMARK  Name = 
REMARK  8 active torsions:
REMARK  status: ('A' for Active; 'I' for Inactive)
REMARK    1  A    between atoms: O_2  and  C_3
REMARK    2  A    between atoms: C_6  and  C_7
REMARK    3  A    between atoms: C_8  and  N_9
REMARK    4  A    between atoms: C_8  and  C_22
REMARK    5  A    between atoms: C_10  and  C_12
REMARK    6  A    between atoms: C_15  and  C_16
REMARK    7  A    between atoms: N_24  and  C_25
REMARK    8  A    between atoms: C_25  and  C_26
REMARK                            x       y       z     vdW  Elec       q    Type
REMARK                         _______ _______ _______ _____ _____    ______ ____
ROOT
ATOM      1  C   UNL     1       9.548   0.874  10.607  0.00  0.00    +0.000 C 
ATOM      2  C   UNL     1      10.401   1.192   9.650  0.00  0.00    +0.000 C 
ENDROOT
BRANCH   1   6
ATOM      3  C   UNL     1       6.621   3.413  12.423  0.00  0.00    +0.000 A 
ATOM      4  C   UNL     1       6.318   2.778  11.213  0.00  0.00    +0.000 A 
ATOM      5  C   UNL     1       7.285   1.956  10.652  0.00  0.00    +0.000 A 
ATOM      6  C   UNL     1       8.523   1.709  11.179  0.00  0.00    +0.000 A 
ATOM      7  C   UNL     1       8.796   2.365  12.402  0.00  0.00    +0.000 A 
ATOM      8  C   UNL     1       7.857   3.182  12.977  0.00  0.00    +0.000 A 
BRANCH   3  10
ATOM      9  C   UNL     1       4.716   3.695  13.908  0.00  0.00    +0.000 C 
ATOM     10  O   UNL     1       5.696   4.241  13.028  0.00  0.00    +0.000 OA
ENDBRANCH   3  10
ENDBRANCH   1   6
BRANCH   2  11
ATOM     11  N   UNL     1      11.297   0.144   9.301  0.00  0.00    +0.000 NA
ATOM     12  C   UNL     1      12.182   0.135   8.215  0.00  0.00    +0.000 C 
ATOM     13  O   UNL     1      12.286   1.080   7.417  0.00  0.00    +0.000 OA
BRANCH  12  14
ATOM     14  C   UNL     1      13.009  -1.077   8.047  0.00  0.00    +0.000 A 
ATOM     15  C   UNL     1      13.002  -2.125   8.937  0.00  0.00    +0.000 A 
ATOM     16  C   UNL     1      13.752  -3.278   8.725  0.00  0.00    +0.000 A 
ATOM     17  C   UNL     1      14.526  -3.331   7.562  0.00  0.00    +0.000 A 
ATOM     18  C   UNL     1      14.551  -2.300   6.666  0.00  0.00    +0.000 A 
ATOM     19  C   UNL     1      13.783  -1.159   6.910  0.00  0.00    +0.000 A 
BRANCH  17  20
ATOM     20  C   UNL     1      15.313  -4.561   7.343  0.00  0.00    +0.000 C 
ATOM     21  C   UNL     1      15.867  -4.971   8.725  0.00  0.00    +0.000 C 
ATOM     22  C   UNL     1      14.381  -5.655   6.874  0.00  0.00    +0.000 C 
ATOM     23  C   UNL     1      16.424  -4.315   6.373  0.00  0.00    +0.000 C 
ENDBRANCH  17  20
ENDBRANCH  12  14
ENDBRANCH   2  11
BRANCH   2  24
ATOM     24  C   UNL     1      10.439   2.521   9.131  0.00  0.00    +0.000 C 
ATOM     25  O   UNL     1       9.777   2.849   8.086  0.00  0.00    +0.000 OA
ATOM     26  N   UNL     1      11.168   3.629   9.663  0.00  0.00    +0.000 NA
BRANCH  26  27
ATOM     27  C   UNL     1      11.139   4.938   9.094  0.00  0.00    +0.000 C 
BRANCH  27  28
ATOM     28  C   UNL     1       9.912   5.699   9.183  0.00  0.00    +0.000 A 
ATOM     29  C   UNL     1       9.101   5.600  10.281  0.00  0.00    +0.000 A 
ATOM     30  C   UNL     1       7.926   6.296  10.406  0.00  0.00    +0.000 A 
ATOM     31  C   UNL     1       7.531   7.132   9.411  0.00  0.00    +0.000 A 
ATOM     32  C   UNL     1       8.294   7.278   8.289  0.00  0.00    +0.000 A 
ATOM     33  C   UNL     1       9.471   6.563   8.186  0.00  0.00    +0.000 A 
ENDBRANCH  27  28
ENDBRANCH  26  27
ENDBRANCH   2  24
TORSDOF 8
ENDMDL
