MODEL 1
REMARK VINA RESULT:      -7.7      0.000      0.000
REMARK  Name = 
REMARK  3 active torsions:
REMARK  status: ('A' for Active; 'I' for Inactive)
REMARK    1  A    between atoms: C_4  and  C_5
REMARK    2  A    between atoms: N_7  and  C_8
REMARK    3  A    between atoms: C_18  and  N_19
REMARK                            x       y       z     vdW  Elec       q    Type
REMARK                         _______ _______ _______ _____ _____    ______ ____
ROOT
ATOM      1  C   UNL     1      15.901  11.901  35.866  0.00  0.00    +0.000 C 
ATOM      2  O   UNL     1      16.856  12.644  35.529  0.00  0.00    +0.000 OA
ATOM      3  N   UNL     1      14.814  11.788  34.999  0.00  0.00    +0.000 NA
ENDROOT
BRANCH   3   4
ATOM      4  C   UNL     1      14.663  12.431  33.757  0.00  0.00    +0.000 A 
ATOM      5  C   UNL     1      15.219  11.955  32.597  0.00  0.00    +0.000 A 
ATOM      6  C   UNL     1      16.009  10.706  32.676  0.00  0.00    +0.000 C 
ATOM      7  C   UNL     1      15.017  12.652  31.432  0.00  0.00    +0.000 A 
ATOM      8  C   UNL     1      14.284  13.813  31.343  0.00  0.00    +0.000 A 
ATOM      9  C   UNL     1      13.729  14.283  32.520  0.00  0.00    +0.000 A 
ATOM     10  C   UNL     1      13.921  13.594  33.712  0.00  0.00    +0.000 A 
ATOM     11  C   UNL     1      13.306  14.135  34.951  0.00  0.00    +0.000 C 
ENDBRANCH   3   4
BRANCH   1  15
ATOM     12  C   UNL     1      18.566   9.308  39.220  0.00  0.00    +0.000 C 
ATOM     13  C   UNL     1      17.302   9.969  38.760  0.00  0.00    +0.000 A 
ATOM     14  C   UNL     1      17.204  10.614  37.545  0.00  0.00    +0.000 A 
ATOM     15  C   UNL     1      16.016  11.216  37.149  0.00  0.00    +0.000 A 
ATOM     16  C   UNL     1      14.965  11.127  38.035  0.00  0.00    +0.000 A 
ATOM     17  C   UNL     1      15.055  10.487  39.249  0.00  0.00    +0.000 A 
ATOM     18  C   UNL     1      16.228   9.896  39.630  0.00  0.00    +0.000 A 
BRANCH  18  19
ATOM     19  N   UNL     1      16.308   9.235  40.891  0.00  0.00    +0.000 N 
ATOM     20  O   UNL     1      16.582   9.904  41.909  0.00  0.00    +0.000 OA
ATOM     21  O   UNL     1      16.100   7.901  41.058  0.00  0.00    +0.000 OA
ENDBRANCH  18  19
ENDBRANCH   1  15
TORSDOF 3
ENDMDL
MODEL 2
REMARK VINA RESULT:      -7.4      1.493      2.701
REMARK  Name = 
REMARK  3 active torsions:
REMARK  status: ('A' for Active; 'I' for Inactive)
REMARK    1  A    between atoms: C_4  and  C_5
REMARK    2  A    between atoms: N_7  and  C_8
REMARK    3  A    between atoms: C_18  and  N_19
REMARK                            x       y       z     vdW  Elec       q    Type
REMARK                         _______ _______ _______ _____ _____    ______ ____
ROOT
ATOM      1  C   UNL     1      16.682  11.716  35.709  0.00  0.00    +0.000 C 
ATOM      2  O   UNL     1      17.218  12.843  35.573  0.00  0.00    +0.000 OA
ATOM      3  N   UNL     1      15.596  11.398  34.891  0.00  0.00    +0.000 NA
ENDROOT
BRANCH   3   4
ATOM      4  C   UNL     1      15.021  12.221  33.906  0.00  0.00    +0.000 A 
ATOM      5  C   UNL     1      14.122  13.216  34.195  0.00  0.00    +0.000 A 
ATOM      6  C   UNL     1      13.753  13.417  35.614  0.00  0.00    +0.000 C 
ATOM      7  C   UNL     1      13.614  13.969  33.166  0.00  0.00    +0.000 A 
ATOM      8  C   UNL     1      13.949  13.794  31.842  0.00  0.00    +0.000 A 
ATOM      9  C   UNL     1      14.856  12.787  31.564  0.00  0.00    +0.000 A 
ATOM     10  C   UNL     1      15.383  12.012  32.590  0.00  0.00    +0.000 A 
ATOM     11  C   UNL     1      16.354  10.943  32.245  0.00  0.00    +0.000 C 
ENDBRANCH   3   4
BRANCH   1  15
ATOM     12  C   UNL     1      16.570   9.643  40.265  0.00  0.00    +0.000 C 
ATOM     13  C   UNL     1      17.189   9.836  38.914  0.00  0.00    +0.000 A 
ATOM     14  C   UNL     1      16.646  10.676  37.964  0.00  0.00    +0.000 A 
ATOM     15  C   UNL     1      17.247  10.831  36.721  0.00  0.00    +0.000 A 
ATOM     16  C   UNL     1      18.396  10.103  36.506  0.00  0.00    +0.000 A 
ATOM     17  C   UNL     1      18.943   9.263  37.448  0.00  0.00    +0.000 A 
ATOM     18  C   UNL     1      18.346   9.117  38.669  0.00  0.00    +0.000 A 
BRANCH  18  19
ATOM     19  N   UNL     1      18.923   8.243  39.637  0.00  0.00    +0.000 N 
ATOM     20  O   UNL     1      19.790   8.691  40.416  0.00  0.00    +0.000 OA
ATOM     21  O   UNL     1      18.584   6.932  39.767  0.00  0.00    +0.000 OA
ENDBRANCH  18  19
ENDBRANCH   1  15
TORSDOF 3
ENDMDL
MODEL 3
REMARK VINA RESULT:      -7.3      1.429      2.088
REMARK  Name = 
REMARK  3 active torsions:
REMARK  status: ('A' for Active; 'I' for Inactive)
REMARK    1  A    between atoms: C_4  and  C_5
REMARK    2  A    between atoms: N_7  and  C_8
REMARK    3  A    between atoms: C_18  and  N_19
REMARK                            x       y       z     vdW  Elec       q    Type
REMARK                         _______ _______ _______ _____ _____    ______ ____
ROOT
ATOM      1  C   UNL     1      16.668  11.643  35.968  0.00  0.00    +0.000 C 
ATOM      2  O   UNL     1      17.271  12.728  35.781  0.00  0.00    +0.000 OA
ATOM      3  N   UNL     1      15.548  11.366  35.182  0.00  0.00    +0.000 NA
ENDROOT
BRANCH   3   4
ATOM      4  C   UNL     1      15.006  12.188  34.178  0.00  0.00    +0.000 A 
ATOM      5  C   UNL     1      15.336  12.064  32.852  0.00  0.00    +0.000 A 
ATOM      6  C   UNL     1      16.308  11.011  32.482  0.00  0.00    +0.000 C 
ATOM      7  C   UNL     1      14.754  12.912  31.944  0.00  0.00    +0.000 A 
ATOM      8  C   UNL     1      13.848  13.895  32.273  0.00  0.00    +0.000 A 
ATOM      9  C   UNL     1      13.525  14.010  33.614  0.00  0.00    +0.000 A 
ATOM     10  C   UNL     1      14.102  13.161  34.552  0.00  0.00    +0.000 A 
ATOM     11  C   UNL     1      13.724  13.321  35.979  0.00  0.00    +0.000 C 
ENDBRANCH   3   4
BRANCH   1  15
ATOM     12  C   UNL     1      16.376   9.559  40.511  0.00  0.00    +0.000 C 
ATOM     13  C   UNL     1      17.052   9.760  39.189  0.00  0.00    +0.000 A 
ATOM     14  C   UNL     1      16.543  10.597  38.218  0.00  0.00    +0.000 A 
ATOM     15  C   UNL     1      17.197  10.761  37.003  0.00  0.00    +0.000 A 
ATOM     16  C   UNL     1      18.362  10.045  36.837  0.00  0.00    +0.000 A 
ATOM     17  C   UNL     1      18.874   9.208  37.801  0.00  0.00    +0.000 A 
ATOM     18  C   UNL     1      18.225   9.053  38.994  0.00  0.00    +0.000 A 
BRANCH  18  19
ATOM     19  N   UNL     1      18.768   8.182  39.985  0.00  0.00    +0.000 N 
ATOM     20  O   UNL     1      18.494   6.965  39.936  0.00  0.00    +0.000 OA
ATOM     21  O   UNL     1      19.578   8.600  40.995  0.00  0.00    +0.000 OA
ENDBRANCH  18  19
ENDBRANCH   1  15
TORSDOF 3
ENDMDL
MODEL 4
REMARK VINA RESULT:      -6.9      2.340      7.733
REMARK  Name = 
REMARK  3 active torsions:
REMARK  status: ('A' for Active; 'I' for Inactive)
REMARK    1  A    between atoms: C_4  and  C_5
REMARK    2  A    between atoms: N_7  and  C_8
REMARK    3  A    between atoms: C_18  and  N_19
REMARK                            x       y       z     vdW  Elec       q    Type
REMARK                         _______ _______ _______ _____ _____    ______ ____
ROOT
ATOM      1  C   UNL     1      16.517  11.558  36.284  0.00  0.00    +0.000 C 
ATOM      2  O   UNL     1      16.798  12.580  36.958  0.00  0.00    +0.000 OA
ATOM      3  N   UNL     1      16.603  10.312  36.908  0.00  0.00    +0.000 NA
ENDROOT
BRANCH   3   4
ATOM      4  C   UNL     1      16.979  10.067  38.240  0.00  0.00    +0.000 A 
ATOM      5  C   UNL     1      16.098  10.132  39.290  0.00  0.00    +0.000 A 
ATOM      6  C   UNL     1      14.691  10.476  38.985  0.00  0.00    +0.000 C 
ATOM      7  C   UNL     1      16.558   9.876  40.557  0.00  0.00    +0.000 A 
ATOM      8  C   UNL     1      17.863   9.554  40.856  0.00  0.00    +0.000 A 
ATOM      9  C   UNL     1      18.741   9.492  39.788  0.00  0.00    +0.000 A 
ATOM     10  C   UNL     1      18.297   9.748  38.496  0.00  0.00    +0.000 A 
ATOM     11  C   UNL     1      19.276   9.670  37.382  0.00  0.00    +0.000 C 
ENDBRANCH   3   4
BRANCH   1  15
ATOM     12  C   UNL     1      13.651  13.787  32.836  0.00  0.00    +0.000 C 
ATOM     13  C   UNL     1      14.742  12.842  33.240  0.00  0.00    +0.000 A 
ATOM     14  C   UNL     1      15.107  12.652  34.557  0.00  0.00    +0.000 A 
ATOM     15  C   UNL     1      16.123  11.767  34.896  0.00  0.00    +0.000 A 
ATOM     16  C   UNL     1      16.730  11.109  33.849  0.00  0.00    +0.000 A 
ATOM     17  C   UNL     1      16.373  11.294  32.534  0.00  0.00    +0.000 A 
ATOM     18  C   UNL     1      15.370  12.166  32.209  0.00  0.00    +0.000 A 
BRANCH  18  19
ATOM     19  N   UNL     1      15.010  12.349  30.842  0.00  0.00    +0.000 N 
ATOM     20  O   UNL     1      14.305  11.484  30.281  0.00  0.00    +0.000 OA
ATOM     21  O   UNL     1      15.391  13.422  30.098  0.00  0.00    +0.000 OA
ENDBRANCH  18  19
ENDBRANCH   1  15
TORSDOF 3
ENDMDL
MODEL 5
REMARK VINA RESULT:      -6.6      3.616      5.399
REMARK  Name = 
REMARK  3 active torsions:
REMARK  status: ('A' for Active; 'I' for Inactive)
REMARK    1  A    between atoms: C_4  and  C_5
REMARK    2  A    between atoms: N_7  and  C_8
REMARK    3  A    between atoms: C_18  and  N_19
REMARK                            x       y       z     vdW  Elec       q    Type
REMARK                         _______ _______ _______ _____ _____    ______ ____
ROOT
ATOM      1  C   UNL     1      17.114  10.709  37.276  0.00  0.00    +0.000 C 
ATOM      2  O   UNL     1      16.688   9.833  36.484  0.00  0.00    +0.000 OA
ATOM      3  N   UNL     1      16.182  11.519  37.928  0.00  0.00    +0.000 NA
ENDROOT
BRANCH   3   4
ATOM      4  C   UNL     1      14.784  11.462  37.792  0.00  0.00    +0.000 A 
ATOM      5  C   UNL     1      13.976  10.771  38.658  0.00  0.00    +0.000 A 
ATOM      6  C   UNL     1      14.625  10.058  39.781  0.00  0.00    +0.000 C 
ATOM      7  C   UNL     1      12.620  10.773  38.444  0.00  0.00    +0.000 A 
ATOM      8  C   UNL     1      12.003  11.432  37.405  0.00  0.00    +0.000 A 
ATOM      9  C   UNL     1      12.829  12.126  36.538  0.00  0.00    +0.000 A 
ATOM     10  C   UNL     1      14.204  12.137  36.736  0.00  0.00    +0.000 A 
ATOM     11  C   UNL     1      15.051  12.895  35.780  0.00  0.00    +0.000 C 
ENDBRANCH   3   4
BRANCH   1  15
ATOM     12  C   UNL     1      21.183  13.146  38.881  0.00  0.00    +0.000 C 
ATOM     13  C   UNL     1      20.514  11.979  38.219  0.00  0.00    +0.000 A 
ATOM     14  C   UNL     1      19.146  11.900  38.064  0.00  0.00    +0.000 A 
ATOM     15  C   UNL     1      18.559  10.803  37.445  0.00  0.00    +0.000 A 
ATOM     16  C   UNL     1      19.419   9.820  37.008  0.00  0.00    +0.000 A 
ATOM     17  C   UNL     1      20.784   9.891  37.160  0.00  0.00    +0.000 A 
ATOM     18  C   UNL     1      21.354  10.975  37.769  0.00  0.00    +0.000 A 
BRANCH  18  19
ATOM     19  N   UNL     1      22.771  11.036  37.920  0.00  0.00    +0.000 N 
ATOM     20  O   UNL     1      23.282  10.655  38.994  0.00  0.00    +0.000 OA
ATOM     21  O   UNL     1      23.613  11.490  36.953  0.00  0.00    +0.000 OA
ENDBRANCH  18  19
ENDBRANCH   1  15
TORSDOF 3
ENDMDL
MODEL 6
REMARK VINA RESULT:      -6.6      1.658      2.630
REMARK  Name = 
REMARK  3 active torsions:
REMARK  status: ('A' for Active; 'I' for Inactive)
REMARK    1  A    between atoms: C_4  and  C_5
REMARK    2  A    between atoms: N_7  and  C_8
REMARK    3  A    between atoms: C_18  and  N_19
REMARK                            x       y       z     vdW  Elec       q    Type
REMARK                         _______ _______ _______ _____ _____    ______ ____
ROOT
ATOM      1  C   UNL     1      15.329  11.432  35.208  0.00  0.00    +0.000 C 
ATOM      2  O   UNL     1      14.108  11.146  35.273  0.00  0.00    +0.000 OA
ATOM      3  N   UNL     1      15.780  12.159  34.105  0.00  0.00    +0.000 NA
ENDROOT
BRANCH   3   4
ATOM      4  C   UNL     1      14.998  12.621  33.031  0.00  0.00    +0.000 A 
ATOM      5  C   UNL     1      14.064  13.617  33.160  0.00  0.00    +0.000 A 
ATOM      6  C   UNL     1      13.885  14.221  34.499  0.00  0.00    +0.000 C 
ATOM      7  C   UNL     1      13.348  14.001  32.054  0.00  0.00    +0.000 A 
ATOM      8  C   UNL     1      13.504  13.449  30.802  0.00  0.00    +0.000 A 
ATOM      9  C   UNL     1      14.450  12.445  30.686  0.00  0.00    +0.000 A 
ATOM     10  C   UNL     1      15.186  12.040  31.793  0.00  0.00    +0.000 A 
ATOM     11  C   UNL     1      16.189  10.959  31.620  0.00  0.00    +0.000 C 
ENDBRANCH   3   4
BRANCH   1  15
ATOM     12  C   UNL     1      19.701   9.697  36.925  0.00  0.00    +0.000 C 
ATOM     13  C   UNL     1      18.282  10.137  37.124  0.00  0.00    +0.000 A 
ATOM     14  C   UNL     1      17.489  10.571  36.082  0.00  0.00    +0.000 A 
ATOM     15  C   UNL     1      16.177  10.970  36.302  0.00  0.00    +0.000 A 
ATOM     16  C   UNL     1      15.732  10.906  37.604  0.00  0.00    +0.000 A 
ATOM     17  C   UNL     1      16.517  10.475  38.648  0.00  0.00    +0.000 A 
ATOM     18  C   UNL     1      17.807  10.083  38.423  0.00  0.00    +0.000 A 
BRANCH  18  19
ATOM     19  N   UNL     1      18.610   9.638  39.514  0.00  0.00    +0.000 N 
ATOM     20  O   UNL     1      18.619   8.423  39.802  0.00  0.00    +0.000 OA
ATOM     21  O   UNL     1      19.378  10.465  40.272  0.00  0.00    +0.000 OA
ENDBRANCH  18  19
ENDBRANCH   1  15
TORSDOF 3
ENDMDL
MODEL 7
REMARK VINA RESULT:      -6.4      1.721      3.260
REMARK  Name = 
REMARK  3 active torsions:
REMARK  status: ('A' for Active; 'I' for Inactive)
REMARK    1  A    between atoms: C_4  and  C_5
REMARK    2  A    between atoms: N_7  and  C_8
REMARK    3  A    between atoms: C_18  and  N_19
REMARK                            x       y       z     vdW  Elec       q    Type
REMARK                         _______ _______ _______ _____ _____    ______ ____
ROOT
ATOM      1  C   UNL     1      17.103  10.895  37.252  0.00  0.00    +0.000 C 
ATOM      2  O   UNL     1      17.665  12.007  37.105  0.00  0.00    +0.000 OA
ATOM      3  N   UNL     1      16.192  10.480  36.279  0.00  0.00    +0.000 NA
ENDROOT
BRANCH   3   4
ATOM      4  C   UNL     1      15.825  11.188  35.121  0.00  0.00    +0.000 A 
ATOM      5  C   UNL     1      14.813  12.114  35.100  0.00  0.00    +0.000 A 
ATOM      6  C   UNL     1      14.087  12.366  36.365  0.00  0.00    +0.000 C 
ATOM      7  C   UNL     1      14.527  12.756  33.922  0.00  0.00    +0.000 A 
ATOM      8  C   UNL     1      15.195  12.534  32.738  0.00  0.00    +0.000 A 
ATOM      9  C   UNL     1      16.213  11.597  32.772  0.00  0.00    +0.000 A 
ATOM     10  C   UNL     1      16.520  10.935  33.955  0.00  0.00    +0.000 A 
ATOM     11  C   UNL     1      17.620   9.938  33.944  0.00  0.00    +0.000 C 
ENDBRANCH   3   4
BRANCH   1  15
ATOM     12  C   UNL     1      15.934   8.976  41.727  0.00  0.00    +0.000 C 
ATOM     13  C   UNL     1      16.888   9.206  40.594  0.00  0.00    +0.000 A 
ATOM     14  C   UNL     1      16.545   9.933  39.474  0.00  0.00    +0.000 A 
ATOM     15  C   UNL     1      17.454  10.127  38.442  0.00  0.00    +0.000 A 
ATOM     16  C   UNL     1      18.696   9.554  38.610  0.00  0.00    +0.000 A 
ATOM     17  C   UNL     1      19.045   8.826  39.724  0.00  0.00    +0.000 A 
ATOM     18  C   UNL     1      18.143   8.641  40.736  0.00  0.00    +0.000 A 
BRANCH  18  19
ATOM     19  N   UNL     1      18.518   7.885  41.885  0.00  0.00    +0.000 N 
ATOM     20  O   UNL     1      18.397   6.642  41.858  0.00  0.00    +0.000 OA
ATOM     21  O   UNL     1      19.008   8.440  43.026  0.00  0.00    +0.000 OA
ENDBRANCH  18  19
ENDBRANCH   1  15
TORSDOF 3
ENDMDL
MODEL 8
REMARK VINA RESULT:      -6.4      2.600      7.745
REMARK  Name = 
REMARK  3 active torsions:
REMARK  status: ('A' for Active; 'I' for Inactive)
REMARK    1  A    between atoms: C_4  and  C_5
REMARK    2  A    between atoms: N_7  and  C_8
REMARK    3  A    between atoms: C_18  and  N_19
REMARK                            x       y       z     vdW  Elec       q    Type
REMARK                         _______ _______ _______ _____ _____    ______ ____
ROOT
ATOM      1  C   UNL     1      18.006  10.932  36.950  0.00  0.00    +0.000 C 
ATOM      2  O   UNL     1      18.212  12.051  37.480  0.00  0.00    +0.000 OA
ATOM      3  N   UNL     1      18.436   9.790  37.629  0.00  0.00    +0.000 NA
ENDROOT
BRANCH   3   4
ATOM      4  C   UNL     1      19.092   9.753  38.872  0.00  0.00    +0.000 A 
ATOM      5  C   UNL     1      20.456   9.824  39.000  0.00  0.00    +0.000 A 
ATOM      6  C   UNL     1      21.257   9.945  37.761  0.00  0.00    +0.000 C 
ATOM      7  C   UNL     1      21.007   9.781  40.257  0.00  0.00    +0.000 A 
ATOM      8  C   UNL     1      20.275   9.670  41.418  0.00  0.00    +0.000 A 
ATOM      9  C   UNL     1      18.900   9.599  41.275  0.00  0.00    +0.000 A 
ATOM     10  C   UNL     1      18.321   9.641  40.012  0.00  0.00    +0.000 A 
ATOM     11  C   UNL     1      16.842   9.562  39.907  0.00  0.00    +0.000 C 
ENDBRANCH   3   4
BRANCH   1  15
ATOM     12  C   UNL     1      14.513  12.702  33.830  0.00  0.00    +0.000 C 
ATOM     13  C   UNL     1      15.647  11.779  34.160  0.00  0.00    +0.000 A 
ATOM     14  C   UNL     1      16.280  11.794  35.386  0.00  0.00    +0.000 A 
ATOM     15  C   UNL     1      17.329  10.924  35.658  0.00  0.00    +0.000 A 
ATOM     16  C   UNL     1      17.686  10.065  34.642  0.00  0.00    +0.000 A 
ATOM     17  C   UNL     1      17.060  10.045  33.418  0.00  0.00    +0.000 A 
ATOM     18  C   UNL     1      16.028  10.904  33.158  0.00  0.00    +0.000 A 
BRANCH  18  19
ATOM     19  N   UNL     1      15.387  10.873  31.885  0.00  0.00    +0.000 N 
ATOM     20  O   UNL     1      14.456  10.062  31.695  0.00  0.00    +0.000 OA
ATOM     21  O   UNL     1      15.731  11.682  30.847  0.00  0.00    +0.000 OA
ENDBRANCH  18  19
ENDBRANCH   1  15
TORSDOF 3
ENDMDL
MODEL 9
REMARK VINA RESULT:      -6.4      2.432      7.848
REMARK  Name = 
REMARK  3 active torsions:
REMARK  status: ('A' for Active; 'I' for Inactive)
REMARK    1  A    between atoms: C_4  and  C_5
REMARK    2  A    between atoms: N_7  and  C_8
REMARK    3  A    between atoms: C_18  and  N_19
REMARK                            x       y       z     vdW  Elec       q    Type
REMARK                         _______ _______ _______ _____ _____    ______ ____
ROOT
ATOM      1  C   UNL     1      17.645  10.887  37.313  0.00  0.00    +0.000 C 
ATOM      2  O   UNL     1      17.955  11.982  37.842  0.00  0.00    +0.000 OA
ATOM      3  N   UNL     1      17.824   9.719  38.057  0.00  0.00    +0.000 NA
ENDROOT
BRANCH   3   4
ATOM      4  C   UNL     1      18.325   9.631  39.368  0.00  0.00    +0.000 A 
ATOM      5  C   UNL     1      17.517   9.588  40.476  0.00  0.00    +0.000 A 
ATOM      6  C   UNL     1      16.054   9.637  40.261  0.00  0.00    +0.000 C 
ATOM      7  C   UNL     1      18.098   9.502  41.716  0.00  0.00    +0.000 A 
ATOM      8  C   UNL     1      19.458   9.454  41.932  0.00  0.00    +0.000 A 
ATOM      9  C   UNL     1      20.261   9.499  40.806  0.00  0.00    +0.000 A 
ATOM     10  C   UNL     1      19.694   9.587  39.540  0.00  0.00    +0.000 A 
ATOM     11  C   UNL     1      20.596   9.632  38.361  0.00  0.00    +0.000 C 
ENDBRANCH   3   4
BRANCH   1  15
ATOM     12  C   UNL     1      14.488  12.741  33.898  0.00  0.00    +0.000 C 
ATOM     13  C   UNL     1      15.602  11.828  34.312  0.00  0.00    +0.000 A 
ATOM     14  C   UNL     1      16.089  11.792  35.602  0.00  0.00    +0.000 A 
ATOM     15  C   UNL     1      17.123  10.933  35.952  0.00  0.00    +0.000 A 
ATOM     16  C   UNL     1      17.619  10.136  34.943  0.00  0.00    +0.000 A 
ATOM     17  C   UNL     1      17.139  10.167  33.655  0.00  0.00    +0.000 A 
ATOM     18  C   UNL     1      16.121  11.015  33.319  0.00  0.00    +0.000 A 
BRANCH  18  19
ATOM     19  N   UNL     1      15.633  11.037  31.979  0.00  0.00    +0.000 N 
ATOM     20  O   UNL     1      16.173  11.798  31.150  0.00  0.00    +0.000 OA
ATOM     21  O   UNL     1      14.600  10.268  31.540  0.00  0.00    +0.000 OA
ENDBRANCH  18  19
ENDBRANCH   1  15
TORSDOF 3
ENDMDL
MODEL 10
REMARK VINA RESULT:      -6.3      2.063      3.165
REMARK  Name = 
REMARK  3 active torsions:
REMARK  status: ('A' for Active; 'I' for Inactive)
REMARK    1  A    between atoms: C_4  and  C_5
REMARK    2  A    between atoms: N_7  and  C_8
REMARK    3  A    between atoms: C_18  and  N_19
REMARK                            x       y       z     vdW  Elec       q    Type
REMARK                         _______ _______ _______ _____ _____    ______ ____
ROOT
ATOM      1  C   UNL     1      17.497  10.758  37.812  0.00  0.00    +0.000 C 
ATOM      2  O   UNL     1      18.211  11.727  37.453  0.00  0.00    +0.000 OA
ATOM      3  N   UNL     1      16.508  10.306  36.936  0.00  0.00    +0.000 NA
ENDROOT
BRANCH   3   4
ATOM      4  C   UNL     1      16.215  10.828  35.664  0.00  0.00    +0.000 A 
ATOM      5  C   UNL     1      16.870  10.433  34.525  0.00  0.00    +0.000 A 
ATOM      6  C   UNL     1      17.931   9.411  34.662  0.00  0.00    +0.000 C 
ATOM      7  C   UNL     1      16.514  10.999  33.326  0.00  0.00    +0.000 A 
ATOM      8  C   UNL     1      15.529  11.951  33.183  0.00  0.00    +0.000 A 
ATOM      9  C   UNL     1      14.876  12.340  34.339  0.00  0.00    +0.000 A 
ATOM     10  C   UNL     1      15.221  11.780  35.564  0.00  0.00    +0.000 A 
ATOM     11  C   UNL     1      14.493  12.228  36.778  0.00  0.00    +0.000 C 
ENDBRANCH   3   4
BRANCH   1  15
ATOM     12  C   UNL     1      15.934   8.598  42.050  0.00  0.00    +0.000 C 
ATOM     13  C   UNL     1      17.010   9.148  41.164  0.00  0.00    +0.000 A 
ATOM     14  C   UNL     1      16.744   9.686  39.922  0.00  0.00    +0.000 A 
ATOM     15  C   UNL     1      17.767  10.187  39.126  0.00  0.00    +0.000 A 
ATOM     16  C   UNL     1      19.038  10.111  39.651  0.00  0.00    +0.000 A 
ATOM     17  C   UNL     1      19.311   9.575  40.888  0.00  0.00    +0.000 A 
ATOM     18  C   UNL     1      18.299   9.084  41.665  0.00  0.00    +0.000 A 
BRANCH  18  19
ATOM     19  N   UNL     1      18.596   8.532  42.946  0.00  0.00    +0.000 N 
ATOM     20  O   UNL     1      18.651   9.293  43.935  0.00  0.00    +0.000 OA
ATOM     21  O   UNL     1      18.827   7.209  43.161  0.00  0.00    +0.000 OA
ENDBRANCH  18  19
ENDBRANCH   1  15
TORSDOF 3
ENDMDL
