MODEL 1
REMARK VINA RESULT:      -7.6      0.000      0.000
REMARK  Name = 
REMARK  2 active torsions:
REMARK  status: ('A' for Active; 'I' for Inactive)
REMARK    1  A    between atoms: C_4  and  C_5
REMARK    2  A    between atoms: C_8  and  C_9
REMARK                            x       y       z     vdW  Elec       q    Type
REMARK                         _______ _______ _______ _____ _____    ______ ____
ROOT
ATOM      1  C   UNL     1      16.242  10.898  36.926  0.00  0.00    +0.000 A 
ATOM      2  C   UNL     1      15.229  11.614  37.515  0.00  0.00    +0.000 A 
ATOM      3  S   UNL     1      14.415  12.256  36.159  0.00  0.00    +0.000 S 
ATOM      4  C   UNL     1      15.401  11.584  34.941  0.00  0.00    +0.000 A 
ATOM      5  N   UNL     1      16.300  10.904  35.631  0.00  0.00    +0.000 NA
ENDROOT
BRANCH   1   9
ATOM      6  C   UNL     1      18.646   8.733  40.842  0.00  0.00    +0.000 C 
ATOM      7  C   UNL     1      18.305   9.190  39.451  0.00  0.00    +0.000 A 
ATOM      8  C   UNL     1      17.180   9.936  39.108  0.00  0.00    +0.000 A 
ATOM      9  C   UNL     1      17.230  10.150  37.748  0.00  0.00    +0.000 A 
ATOM     10  C   UNL     1      18.388   9.521  37.324  0.00  0.00    +0.000 A 
ATOM     11  C   UNL     1      18.832   9.506  35.906  0.00  0.00    +0.000 C 
ATOM     12  O   UNL     1      18.988   8.971  38.351  0.00  0.00    +0.000 OA
ENDBRANCH   1   9
BRANCH   4  13
ATOM     13  C   UNL     1      15.294  11.715  33.491  0.00  0.00    +0.000 A 
ATOM     14  C   UNL     1      15.995  10.886  32.648  0.00  0.00    +0.000 A 
ATOM     15  C   UNL     1      15.888  11.017  31.258  0.00  0.00    +0.000 A 
ATOM     16  C   UNL     1      15.069  11.992  30.738  0.00  0.00    +0.000 A 
ATOM     17  C   UNL     1      14.364  12.828  31.567  0.00  0.00    +0.000 A 
ATOM     18  N   UNL     1      13.517  13.836  31.015  0.00  0.00    +0.000 NA
ATOM     19  C   UNL     1      14.492  12.672  32.926  0.00  0.00    +0.000 A 
ENDBRANCH   4  13
TORSDOF 2
ENDMDL
MODEL 2
REMARK VINA RESULT:      -7.3     20.216     22.655
REMARK  Name = 
REMARK  2 active torsions:
REMARK  status: ('A' for Active; 'I' for Inactive)
REMARK    1  A    between atoms: C_4  and  C_5
REMARK    2  A    between atoms: C_8  and  C_9
REMARK                            x       y       z     vdW  Elec       q    Type
REMARK                         _______ _______ _______ _____ _____    ______ ____
ROOT
ATOM      1  C   UNL     1      33.031  -1.776  34.262  0.00  0.00    +0.000 A 
ATOM      2  C   UNL     1      32.152  -2.412  35.104  0.00  0.00    +0.000 A 
ATOM      3  S   UNL     1      32.231  -4.023  34.547  0.00  0.00    +0.000 S 
ATOM      4  C   UNL     1      33.362  -3.793  33.292  0.00  0.00    +0.000 A 
ATOM      5  N   UNL     1      33.621  -2.498  33.363  0.00  0.00    +0.000 NA
ENDROOT
BRANCH   1   9
ATOM      6  C   UNL     1      33.561   3.162  33.195  0.00  0.00    +0.000 C 
ATOM      7  C   UNL     1      33.527   1.857  33.940  0.00  0.00    +0.000 A 
ATOM      8  C   UNL     1      33.205   0.624  33.380  0.00  0.00    +0.000 A 
ATOM      9  C   UNL     1      33.288  -0.316  34.383  0.00  0.00    +0.000 A 
ATOM     10  C   UNL     1      33.659   0.392  35.514  0.00  0.00    +0.000 A 
ATOM     11  C   UNL     1      33.865  -0.245  36.841  0.00  0.00    +0.000 C 
ATOM     12  O   UNL     1      33.789   1.661  35.212  0.00  0.00    +0.000 OA
ENDBRANCH   1   9
BRANCH   4  13
ATOM     13  C   UNL     1      33.919  -4.769  32.361  0.00  0.00    +0.000 A 
ATOM     14  C   UNL     1      34.954  -5.594  32.730  0.00  0.00    +0.000 A 
ATOM     15  C   UNL     1      35.483  -6.528  31.831  0.00  0.00    +0.000 A 
ATOM     16  C   UNL     1      34.955  -6.613  30.564  0.00  0.00    +0.000 A 
ATOM     17  C   UNL     1      33.922  -5.797  30.181  0.00  0.00    +0.000 A 
ATOM     18  N   UNL     1      33.381  -5.895  28.863  0.00  0.00    +0.000 NA
ATOM     19  C   UNL     1      33.426  -4.891  31.087  0.00  0.00    +0.000 A 
ENDBRANCH   4  13
TORSDOF 2
ENDMDL
MODEL 3
REMARK VINA RESULT:      -7.2     20.612     23.116
REMARK  Name = 
REMARK  2 active torsions:
REMARK  status: ('A' for Active; 'I' for Inactive)
REMARK    1  A    between atoms: C_4  and  C_5
REMARK    2  A    between atoms: C_8  and  C_9
REMARK                            x       y       z     vdW  Elec       q    Type
REMARK                         _______ _______ _______ _____ _____    ______ ____
ROOT
ATOM      1  C   UNL     1      33.407  -4.373  32.817  0.00  0.00    +0.000 A 
ATOM      2  C   UNL     1      32.699  -5.006  33.808  0.00  0.00    +0.000 A 
ATOM      3  S   UNL     1      32.431  -3.736  34.916  0.00  0.00    +0.000 S 
ATOM      4  C   UNL     1      33.227  -2.493  34.063  0.00  0.00    +0.000 A 
ATOM      5  N   UNL     1      33.656  -3.111  32.976  0.00  0.00    +0.000 NA
ENDROOT
BRANCH   1   9
ATOM      6  C   UNL     1      33.714  -6.290  28.122  0.00  0.00    +0.000 C 
ATOM      7  C   UNL     1      34.026  -5.968  29.557  0.00  0.00    +0.000 A 
ATOM      8  C   UNL     1      33.249  -5.160  30.383  0.00  0.00    +0.000 A 
ATOM      9  C   UNL     1      33.868  -5.114  31.612  0.00  0.00    +0.000 A 
ATOM     10  C   UNL     1      34.999  -5.901  31.478  0.00  0.00    +0.000 A 
ATOM     11  C   UNL     1      35.967  -6.128  32.583  0.00  0.00    +0.000 C 
ATOM     12  O   UNL     1      35.055  -6.382  30.260  0.00  0.00    +0.000 OA
ENDBRANCH   1   9
BRANCH   4  13
ATOM     13  C   UNL     1      33.401  -1.090  34.425  0.00  0.00    +0.000 A 
ATOM     14  C   UNL     1      33.421  -0.692  35.740  0.00  0.00    +0.000 A 
ATOM     15  C   UNL     1      33.589   0.656  36.079  0.00  0.00    +0.000 A 
ATOM     16  C   UNL     1      33.733   1.587  35.077  0.00  0.00    +0.000 A 
ATOM     17  C   UNL     1      33.714   1.205  33.760  0.00  0.00    +0.000 A 
ATOM     18  N   UNL     1      33.865   2.181  32.729  0.00  0.00    +0.000 NA
ATOM     19  C   UNL     1      33.548  -0.126  33.461  0.00  0.00    +0.000 A 
ENDBRANCH   4  13
TORSDOF 2
ENDMDL
MODEL 4
REMARK VINA RESULT:      -6.8      2.386      3.711
REMARK  Name = 
REMARK  2 active torsions:
REMARK  status: ('A' for Active; 'I' for Inactive)
REMARK    1  A    between atoms: C_4  and  C_5
REMARK    2  A    between atoms: C_8  and  C_9
REMARK                            x       y       z     vdW  Elec       q    Type
REMARK                         _______ _______ _______ _____ _____    ______ ____
ROOT
ATOM      1  C   UNL     1      18.160   9.432  39.063  0.00  0.00    +0.000 A 
ATOM      2  C   UNL     1      19.124  10.375  39.325  0.00  0.00    +0.000 A 
ATOM      3  S   UNL     1      18.967  11.422  37.987  0.00  0.00    +0.000 S 
ATOM      4  C   UNL     1      17.702  10.608  37.184  0.00  0.00    +0.000 A 
ATOM      5  N   UNL     1      17.464   9.578  37.979  0.00  0.00    +0.000 NA
ENDROOT
BRANCH   1   9
ATOM      6  C   UNL     1      18.561   4.968  41.453  0.00  0.00    +0.000 C 
ATOM      7  C   UNL     1      18.087   6.338  41.055  0.00  0.00    +0.000 A 
ATOM      8  C   UNL     1      18.643   7.113  40.042  0.00  0.00    +0.000 A 
ATOM      9  C   UNL     1      17.932   8.291  39.989  0.00  0.00    +0.000 A 
ATOM     10  C   UNL     1      16.969   8.178  40.978  0.00  0.00    +0.000 A 
ATOM     11  C   UNL     1      15.973   9.241  41.268  0.00  0.00    +0.000 C 
ATOM     12  O   UNL     1      17.094   7.020  41.579  0.00  0.00    +0.000 OA
ENDBRANCH   1   9
BRANCH   4  13
ATOM     13  C   UNL     1      17.034  10.947  35.932  0.00  0.00    +0.000 A 
ATOM     14  C   UNL     1      17.414  10.371  34.744  0.00  0.00    +0.000 A 
ATOM     15  C   UNL     1      16.768  10.702  33.546  0.00  0.00    +0.000 A 
ATOM     16  C   UNL     1      15.742  11.618  33.569  0.00  0.00    +0.000 A 
ATOM     17  C   UNL     1      15.352  12.202  34.747  0.00  0.00    +0.000 A 
ATOM     18  N   UNL     1      14.286  13.151  34.757  0.00  0.00    +0.000 NA
ATOM     19  C   UNL     1      16.007  11.855  35.904  0.00  0.00    +0.000 A 
ENDBRANCH   4  13
TORSDOF 2
ENDMDL
MODEL 5
REMARK VINA RESULT:      -6.7      3.411      7.324
REMARK  Name = 
REMARK  2 active torsions:
REMARK  status: ('A' for Active; 'I' for Inactive)
REMARK    1  A    between atoms: C_4  and  C_5
REMARK    2  A    between atoms: C_8  and  C_9
REMARK                            x       y       z     vdW  Elec       q    Type
REMARK                         _______ _______ _______ _____ _____    ______ ____
ROOT
ATOM      1  C   UNL     1      17.325  10.552  36.209  0.00  0.00    +0.000 A 
ATOM      2  C   UNL     1      16.621  10.380  37.376  0.00  0.00    +0.000 A 
ATOM      3  S   UNL     1      17.856   9.962  38.476  0.00  0.00    +0.000 S 
ATOM      4  C   UNL     1      19.176  10.029  37.400  0.00  0.00    +0.000 A 
ATOM      5  N   UNL     1      18.607  10.368  36.256  0.00  0.00    +0.000 NA
ENDROOT
BRANCH   1   9
ATOM      6  C   UNL     1      15.894  10.777  31.340  0.00  0.00    +0.000 C 
ATOM      7  C   UNL     1      15.990  11.051  32.815  0.00  0.00    +0.000 A 
ATOM      8  C   UNL     1      16.850  10.399  33.696  0.00  0.00    +0.000 A 
ATOM      9  C   UNL     1      16.636  10.933  34.947  0.00  0.00    +0.000 A 
ATOM     10  C   UNL     1      15.652  11.890  34.770  0.00  0.00    +0.000 A 
ATOM     11  C   UNL     1      15.115  12.719  35.881  0.00  0.00    +0.000 C 
ATOM     12  O   UNL     1      15.301  11.929  33.508  0.00  0.00    +0.000 OA
ENDBRANCH   1   9
BRANCH   4  13
ATOM     13  C   UNL     1      20.591   9.780  37.659  0.00  0.00    +0.000 A 
ATOM     14  C   UNL     1      21.039   9.464  38.919  0.00  0.00    +0.000 A 
ATOM     15  C   UNL     1      22.398   9.227  39.159  0.00  0.00    +0.000 A 
ATOM     16  C   UNL     1      23.289   9.315  38.115  0.00  0.00    +0.000 A 
ATOM     17  C   UNL     1      22.857   9.631  36.852  0.00  0.00    +0.000 A 
ATOM     18  N   UNL     1      23.792   9.720  35.776  0.00  0.00    +0.000 NA
ATOM     19  C   UNL     1      21.517   9.858  36.650  0.00  0.00    +0.000 A 
ENDBRANCH   4  13
TORSDOF 2
ENDMDL
MODEL 6
REMARK VINA RESULT:      -6.6     18.150     19.365
REMARK  Name = 
REMARK  2 active torsions:
REMARK  status: ('A' for Active; 'I' for Inactive)
REMARK    1  A    between atoms: C_4  and  C_5
REMARK    2  A    between atoms: C_8  and  C_9
REMARK                            x       y       z     vdW  Elec       q    Type
REMARK                         _______ _______ _______ _____ _____    ______ ____
ROOT
ATOM      1  C   UNL     1      27.899  23.459  28.141  0.00  0.00    +0.000 A 
ATOM      2  C   UNL     1      29.073  22.754  28.242  0.00  0.00    +0.000 A 
ATOM      3  S   UNL     1      29.479  22.504  26.604  0.00  0.00    +0.000 S 
ATOM      4  C   UNL     1      28.147  23.301  25.897  0.00  0.00    +0.000 A 
ATOM      5  N   UNL     1      27.461  23.717  26.948  0.00  0.00    +0.000 NA
ENDROOT
BRANCH   1   9
ATOM      6  C   UNL     1      25.820  26.346  31.767  0.00  0.00    +0.000 C 
ATOM      7  C   UNL     1      26.243  25.150  30.960  0.00  0.00    +0.000 A 
ATOM      8  C   UNL     1      26.988  25.201  29.784  0.00  0.00    +0.000 A 
ATOM      9  C   UNL     1      27.165  23.904  29.355  0.00  0.00    +0.000 A 
ATOM     10  C   UNL     1      26.517  23.120  30.293  0.00  0.00    +0.000 A 
ATOM     11  C   UNL     1      26.461  21.637  30.214  0.00  0.00    +0.000 C 
ATOM     12  O   UNL     1      25.990  23.887  31.216  0.00  0.00    +0.000 OA
ENDBRANCH   1   9
BRANCH   4  13
ATOM     13  C   UNL     1      27.827  23.489  24.486  0.00  0.00    +0.000 A 
ATOM     14  C   UNL     1      26.534  23.391  24.030  0.00  0.00    +0.000 A 
ATOM     15  C   UNL     1      26.234  23.573  22.675  0.00  0.00    +0.000 A 
ATOM     16  C   UNL     1      27.254  23.850  21.794  0.00  0.00    +0.000 A 
ATOM     17  C   UNL     1      28.549  23.950  22.233  0.00  0.00    +0.000 A 
ATOM     18  N   UNL     1      29.599  24.238  21.310  0.00  0.00    +0.000 NA
ATOM     19  C   UNL     1      28.809  23.766  23.570  0.00  0.00    +0.000 A 
ENDBRANCH   4  13
TORSDOF 2
ENDMDL
MODEL 7
REMARK VINA RESULT:      -6.6      4.831      7.756
REMARK  Name = 
REMARK  2 active torsions:
REMARK  status: ('A' for Active; 'I' for Inactive)
REMARK    1  A    between atoms: C_4  and  C_5
REMARK    2  A    between atoms: C_8  and  C_9
REMARK                            x       y       z     vdW  Elec       q    Type
REMARK                         _______ _______ _______ _____ _____    ______ ____
ROOT
ATOM      1  C   UNL     1      19.523  10.353  37.855  0.00  0.00    +0.000 A 
ATOM      2  C   UNL     1      18.513  10.856  37.072  0.00  0.00    +0.000 A 
ATOM      3  S   UNL     1      17.122  10.343  37.916  0.00  0.00    +0.000 S 
ATOM      4  C   UNL     1      17.899   9.529  39.197  0.00  0.00    +0.000 A 
ATOM      5  N   UNL     1      19.180   9.691  38.915  0.00  0.00    +0.000 NA
ENDROOT
BRANCH   1   9
ATOM      6  C   UNL     1      24.143   9.802  35.816  0.00  0.00    +0.000 C 
ATOM      7  C   UNL     1      22.988  10.343  36.611  0.00  0.00    +0.000 A 
ATOM      8  C   UNL     1      21.717   9.775  36.663  0.00  0.00    +0.000 A 
ATOM      9  C   UNL     1      20.950  10.563  37.493  0.00  0.00    +0.000 A 
ATOM     10  C   UNL     1      21.794  11.578  37.910  0.00  0.00    +0.000 A 
ATOM     11  C   UNL     1      21.366  12.664  38.830  0.00  0.00    +0.000 C 
ATOM     12  O   UNL     1      22.977  11.414  37.371  0.00  0.00    +0.000 OA
ENDBRANCH   1   9
BRANCH   4  13
ATOM     13  C   UNL     1      17.313   8.823  40.333  0.00  0.00    +0.000 A 
ATOM     14  C   UNL     1      16.455   9.458  41.198  0.00  0.00    +0.000 A 
ATOM     15  C   UNL     1      15.897   8.774  42.286  0.00  0.00    +0.000 A 
ATOM     16  C   UNL     1      16.219   7.452  42.483  0.00  0.00    +0.000 A 
ATOM     17  C   UNL     1      17.074   6.805  41.628  0.00  0.00    +0.000 A 
ATOM     18  N   UNL     1      17.401   5.432  41.844  0.00  0.00    +0.000 NA
ATOM     19  C   UNL     1      17.605   7.505  40.571  0.00  0.00    +0.000 A 
ENDBRANCH   4  13
TORSDOF 2
ENDMDL
MODEL 8
REMARK VINA RESULT:      -6.5      3.568      5.018
REMARK  Name = 
REMARK  2 active torsions:
REMARK  status: ('A' for Active; 'I' for Inactive)
REMARK    1  A    between atoms: C_4  and  C_5
REMARK    2  A    between atoms: C_8  and  C_9
REMARK                            x       y       z     vdW  Elec       q    Type
REMARK                         _______ _______ _______ _____ _____    ______ ____
ROOT
ATOM      1  C   UNL     1      20.076  10.651  38.226  0.00  0.00    +0.000 A 
ATOM      2  C   UNL     1      19.916   9.487  38.937  0.00  0.00    +0.000 A 
ATOM      3  S   UNL     1      18.237   9.217  38.802  0.00  0.00    +0.000 S 
ATOM      4  C   UNL     1      17.843  10.584  37.863  0.00  0.00    +0.000 A 
ATOM      5  N   UNL     1      19.014  11.176  37.700  0.00  0.00    +0.000 NA
ENDROOT
BRANCH   1   9
ATOM      6  C   UNL     1      24.048  13.784  38.686  0.00  0.00    +0.000 C 
ATOM      7  C   UNL     1      23.174  12.638  38.257  0.00  0.00    +0.000 A 
ATOM      8  C   UNL     1      21.869  12.422  38.691  0.00  0.00    +0.000 A 
ATOM      9  C   UNL     1      21.416  11.278  38.073  0.00  0.00    +0.000 A 
ATOM     10  C   UNL     1      22.471  10.848  37.286  0.00  0.00    +0.000 A 
ATOM     11  C   UNL     1      22.409   9.631  36.437  0.00  0.00    +0.000 C 
ATOM     12  O   UNL     1      23.481  11.672  37.423  0.00  0.00    +0.000 OA
ENDBRANCH   1   9
BRANCH   4  13
ATOM     13  C   UNL     1      16.544  11.011  37.354  0.00  0.00    +0.000 A 
ATOM     14  C   UNL     1      15.439  11.055  38.170  0.00  0.00    +0.000 A 
ATOM     15  C   UNL     1      14.196  11.466  37.674  0.00  0.00    +0.000 A 
ATOM     16  C   UNL     1      14.088  11.827  36.351  0.00  0.00    +0.000 A 
ATOM     17  C   UNL     1      15.181  11.787  35.524  0.00  0.00    +0.000 A 
ATOM     18  N   UNL     1      15.056  12.165  34.153  0.00  0.00    +0.000 NA
ATOM     19  C   UNL     1      16.387  11.380  36.042  0.00  0.00    +0.000 A 
ENDBRANCH   4  13
TORSDOF 2
ENDMDL
MODEL 9
REMARK VINA RESULT:      -6.4     23.391     25.289
REMARK  Name = 
REMARK  2 active torsions:
REMARK  status: ('A' for Active; 'I' for Inactive)
REMARK    1  A    between atoms: C_4  and  C_5
REMARK    2  A    between atoms: C_8  and  C_9
REMARK                            x       y       z     vdW  Elec       q    Type
REMARK                         _______ _______ _______ _____ _____    ______ ____
ROOT
ATOM      1  C   UNL     1      29.291  26.087  21.762  0.00  0.00    +0.000 A 
ATOM      2  C   UNL     1      28.826  27.272  22.277  0.00  0.00    +0.000 A 
ATOM      3  S   UNL     1      29.113  28.355  20.989  0.00  0.00    +0.000 S 
ATOM      4  C   UNL     1      29.799  27.249  19.887  0.00  0.00    +0.000 A 
ATOM      5  N   UNL     1      29.773  26.110  20.559  0.00  0.00    +0.000 NA
ENDROOT
BRANCH   1   9
ATOM      6  C   UNL     1      30.476  22.313  24.948  0.00  0.00    +0.000 C 
ATOM      7  C   UNL     1      29.737  23.163  23.952  0.00  0.00    +0.000 A 
ATOM      8  C   UNL     1      30.200  24.368  23.431  0.00  0.00    +0.000 A 
ATOM      9  C   UNL     1      29.241  24.833  22.559  0.00  0.00    +0.000 A 
ATOM     10  C   UNL     1      28.233  23.884  22.589  0.00  0.00    +0.000 A 
ATOM     11  C   UNL     1      26.990  23.992  21.782  0.00  0.00    +0.000 C 
ATOM     12  O   UNL     1      28.563  22.922  23.416  0.00  0.00    +0.000 OA
ENDBRANCH   1   9
BRANCH   4  13
ATOM     13  C   UNL     1      30.295  27.482  18.535  0.00  0.00    +0.000 A 
ATOM     14  C   UNL     1      31.501  28.102  18.316  0.00  0.00    +0.000 A 
ATOM     15  C   UNL     1      31.971  28.322  17.015  0.00  0.00    +0.000 A 
ATOM     16  C   UNL     1      31.207  27.910  15.948  0.00  0.00    +0.000 A 
ATOM     17  C   UNL     1      30.000  27.290  16.151  0.00  0.00    +0.000 A 
ATOM     18  N   UNL     1      29.216  26.867  15.035  0.00  0.00    +0.000 NA
ATOM     19  C   UNL     1      29.568  27.090  17.440  0.00  0.00    +0.000 A 
ENDBRANCH   4  13
TORSDOF 2
ENDMDL
MODEL 10
REMARK VINA RESULT:      -6.4      2.981      4.884
REMARK  Name = 
REMARK  2 active torsions:
REMARK  status: ('A' for Active; 'I' for Inactive)
REMARK    1  A    between atoms: C_4  and  C_5
REMARK    2  A    between atoms: C_8  and  C_9
REMARK                            x       y       z     vdW  Elec       q    Type
REMARK                         _______ _______ _______ _____ _____    ______ ____
ROOT
ATOM      1  C   UNL     1      17.719   9.055  40.208  0.00  0.00    +0.000 A 
ATOM      2  C   UNL     1      19.002   9.487  39.974  0.00  0.00    +0.000 A 
ATOM      3  S   UNL     1      18.789  10.516  38.630  0.00  0.00    +0.000 S 
ATOM      4  C   UNL     1      17.104  10.337  38.448  0.00  0.00    +0.000 A 
ATOM      5  N   UNL     1      16.790   9.501  39.423  0.00  0.00    +0.000 NA
ENDROOT
BRANCH   1   9
ATOM      6  C   UNL     1      17.240   4.837  42.997  0.00  0.00    +0.000 C 
ATOM      7  C   UNL     1      17.197   6.276  42.564  0.00  0.00    +0.000 A 
ATOM      8  C   UNL     1      17.619   6.751  41.325  0.00  0.00    +0.000 A 
ATOM      9  C   UNL     1      17.418   8.114  41.319  0.00  0.00    +0.000 A 
ATOM     10  C   UNL     1      16.880   8.406  42.560  0.00  0.00    +0.000 A 
ATOM     11  C   UNL     1      16.507   9.782  42.981  0.00  0.00    +0.000 C 
ATOM     12  O   UNL     1      16.766   7.303  43.259  0.00  0.00    +0.000 OA
ENDBRANCH   1   9
BRANCH   4  13
ATOM     13  C   UNL     1      16.211  10.947  37.467  0.00  0.00    +0.000 A 
ATOM     14  C   UNL     1      14.998  11.474  37.840  0.00  0.00    +0.000 A 
ATOM     15  C   UNL     1      14.147  12.057  36.893  0.00  0.00    +0.000 A 
ATOM     16  C   UNL     1      14.538  12.098  35.575  0.00  0.00    +0.000 A 
ATOM     17  C   UNL     1      15.746  11.576  35.188  0.00  0.00    +0.000 A 
ATOM     18  N   UNL     1      16.141  11.624  33.817  0.00  0.00    +0.000 NA
ATOM     19  C   UNL     1      16.557  11.010  36.142  0.00  0.00    +0.000 A 
ENDBRANCH   4  13
TORSDOF 2
ENDMDL
