MODEL 1
REMARK VINA RESULT:      -6.1      0.000      0.000
REMARK  Name = 
REMARK  3 active torsions:
REMARK  status: ('A' for Active; 'I' for Inactive)
REMARK    1  A    between atoms: N_10  and  O_11
REMARK    2  A    between atoms: O_11  and  C_12
REMARK    3  A    between atoms: C_12  and  C_14
REMARK                            x       y       z     vdW  Elec       q    Type
REMARK                         _______ _______ _______ _____ _____    ______ ____
ROOT
ATOM      1  C   UNL     1      32.144  21.704   6.517  0.00  0.00    +0.000 C 
ATOM      2  C   UNL     1      31.826  20.695   7.611  0.00  0.00    +0.000 C 
ATOM      3  C   UNL     1      30.454  20.107   7.443  0.00  0.00    +0.000 C 
ATOM      4  C   UNL     1      32.912  19.615   7.499  0.00  0.00    +0.000 C 
ATOM      5  C   UNL     1      34.244  20.303   7.748  0.00  0.00    +0.000 C 
ATOM      6  C   UNL     1      34.298  20.981   9.085  0.00  0.00    +0.000 C 
ATOM      7  C   UNL     1      33.142  21.983   9.165  0.00  0.00    +0.000 C 
ATOM      8  C   UNL     1      33.348  23.102   8.148  0.00  0.00    +0.000 C 
ATOM      9  C   UNL     1      33.104  22.576  10.544  0.00  0.00    +0.000 C 
ATOM     10  N   UNL     1      31.954  21.249   8.910  0.00  0.00    +0.000 NA
ENDROOT
BRANCH  10  11
ATOM     11  O   UNL     1      30.838  21.679   9.503  0.00  0.00    +0.000 OA
BRANCH  11  12
ATOM     12  C   UNL     1      30.288  21.234  10.670  0.00  0.00    +0.000 C 
ATOM     13  O   UNL     1      30.470  20.029  10.980  0.00  0.00    +0.000 OA
BRANCH  12  14
ATOM     14  C   UNL     1      29.503  22.076  11.579  0.00  0.00    +0.000 A 
ATOM     15  C   UNL     1      28.171  22.350  11.350  0.00  0.00    +0.000 A 
ATOM     16  C   UNL     1      27.432  23.143  12.208  0.00  0.00    +0.000 A 
ATOM     17  C   UNL     1      28.007  23.695  13.334  0.00  0.00    +0.000 A 
ATOM     18  N   UNL     1      27.265  24.516  14.232  0.00  0.00    +0.000 NA
ATOM     19  C   UNL     1      29.341  23.431  13.579  0.00  0.00    +0.000 A 
ATOM     20  C   UNL     1      30.064  22.634  12.709  0.00  0.00    +0.000 A 
ENDBRANCH  12  14
ENDBRANCH  11  12
ENDBRANCH  10  11
TORSDOF 3
ENDMDL
MODEL 2
REMARK VINA RESULT:      -5.9     12.325     15.890
REMARK  Name = 
REMARK  3 active torsions:
REMARK  status: ('A' for Active; 'I' for Inactive)
REMARK    1  A    between atoms: N_10  and  O_11
REMARK    2  A    between atoms: O_11  and  C_12
REMARK    3  A    between atoms: C_12  and  C_14
REMARK                            x       y       z     vdW  Elec       q    Type
REMARK                         _______ _______ _______ _____ _____    ______ ____
ROOT
ATOM      1  C   UNL     1      26.616  23.439  27.973  0.00  0.00    +0.000 C 
ATOM      2  C   UNL     1      26.726  24.275  26.707  0.00  0.00    +0.000 C 
ATOM      3  C   UNL     1      25.381  24.527  26.088  0.00  0.00    +0.000 C 
ATOM      4  C   UNL     1      27.394  25.589  27.140  0.00  0.00    +0.000 C 
ATOM      5  C   UNL     1      28.765  25.226  27.688  0.00  0.00    +0.000 C 
ATOM      6  C   UNL     1      29.610  24.501  26.682  0.00  0.00    +0.000 C 
ATOM      7  C   UNL     1      28.853  23.249  26.228  0.00  0.00    +0.000 C 
ATOM      8  C   UNL     1      28.707  22.275  27.393  0.00  0.00    +0.000 C 
ATOM      9  C   UNL     1      29.627  22.582  25.127  0.00  0.00    +0.000 C 
ATOM     10  N   UNL     1      27.593  23.691  25.748  0.00  0.00    +0.000 NA
ENDROOT
BRANCH  10  11
ATOM     11  O   UNL     1      27.030  22.972  24.774  0.00  0.00    +0.000 OA
BRANCH  11  12
ATOM     12  C   UNL     1      26.718  23.379  23.510  0.00  0.00    +0.000 C 
ATOM     13  O   UNL     1      25.711  22.865  22.961  0.00  0.00    +0.000 OA
BRANCH  12  14
ATOM     14  C   UNL     1      27.486  24.378  22.758  0.00  0.00    +0.000 A 
ATOM     15  C   UNL     1      28.513  24.021  21.911  0.00  0.00    +0.000 A 
ATOM     16  C   UNL     1      29.236  24.963  21.203  0.00  0.00    +0.000 A 
ATOM     17  C   UNL     1      28.952  26.308  21.322  0.00  0.00    +0.000 A 
ATOM     18  N   UNL     1      29.684  27.297  20.602  0.00  0.00    +0.000 NA
ATOM     19  C   UNL     1      27.926  26.685  22.167  0.00  0.00    +0.000 A 
ATOM     20  C   UNL     1      27.213  25.726  22.867  0.00  0.00    +0.000 A 
ENDBRANCH  12  14
ENDBRANCH  11  12
ENDBRANCH  10  11
TORSDOF 3
ENDMDL
MODEL 3
REMARK VINA RESULT:      -5.8     12.605     15.058
REMARK  Name = 
REMARK  3 active torsions:
REMARK  status: ('A' for Active; 'I' for Inactive)
REMARK    1  A    between atoms: N_10  and  O_11
REMARK    2  A    between atoms: O_11  and  C_12
REMARK    3  A    between atoms: C_12  and  C_14
REMARK                            x       y       z     vdW  Elec       q    Type
REMARK                         _______ _______ _______ _____ _____    ______ ____
ROOT
ATOM      1  C   UNL     1      28.002  27.682  21.357  0.00  0.00    +0.000 C 
ATOM      2  C   UNL     1      28.512  26.478  22.136  0.00  0.00    +0.000 C 
ATOM      3  C   UNL     1      28.937  25.365  21.222  0.00  0.00    +0.000 C 
ATOM      4  C   UNL     1      29.694  26.999  22.966  0.00  0.00    +0.000 C 
ATOM      5  C   UNL     1      29.143  28.068  23.894  0.00  0.00    +0.000 C 
ATOM      6  C   UNL     1      28.051  27.548  24.783  0.00  0.00    +0.000 C 
ATOM      7  C   UNL     1      26.944  26.968  23.898  0.00  0.00    +0.000 C 
ATOM      8  C   UNL     1      26.290  28.079  23.082  0.00  0.00    +0.000 C 
ATOM      9  C   UNL     1      25.904  26.327  24.773  0.00  0.00    +0.000 C 
ATOM     10  N   UNL     1      27.559  25.995  23.068  0.00  0.00    +0.000 NA
ENDROOT
BRANCH  10  11
ATOM     11  O   UNL     1      26.807  24.958  22.690  0.00  0.00    +0.000 OA
BRANCH  11  12
ATOM     12  C   UNL     1      26.845  23.681  23.169  0.00  0.00    +0.000 C 
ATOM     13  O   UNL     1      26.026  22.854  22.695  0.00  0.00    +0.000 OA
BRANCH  12  14
ATOM     14  C   UNL     1      27.781  23.221  24.200  0.00  0.00    +0.000 A 
ATOM     15  C   UNL     1      27.379  22.983  25.497  0.00  0.00    +0.000 A 
ATOM     16  C   UNL     1      28.263  22.549  26.467  0.00  0.00    +0.000 A 
ATOM     17  C   UNL     1      29.593  22.338  26.169  0.00  0.00    +0.000 A 
ATOM     18  N   UNL     1      30.523  21.891  27.152  0.00  0.00    +0.000 NA
ATOM     19  C   UNL     1      30.015  22.571  24.874  0.00  0.00    +0.000 A 
ATOM     20  C   UNL     1      29.114  23.005  23.916  0.00  0.00    +0.000 A 
ENDBRANCH  12  14
ENDBRANCH  11  12
ENDBRANCH  10  11
TORSDOF 3
ENDMDL
MODEL 4
REMARK VINA RESULT:      -5.7     13.427     16.604
REMARK  Name = 
REMARK  3 active torsions:
REMARK  status: ('A' for Active; 'I' for Inactive)
REMARK    1  A    between atoms: N_10  and  O_11
REMARK    2  A    between atoms: O_11  and  C_12
REMARK    3  A    between atoms: C_12  and  C_14
REMARK                            x       y       z     vdW  Elec       q    Type
REMARK                         _______ _______ _______ _____ _____    ______ ____
ROOT
ATOM      1  C   UNL     1      28.551  24.293  22.167  0.00  0.00    +0.000 C 
ATOM      2  C   UNL     1      28.829  24.617  23.628  0.00  0.00    +0.000 C 
ATOM      3  C   UNL     1      30.266  24.368  23.987  0.00  0.00    +0.000 C 
ATOM      4  C   UNL     1      28.463  26.099  23.795  0.00  0.00    +0.000 C 
ATOM      5  C   UNL     1      26.984  26.226  23.470  0.00  0.00    +0.000 C 
ATOM      6  C   UNL     1      26.128  25.360  24.347  0.00  0.00    +0.000 C 
ATOM      7  C   UNL     1      26.598  23.910  24.199  0.00  0.00    +0.000 C 
ATOM      8  C   UNL     1      26.332  23.416  22.780  0.00  0.00    +0.000 C 
ATOM      9  C   UNL     1      25.838  23.049  25.168  0.00  0.00    +0.000 C 
ATOM     10  N   UNL     1      27.982  23.900  24.511  0.00  0.00    +0.000 NA
ENDROOT
BRANCH  10  11
ATOM     11  O   UNL     1      28.473  22.784  25.056  0.00  0.00    +0.000 OA
BRANCH  11  12
ATOM     12  C   UNL     1      28.933  22.609  26.328  0.00  0.00    +0.000 C 
ATOM     13  O   UNL     1      30.063  22.080  26.474  0.00  0.00    +0.000 OA
BRANCH  12  14
ATOM     14  C   UNL     1      28.187  23.001  27.529  0.00  0.00    +0.000 A 
ATOM     15  C   UNL     1      27.636  22.068  28.381  0.00  0.00    +0.000 A 
ATOM     16  C   UNL     1      26.934  22.439  29.513  0.00  0.00    +0.000 A 
ATOM     17  C   UNL     1      26.757  23.769  29.833  0.00  0.00    +0.000 A 
ATOM     18  N   UNL     1      26.038  24.175  30.994  0.00  0.00    +0.000 NA
ATOM     19  C   UNL     1      27.304  24.719  28.990  0.00  0.00    +0.000 A 
ATOM     20  C   UNL     1      28.004  24.327  27.862  0.00  0.00    +0.000 A 
ENDBRANCH  12  14
ENDBRANCH  11  12
ENDBRANCH  10  11
TORSDOF 3
ENDMDL
MODEL 5
REMARK VINA RESULT:      -5.7     14.689     16.950
REMARK  Name = 
REMARK  3 active torsions:
REMARK  status: ('A' for Active; 'I' for Inactive)
REMARK    1  A    between atoms: N_10  and  O_11
REMARK    2  A    between atoms: O_11  and  C_12
REMARK    3  A    between atoms: C_12  and  C_14
REMARK                            x       y       z     vdW  Elec       q    Type
REMARK                         _______ _______ _______ _____ _____    ______ ____
ROOT
ATOM      1  C   UNL     1      28.263  24.542  27.549  0.00  0.00    +0.000 C 
ATOM      2  C   UNL     1      27.319  23.357  27.408  0.00  0.00    +0.000 C 
ATOM      3  C   UNL     1      28.059  22.051  27.438  0.00  0.00    +0.000 C 
ATOM      4  C   UNL     1      26.341  23.470  28.587  0.00  0.00    +0.000 C 
ATOM      5  C   UNL     1      25.605  24.789  28.423  0.00  0.00    +0.000 C 
ATOM      6  C   UNL     1      24.878  24.881  27.114  0.00  0.00    +0.000 C 
ATOM      7  C   UNL     1      25.892  24.676  25.984  0.00  0.00    +0.000 C 
ATOM      8  C   UNL     1      26.890  25.831  25.961  0.00  0.00    +0.000 C 
ATOM      9  C   UNL     1      25.160  24.635  24.672  0.00  0.00    +0.000 C 
ATOM     10  N   UNL     1      26.528  23.432  26.233  0.00  0.00    +0.000 NA
ENDROOT
BRANCH  10  11
ATOM     11  O   UNL     1      26.948  22.743  25.169  0.00  0.00    +0.000 OA
BRANCH  11  12
ATOM     12  C   UNL     1      27.755  23.179  24.158  0.00  0.00    +0.000 C 
ATOM     13  O   UNL     1      27.244  23.309  23.018  0.00  0.00    +0.000 OA
BRANCH  12  14
ATOM     14  C   UNL     1      29.176  23.501  24.325  0.00  0.00    +0.000 A 
ATOM     15  C   UNL     1      30.117  22.531  24.593  0.00  0.00    +0.000 A 
ATOM     16  C   UNL     1      31.456  22.837  24.750  0.00  0.00    +0.000 A 
ATOM     17  C   UNL     1      31.902  24.138  24.645  0.00  0.00    +0.000 A 
ATOM     18  N   UNL     1      33.277  24.477  24.803  0.00  0.00    +0.000 NA
ATOM     19  C   UNL     1      30.972  25.125  24.376  0.00  0.00    +0.000 A 
ATOM     20  C   UNL     1      29.636  24.798  24.222  0.00  0.00    +0.000 A 
ENDBRANCH  12  14
ENDBRANCH  11  12
ENDBRANCH  10  11
TORSDOF 3
ENDMDL
MODEL 6
REMARK VINA RESULT:      -5.6     14.545     17.517
REMARK  Name = 
REMARK  3 active torsions:
REMARK  status: ('A' for Active; 'I' for Inactive)
REMARK    1  A    between atoms: N_10  and  O_11
REMARK    2  A    between atoms: O_11  and  C_12
REMARK    3  A    between atoms: C_12  and  C_14
REMARK                            x       y       z     vdW  Elec       q    Type
REMARK                         _______ _______ _______ _____ _____    ______ ____
ROOT
ATOM      1  C   UNL     1      27.096  26.097  23.554  0.00  0.00    +0.000 C 
ATOM      2  C   UNL     1      26.780  25.731  24.997  0.00  0.00    +0.000 C 
ATOM      3  C   UNL     1      26.754  26.942  25.884  0.00  0.00    +0.000 C 
ATOM      4  C   UNL     1      25.407  25.044  24.953  0.00  0.00    +0.000 C 
ATOM      5  C   UNL     1      25.563  23.805  24.087  0.00  0.00    +0.000 C 
ATOM      6  C   UNL     1      26.614  22.869  24.607  0.00  0.00    +0.000 C 
ATOM      7  C   UNL     1      27.936  23.637  24.707  0.00  0.00    +0.000 C 
ATOM      8  C   UNL     1      28.418  24.033  23.314  0.00  0.00    +0.000 C 
ATOM      9  C   UNL     1      28.967  22.753  25.348  0.00  0.00    +0.000 C 
ATOM     10  N   UNL     1      27.684  24.772  25.521  0.00  0.00    +0.000 NA
ENDROOT
BRANCH  10  11
ATOM     11  O   UNL     1      28.701  25.229  26.255  0.00  0.00    +0.000 OA
BRANCH  11  12
ATOM     12  C   UNL     1      28.914  25.047  27.591  0.00  0.00    +0.000 C 
ATOM     13  O   UNL     1      29.855  25.687  28.125  0.00  0.00    +0.000 OA
BRANCH  12  14
ATOM     14  C   UNL     1      28.113  24.154  28.433  0.00  0.00    +0.000 A 
ATOM     15  C   UNL     1      26.757  24.334  28.605  0.00  0.00    +0.000 A 
ATOM     16  C   UNL     1      26.004  23.491  29.400  0.00  0.00    +0.000 A 
ATOM     17  C   UNL     1      26.588  22.428  30.057  0.00  0.00    +0.000 A 
ATOM     18  N   UNL     1      25.831  21.545  30.881  0.00  0.00    +0.000 NA
ATOM     19  C   UNL     1      27.946  22.231  29.896  0.00  0.00    +0.000 A 
ATOM     20  C   UNL     1      28.684  23.086  29.096  0.00  0.00    +0.000 A 
ENDBRANCH  12  14
ENDBRANCH  11  12
ENDBRANCH  10  11
TORSDOF 3
ENDMDL
MODEL 7
REMARK VINA RESULT:      -5.5     14.323     16.924
REMARK  Name = 
REMARK  3 active torsions:
REMARK  status: ('A' for Active; 'I' for Inactive)
REMARK    1  A    between atoms: N_10  and  O_11
REMARK    2  A    between atoms: O_11  and  C_12
REMARK    3  A    between atoms: C_12  and  C_14
REMARK                            x       y       z     vdW  Elec       q    Type
REMARK                         _______ _______ _______ _____ _____    ______ ____
ROOT
ATOM      1  C   UNL     1      28.693  25.444  24.954  0.00  0.00    +0.000 C 
ATOM      2  C   UNL     1      28.815  24.071  24.310  0.00  0.00    +0.000 C 
ATOM      3  C   UNL     1      27.648  23.772  23.414  0.00  0.00    +0.000 C 
ATOM      4  C   UNL     1      30.130  24.107  23.517  0.00  0.00    +0.000 C 
ATOM      5  C   UNL     1      31.244  24.350  24.522  0.00  0.00    +0.000 C 
ATOM      6  C   UNL     1      31.291  23.298  25.591  0.00  0.00    +0.000 C 
ATOM      7  C   UNL     1      29.926  23.255  26.285  0.00  0.00    +0.000 C 
ATOM      8  C   UNL     1      29.678  24.563  27.032  0.00  0.00    +0.000 C 
ATOM      9  C   UNL     1      29.915  22.120  27.270  0.00  0.00    +0.000 C 
ATOM     10  N   UNL     1      28.962  23.036  25.268  0.00  0.00    +0.000 NA
ENDROOT
BRANCH  10  11
ATOM     11  O   UNL     1      27.862  22.362  25.611  0.00  0.00    +0.000 OA
BRANCH  11  12
ATOM     12  C   UNL     1      26.654  22.873  25.988  0.00  0.00    +0.000 C 
ATOM     13  O   UNL     1      25.728  22.874  25.138  0.00  0.00    +0.000 OA
BRANCH  12  14
ATOM     14  C   UNL     1      26.375  23.418  27.321  0.00  0.00    +0.000 A 
ATOM     15  C   UNL     1      25.740  24.629  27.495  0.00  0.00    +0.000 A 
ATOM     16  C   UNL     1      25.479  25.141  28.753  0.00  0.00    +0.000 A 
ATOM     17  C   UNL     1      25.849  24.452  29.889  0.00  0.00    +0.000 A 
ATOM     18  N   UNL     1      25.589  24.960  31.194  0.00  0.00    +0.000 NA
ATOM     19  C   UNL     1      26.486  23.236  29.733  0.00  0.00    +0.000 A 
ATOM     20  C   UNL     1      26.739  22.740  28.466  0.00  0.00    +0.000 A 
ENDBRANCH  12  14
ENDBRANCH  11  12
ENDBRANCH  10  11
TORSDOF 3
ENDMDL
MODEL 8
REMARK VINA RESULT:      -5.5     32.101     34.582
REMARK  Name = 
REMARK  3 active torsions:
REMARK  status: ('A' for Active; 'I' for Inactive)
REMARK    1  A    between atoms: N_10  and  O_11
REMARK    2  A    between atoms: O_11  and  C_12
REMARK    3  A    between atoms: C_12  and  C_14
REMARK                            x       y       z     vdW  Elec       q    Type
REMARK                         _______ _______ _______ _____ _____    ______ ____
ROOT
ATOM      1  C   UNL     1      19.758   9.620  41.590  0.00  0.00    +0.000 C 
ATOM      2  C   UNL     1      19.311   9.042  40.256  0.00  0.00    +0.000 C 
ATOM      3  C   UNL     1      20.090   9.620  39.110  0.00  0.00    +0.000 C 
ATOM      4  C   UNL     1      19.534   7.526  40.371  0.00  0.00    +0.000 C 
ATOM      5  C   UNL     1      18.656   7.038  41.511  0.00  0.00    +0.000 C 
ATOM      6  C   UNL     1      17.205   7.350  41.292  0.00  0.00    +0.000 C 
ATOM      7  C   UNL     1      17.061   8.863  41.099  0.00  0.00    +0.000 C 
ATOM      8  C   UNL     1      17.429   9.592  42.389  0.00  0.00    +0.000 C 
ATOM      9  C   UNL     1      15.634   9.178  40.750  0.00  0.00    +0.000 C 
ATOM     10  N   UNL     1      17.922   9.218  40.028  0.00  0.00    +0.000 NA
ENDROOT
BRANCH  10  11
ATOM     11  O   UNL     1      17.554  10.256  39.274  0.00  0.00    +0.000 OA
BRANCH  11  12
ATOM     12  C   UNL     1      17.091  10.233  37.991  0.00  0.00    +0.000 C 
ATOM     13  O   UNL     1      17.680   9.484  37.171  0.00  0.00    +0.000 OA
BRANCH  12  14
ATOM     14  C   UNL     1      15.953  11.027  37.515  0.00  0.00    +0.000 A 
ATOM     15  C   UNL     1      16.052  11.859  36.421  0.00  0.00    +0.000 A 
ATOM     16  C   UNL     1      14.978  12.607  35.974  0.00  0.00    +0.000 A 
ATOM     17  C   UNL     1      13.758  12.547  36.615  0.00  0.00    +0.000 A 
ATOM     18  N   UNL     1      12.638  13.308  36.173  0.00  0.00    +0.000 NA
ATOM     19  C   UNL     1      13.641  11.717  37.715  0.00  0.00    +0.000 A 
ATOM     20  C   UNL     1      14.727  10.976  38.146  0.00  0.00    +0.000 A 
ENDBRANCH  12  14
ENDBRANCH  11  12
ENDBRANCH  10  11
TORSDOF 3
ENDMDL
MODEL 9
REMARK VINA RESULT:      -5.5     34.602     35.523
REMARK  Name = 
REMARK  3 active torsions:
REMARK  status: ('A' for Active; 'I' for Inactive)
REMARK    1  A    between atoms: N_10  and  O_11
REMARK    2  A    between atoms: O_11  and  C_12
REMARK    3  A    between atoms: C_12  and  C_14
REMARK                            x       y       z     vdW  Elec       q    Type
REMARK                         _______ _______ _______ _____ _____    ______ ____
ROOT
ATOM      1  C   UNL     1      34.605  -8.223  30.548  0.00  0.00    +0.000 C 
ATOM      2  C   UNL     1      34.564  -6.979  31.423  0.00  0.00    +0.000 C 
ATOM      3  C   UNL     1      35.433  -7.126  32.639  0.00  0.00    +0.000 C 
ATOM      4  C   UNL     1      35.053  -5.832  30.525  0.00  0.00    +0.000 C 
ATOM      5  C   UNL     1      34.073  -5.731  29.369  0.00  0.00    +0.000 C 
ATOM      6  C   UNL     1      32.665  -5.489  29.829  0.00  0.00    +0.000 C 
ATOM      7  C   UNL     1      32.269  -6.619  30.784  0.00  0.00    +0.000 C 
ATOM      8  C   UNL     1      32.213  -7.945  30.031  0.00  0.00    +0.000 C 
ATOM      9  C   UNL     1      30.911  -6.323  31.355  0.00  0.00    +0.000 C 
ATOM     10  N   UNL     1      33.245  -6.637  31.815  0.00  0.00    +0.000 NA
ENDROOT
BRANCH  10  11
ATOM     11  O   UNL     1      32.843  -7.041  33.022  0.00  0.00    +0.000 OA
BRANCH  11  12
ATOM     12  C   UNL     1      32.863  -6.333  34.188  0.00  0.00    +0.000 C 
ATOM     13  O   UNL     1      32.924  -6.980  35.264  0.00  0.00    +0.000 OA
BRANCH  12  14
ATOM     14  C   UNL     1      32.819  -4.869  34.258  0.00  0.00    +0.000 A 
ATOM     15  C   UNL     1      33.548  -4.075  33.398  0.00  0.00    +0.000 A 
ATOM     16  C   UNL     1      33.504  -2.695  33.466  0.00  0.00    +0.000 A 
ATOM     17  C   UNL     1      32.723  -2.056  34.406  0.00  0.00    +0.000 A 
ATOM     18  N   UNL     1      32.662  -0.636  34.494  0.00  0.00    +0.000 NA
ATOM     19  C   UNL     1      31.984  -2.836  35.276  0.00  0.00    +0.000 A 
ATOM     20  C   UNL     1      32.041  -4.217  35.193  0.00  0.00    +0.000 A 
ENDBRANCH  12  14
ENDBRANCH  11  12
ENDBRANCH  10  11
TORSDOF 3
ENDMDL
MODEL 10
REMARK VINA RESULT:      -5.5     14.399     18.312
REMARK  Name = 
REMARK  3 active torsions:
REMARK  status: ('A' for Active; 'I' for Inactive)
REMARK    1  A    between atoms: N_10  and  O_11
REMARK    2  A    between atoms: O_11  and  C_12
REMARK    3  A    between atoms: C_12  and  C_14
REMARK                            x       y       z     vdW  Elec       q    Type
REMARK                         _______ _______ _______ _____ _____    ______ ____
ROOT
ATOM      1  C   UNL     1      27.769  24.189  30.962  0.00  0.00    +0.000 C 
ATOM      2  C   UNL     1      27.368  23.600  29.617  0.00  0.00    +0.000 C 
ATOM      3  C   UNL     1      27.407  22.099  29.634  0.00  0.00    +0.000 C 
ATOM      4  C   UNL     1      25.946  24.116  29.352  0.00  0.00    +0.000 C 
ATOM      5  C   UNL     1      26.032  25.632  29.292  0.00  0.00    +0.000 C 
ATOM      6  C   UNL     1      26.982  26.110  28.233  0.00  0.00    +0.000 C 
ATOM      7  C   UNL     1      28.357  25.494  28.505  0.00  0.00    +0.000 C 
ATOM      8  C   UNL     1      28.924  26.037  29.814  0.00  0.00    +0.000 C 
ATOM      9  C   UNL     1      29.287  25.859  27.382  0.00  0.00    +0.000 C 
ATOM     10  N   UNL     1      28.168  24.089  28.553  0.00  0.00    +0.000 NA
ENDROOT
BRANCH  10  11
ATOM     11  O   UNL     1      29.190  23.326  28.158  0.00  0.00    +0.000 OA
BRANCH  11  12
ATOM     12  C   UNL     1      29.284  22.580  27.019  0.00  0.00    +0.000 C 
ATOM     13  O   UNL     1      30.149  21.670  26.986  0.00  0.00    +0.000 OA
BRANCH  12  14
ATOM     14  C   UNL     1      28.437  22.780  25.838  0.00  0.00    +0.000 A 
ATOM     15  C   UNL     1      28.970  23.059  24.598  0.00  0.00    +0.000 A 
ATOM     16  C   UNL     1      28.170  23.246  23.486  0.00  0.00    +0.000 A 
ATOM     17  C   UNL     1      26.796  23.161  23.579  0.00  0.00    +0.000 A 
ATOM     18  N   UNL     1      25.952  23.350  22.447  0.00  0.00    +0.000 NA
ATOM     19  C   UNL     1      26.244  22.881  24.815  0.00  0.00    +0.000 A 
ATOM     20  C   UNL     1      27.062  22.697  25.917  0.00  0.00    +0.000 A 
ENDBRANCH  12  14
ENDBRANCH  11  12
ENDBRANCH  10  11
TORSDOF 3
ENDMDL
