MODEL 1
REMARK VINA RESULT:      -8.1      0.000      0.000
REMARK  Name = 
REMARK  3 active torsions:
REMARK  status: ('A' for Active; 'I' for Inactive)
REMARK    1  A    between atoms: C_4  and  C_5
REMARK    2  A    between atoms: C_11  and  C_12
REMARK    3  A    between atoms: N_17  and  C_18
REMARK                            x       y       z     vdW  Elec       q    Type
REMARK                         _______ _______ _______ _____ _____    ______ ____
ROOT
ATOM      1  C   UNL     1      27.168  24.117  26.234  0.00  0.00    +0.000 C 
ATOM      2  O   UNL     1      26.746  25.233  26.036  0.00  0.00    +0.000 OA
ATOM      3  N   UNL     1      27.873  23.716  27.371  0.00  0.00    +0.000 N 
ATOM      4  C   UNL     1      28.218  24.533  28.487  0.00  0.00    +0.000 C 
ATOM      5  C   UNL     1      29.542  24.254  29.106  0.00  0.00    +0.000 C 
ATOM      6  N   UNL     1      30.195  23.069  28.689  0.00  0.00    +0.000 N 
ATOM      7  C   UNL     1      29.835  22.441  27.433  0.00  0.00    +0.000 C 
ATOM      8  C   UNL     1      28.323  22.312  27.466  0.00  0.00    +0.000 C 
ENDROOT
BRANCH   6   9
ATOM      9  C   UNL     1      31.211  22.470  29.484  0.00  0.00    +0.000 A 
ATOM     10  C   UNL     1      32.474  22.204  28.994  0.00  0.00    +0.000 A 
ATOM     11  C   UNL     1      33.488  21.626  29.729  0.00  0.00    +0.000 A 
ATOM     12  C   UNL     1      33.231  21.291  31.034  0.00  0.00    +0.000 A 
ATOM     13  C   UNL     1      31.978  21.544  31.558  0.00  0.00    +0.000 A 
ATOM     14  C   UNL     1      31.790  21.145  32.988  0.00  0.00    +0.000 C 
ATOM     15  C   UNL     1      30.983  22.118  30.815  0.00  0.00    +0.000 A 
ATOM     16  C   UNL     1      29.659  22.372  31.405  0.00  0.00    +0.000 C 
ENDBRANCH   6   9
BRANCH   1  23
ATOM     17  C   UNL     1      28.671  24.437  23.716  0.00  0.00    +0.000 C 
ATOM     18  O   UNL     1      29.462  24.624  24.655  0.00  0.00    +0.000 OA
ATOM     19  N   UNL     1      27.486  23.745  23.844  0.00  0.00    +0.000 N 
ATOM     20  C   UNL     1      26.499  23.447  22.803  0.00  0.00    +0.000 C 
ATOM     21  C   UNL     1      25.209  23.115  23.455  0.00  0.00    +0.000 C 
ATOM     22  C   UNL     1      25.333  23.691  24.820  0.00  0.00    +0.000 C 
ATOM     23  C   UNL     1      26.875  23.063  25.088  0.00  0.00    +0.000 C 
BRANCH  17  27
ATOM     24  C   UNL     1      29.553  27.371  19.699  0.00  0.00    +0.000 C 
ATOM     25  C   UNL     1      29.418  26.253  20.667  0.00  0.00    +0.000 A 
ATOM     26  C   UNL     1      28.948  26.282  21.963  0.00  0.00    +0.000 A 
ATOM     27  C   UNL     1      29.030  24.984  22.422  0.00  0.00    +0.000 A 
ATOM     28  N   UNL     1      29.529  24.234  21.430  0.00  0.00    +0.000 NA
ATOM     29  N   UNL     1      29.768  24.989  20.366  0.00  0.00    +0.000 NA
ENDBRANCH  17  27
ENDBRANCH   1  23
TORSDOF 3
ENDMDL
MODEL 2
REMARK VINA RESULT:      -8.0     24.939     28.183
REMARK  Name = 
REMARK  3 active torsions:
REMARK  status: ('A' for Active; 'I' for Inactive)
REMARK    1  A    between atoms: C_4  and  C_5
REMARK    2  A    between atoms: C_11  and  C_12
REMARK    3  A    between atoms: N_17  and  C_18
REMARK                            x       y       z     vdW  Elec       q    Type
REMARK                         _______ _______ _______ _____ _____    ______ ____
ROOT
ATOM      1  C   UNL     1      33.825  -4.067  35.414  0.00  0.00    +0.000 C 
ATOM      2  O   UNL     1      32.922  -4.854  35.582  0.00  0.00    +0.000 OA
ATOM      3  N   UNL     1      33.751  -2.694  35.658  0.00  0.00    +0.000 N 
ATOM      4  C   UNL     1      32.616  -1.981  36.144  0.00  0.00    +0.000 C 
ATOM      5  C   UNL     1      32.424  -0.616  35.580  0.00  0.00    +0.000 C 
ATOM      6  N   UNL     1      33.500  -0.088  34.828  0.00  0.00    +0.000 N 
ATOM      7  C   UNL     1      34.497  -0.973  34.258  0.00  0.00    +0.000 C 
ATOM      8  C   UNL     1      34.945  -1.864  35.403  0.00  0.00    +0.000 C 
ENDROOT
BRANCH   6   9
ATOM      9  C   UNL     1      33.631   1.313  34.615  0.00  0.00    +0.000 A 
ATOM     10  C   UNL     1      33.466   1.891  33.372  0.00  0.00    +0.000 A 
ATOM     11  C   UNL     1      33.583   3.242  33.121  0.00  0.00    +0.000 A 
ATOM     12  C   UNL     1      33.882   4.071  34.171  0.00  0.00    +0.000 A 
ATOM     13  C   UNL     1      34.053   3.528  35.429  0.00  0.00    +0.000 A 
ATOM     14  C   UNL     1      34.377   4.509  36.512  0.00  0.00    +0.000 C 
ATOM     15  C   UNL     1      33.934   2.185  35.661  0.00  0.00    +0.000 A 
ATOM     16  C   UNL     1      34.123   1.639  37.015  0.00  0.00    +0.000 C 
ENDBRANCH   6   9
BRANCH   1  23
ATOM     17  C   UNL     1      33.923  -4.750  32.545  0.00  0.00    +0.000 C 
ATOM     18  O   UNL     1      33.359  -3.647  32.653  0.00  0.00    +0.000 OA
ATOM     19  N   UNL     1      34.753  -5.279  33.511  0.00  0.00    +0.000 N 
ATOM     20  C   UNL     1      35.483  -6.549  33.473  0.00  0.00    +0.000 C 
ATOM     21  C   UNL     1      35.850  -6.923  34.859  0.00  0.00    +0.000 C 
ATOM     22  C   UNL     1      34.923  -6.130  35.709  0.00  0.00    +0.000 C 
ATOM     23  C   UNL     1      35.179  -4.688  34.872  0.00  0.00    +0.000 C 
BRANCH  17  27
ATOM     24  C   UNL     1      34.064  -6.818  27.938  0.00  0.00    +0.000 C 
ATOM     25  C   UNL     1      33.733  -6.413  29.328  0.00  0.00    +0.000 A 
ATOM     26  C   UNL     1      34.392  -5.523  30.150  0.00  0.00    +0.000 A 
ATOM     27  C   UNL     1      33.682  -5.506  31.332  0.00  0.00    +0.000 A 
ATOM     28  N   UNL     1      32.652  -6.353  31.198  0.00  0.00    +0.000 NA
ATOM     29  N   UNL     1      32.673  -6.907  29.993  0.00  0.00    +0.000 NA
ENDBRANCH  17  27
ENDBRANCH   1  23
TORSDOF 3
ENDMDL
MODEL 3
REMARK VINA RESULT:      -7.9      0.556      1.443
REMARK  Name = 
REMARK  3 active torsions:
REMARK  status: ('A' for Active; 'I' for Inactive)
REMARK    1  A    between atoms: C_4  and  C_5
REMARK    2  A    between atoms: C_11  and  C_12
REMARK    3  A    between atoms: N_17  and  C_18
REMARK                            x       y       z     vdW  Elec       q    Type
REMARK                         _______ _______ _______ _____ _____    ______ ____
ROOT
ATOM      1  C   UNL     1      27.073  24.304  26.271  0.00  0.00    +0.000 C 
ATOM      2  O   UNL     1      26.764  25.425  25.941  0.00  0.00    +0.000 OA
ATOM      3  N   UNL     1      27.607  23.950  27.512  0.00  0.00    +0.000 N 
ATOM      4  C   UNL     1      27.881  24.832  28.598  0.00  0.00    +0.000 C 
ATOM      5  C   UNL     1      29.099  24.515  29.394  0.00  0.00    +0.000 C 
ATOM      6  N   UNL     1      29.703  23.259  29.148  0.00  0.00    +0.000 N 
ATOM      7  C   UNL     1      29.444  22.555  27.908  0.00  0.00    +0.000 C 
ATOM      8  C   UNL     1      27.933  22.532  27.765  0.00  0.00    +0.000 C 
ENDROOT
BRANCH   6   9
ATOM      9  C   UNL     1      30.570  22.661  30.104  0.00  0.00    +0.000 A 
ATOM     10  C   UNL     1      30.107  22.126  31.290  0.00  0.00    +0.000 A 
ATOM     11  C   UNL     1      30.911  21.537  32.244  0.00  0.00    +0.000 A 
ATOM     12  C   UNL     1      32.260  21.474  32.004  0.00  0.00    +0.000 A 
ATOM     13  C   UNL     1      32.758  21.999  30.827  0.00  0.00    +0.000 A 
ATOM     14  C   UNL     1      34.240  21.887  30.653  0.00  0.00    +0.000 C 
ATOM     15  C   UNL     1      31.947  22.581  29.891  0.00  0.00    +0.000 A 
ATOM     16  C   UNL     1      32.511  23.131  28.648  0.00  0.00    +0.000 C 
ENDBRANCH   6   9
BRANCH   1  23
ATOM     17  C   UNL     1      28.644  24.513  23.783  0.00  0.00    +0.000 C 
ATOM     18  O   UNL     1      29.403  24.770  24.733  0.00  0.00    +0.000 OA
ATOM     19  N   UNL     1      27.470  23.804  23.916  0.00  0.00    +0.000 N 
ATOM     20  C   UNL     1      26.521  23.428  22.865  0.00  0.00    +0.000 C 
ATOM     21  C   UNL     1      25.219  23.106  23.497  0.00  0.00    +0.000 C 
ATOM     22  C   UNL     1      25.290  23.760  24.831  0.00  0.00    +0.000 C 
ATOM     23  C   UNL     1      26.836  23.181  25.179  0.00  0.00    +0.000 C 
BRANCH  17  27
ATOM     24  C   UNL     1      29.668  27.252  19.663  0.00  0.00    +0.000 C 
ATOM     25  C   UNL     1      29.481  26.178  20.672  0.00  0.00    +0.000 A 
ATOM     26  C   UNL     1      29.008  26.277  21.963  0.00  0.00    +0.000 A 
ATOM     27  C   UNL     1      29.032  24.995  22.472  0.00  0.00    +0.000 A 
ATOM     28  N   UNL     1      29.501  24.187  21.512  0.00  0.00    +0.000 NA
ATOM     29  N   UNL     1      29.776  24.889  20.421  0.00  0.00    +0.000 NA
ENDBRANCH  17  27
ENDBRANCH   1  23
TORSDOF 3
ENDMDL
MODEL 4
REMARK VINA RESULT:      -6.9      2.327      8.467
REMARK  Name = 
REMARK  3 active torsions:
REMARK  status: ('A' for Active; 'I' for Inactive)
REMARK    1  A    between atoms: C_4  and  C_5
REMARK    2  A    between atoms: C_11  and  C_12
REMARK    3  A    between atoms: N_17  and  C_18
REMARK                            x       y       z     vdW  Elec       q    Type
REMARK                         _______ _______ _______ _____ _____    ______ ____
ROOT
ATOM      1  C   UNL     1      26.554  24.303  29.148  0.00  0.00    +0.000 C 
ATOM      2  O   UNL     1      26.007  23.397  29.733  0.00  0.00    +0.000 OA
ATOM      3  N   UNL     1      26.444  24.557  27.779  0.00  0.00    +0.000 N 
ATOM      4  C   UNL     1      25.680  23.808  26.837  0.00  0.00    +0.000 C 
ATOM      5  C   UNL     1      26.285  23.666  25.484  0.00  0.00    +0.000 C 
ATOM      6  N   UNL     1      27.409  24.480  25.208  0.00  0.00    +0.000 N 
ATOM      7  C   UNL     1      28.188  25.043  26.294  0.00  0.00    +0.000 C 
ATOM      8  C   UNL     1      27.177  25.707  27.211  0.00  0.00    +0.000 C 
ENDROOT
BRANCH   6   9
ATOM      9  C   UNL     1      27.800  24.765  23.870  0.00  0.00    +0.000 A 
ATOM     10  C   UNL     1      28.652  23.945  23.157  0.00  0.00    +0.000 A 
ATOM     11  C   UNL     1      29.056  24.182  21.860  0.00  0.00    +0.000 A 
ATOM     12  C   UNL     1      28.583  25.306  21.231  0.00  0.00    +0.000 A 
ATOM     13  C   UNL     1      27.729  26.149  21.914  0.00  0.00    +0.000 A 
ATOM     14  C   UNL     1      27.267  27.349  21.149  0.00  0.00    +0.000 C 
ATOM     15  C   UNL     1      27.338  25.899  23.201  0.00  0.00    +0.000 A 
ATOM     16  C   UNL     1      26.426  26.820  23.900  0.00  0.00    +0.000 C 
ENDBRANCH   6   9
BRANCH   1  23
ATOM     17  C   UNL     1      29.203  23.268  29.930  0.00  0.00    +0.000 C 
ATOM     18  O   UNL     1      29.023  22.981  28.734  0.00  0.00    +0.000 OA
ATOM     19  N   UNL     1      28.527  24.276  30.582  0.00  0.00    +0.000 N 
ATOM     20  C   UNL     1      28.680  24.711  31.974  0.00  0.00    +0.000 C 
ATOM     21  C   UNL     1      27.470  25.469  32.368  0.00  0.00    +0.000 C 
ATOM     22  C   UNL     1      26.441  25.053  31.378  0.00  0.00    +0.000 C 
ATOM     23  C   UNL     1      27.455  25.249  30.044  0.00  0.00    +0.000 C 
BRANCH  17  27
ATOM     24  C   UNL     1      33.353  20.938  31.626  0.00  0.00    +0.000 C 
ATOM     25  C   UNL     1      31.982  21.468  31.410  0.00  0.00    +0.000 A 
ATOM     26  C   UNL     1      31.523  22.293  30.405  0.00  0.00    +0.000 A 
ATOM     27  C   UNL     1      30.182  22.487  30.662  0.00  0.00    +0.000 A 
ATOM     28  N   UNL     1      29.878  21.802  31.773  0.00  0.00    +0.000 NA
ATOM     29  N   UNL     1      30.958  21.183  32.234  0.00  0.00    +0.000 NA
ENDBRANCH  17  27
ENDBRANCH   1  23
TORSDOF 3
ENDMDL
MODEL 5
REMARK VINA RESULT:      -6.9      3.888      7.840
REMARK  Name = 
REMARK  3 active torsions:
REMARK  status: ('A' for Active; 'I' for Inactive)
REMARK    1  A    between atoms: C_4  and  C_5
REMARK    2  A    between atoms: C_11  and  C_12
REMARK    3  A    between atoms: N_17  and  C_18
REMARK                            x       y       z     vdW  Elec       q    Type
REMARK                         _______ _______ _______ _____ _____    ______ ____
ROOT
ATOM      1  C   UNL     1      26.958  25.898  24.411  0.00  0.00    +0.000 C 
ATOM      2  O   UNL     1      27.913  26.597  24.164  0.00  0.00    +0.000 OA
ATOM      3  N   UNL     1      25.762  26.343  24.978  0.00  0.00    +0.000 N 
ATOM      4  C   UNL     1      25.453  27.681  25.362  0.00  0.00    +0.000 C 
ATOM      5  C   UNL     1      24.626  27.823  26.592  0.00  0.00    +0.000 C 
ATOM      6  N   UNL     1      24.039  26.639  27.097  0.00  0.00    +0.000 N 
ATOM      7  C   UNL     1      24.579  25.343  26.733  0.00  0.00    +0.000 C 
ATOM      8  C   UNL     1      24.684  25.363  25.218  0.00  0.00    +0.000 C 
ENDROOT
BRANCH   6   9
ATOM      9  C   UNL     1      22.913  26.689  27.965  0.00  0.00    +0.000 A 
ATOM     10  C   UNL     1      23.040  26.808  29.335  0.00  0.00    +0.000 A 
ATOM     11  C   UNL     1      21.977  26.860  30.212  0.00  0.00    +0.000 A 
ATOM     12  C   UNL     1      20.708  26.790  29.697  0.00  0.00    +0.000 A 
ATOM     13  C   UNL     1      20.544  26.670  28.331  0.00  0.00    +0.000 A 
ATOM     14  C   UNL     1      19.125  26.600  27.860  0.00  0.00    +0.000 C 
ATOM     15  C   UNL     1      21.609  26.620  27.473  0.00  0.00    +0.000 A 
ATOM     16  C   UNL     1      21.397  26.492  26.022  0.00  0.00    +0.000 C 
ENDBRANCH   6   9
BRANCH   1  23
ATOM     17  C   UNL     1      28.618  24.268  26.226  0.00  0.00    +0.000 C 
ATOM     18  O   UNL     1      27.905  25.008  26.926  0.00  0.00    +0.000 OA
ATOM     19  N   UNL     1      28.324  23.941  24.920  0.00  0.00    +0.000 N 
ATOM     20  C   UNL     1      29.077  23.064  24.019  0.00  0.00    +0.000 C 
ATOM     21  C   UNL     1      28.680  23.367  22.624  0.00  0.00    +0.000 C 
ATOM     22  C   UNL     1      28.076  24.723  22.703  0.00  0.00    +0.000 C 
ATOM     23  C   UNL     1      27.123  24.365  24.047  0.00  0.00    +0.000 C 
BRANCH  17  27
ATOM     24  C   UNL     1      32.055  21.558  28.749  0.00  0.00    +0.000 C 
ATOM     25  C   UNL     1      31.325  22.559  27.929  0.00  0.00    +0.000 A 
ATOM     26  C   UNL     1      29.982  22.609  27.619  0.00  0.00    +0.000 A 
ATOM     27  C   UNL     1      29.820  23.731  26.834  0.00  0.00    +0.000 A 
ATOM     28  N   UNL     1      31.022  24.307  26.695  0.00  0.00    +0.000 NA
ATOM     29  N   UNL     1      31.938  23.607  27.351  0.00  0.00    +0.000 NA
ENDBRANCH  17  27
ENDBRANCH   1  23
TORSDOF 3
ENDMDL
MODEL 6
REMARK VINA RESULT:      -6.8      1.792      8.552
REMARK  Name = 
REMARK  3 active torsions:
REMARK  status: ('A' for Active; 'I' for Inactive)
REMARK    1  A    between atoms: C_4  and  C_5
REMARK    2  A    between atoms: C_11  and  C_12
REMARK    3  A    between atoms: N_17  and  C_18
REMARK                            x       y       z     vdW  Elec       q    Type
REMARK                         _______ _______ _______ _____ _____    ______ ____
ROOT
ATOM      1  C   UNL     1      26.841  23.962  25.453  0.00  0.00    +0.000 C 
ATOM      2  O   UNL     1      26.748  22.771  25.639  0.00  0.00    +0.000 OA
ATOM      3  N   UNL     1      26.840  24.581  24.201  0.00  0.00    +0.000 N 
ATOM      4  C   UNL     1      26.731  23.934  22.936  0.00  0.00    +0.000 C 
ATOM      5  C   UNL     1      27.533  24.533  21.834  0.00  0.00    +0.000 C 
ATOM      6  N   UNL     1      28.110  25.800  22.091  0.00  0.00    +0.000 N 
ATOM      7  C   UNL     1      28.302  26.250  23.456  0.00  0.00    +0.000 C 
ATOM      8  C   UNL     1      26.961  26.052  24.138  0.00  0.00    +0.000 C 
ENDROOT
BRANCH   6   9
ATOM      9  C   UNL     1      28.510  26.656  21.028  0.00  0.00    +0.000 A 
ATOM     10  C   UNL     1      29.683  26.464  20.325  0.00  0.00    +0.000 A 
ATOM     11  C   UNL     1      30.109  27.268  19.289  0.00  0.00    +0.000 A 
ATOM     12  C   UNL     1      29.319  28.329  18.927  0.00  0.00    +0.000 A 
ATOM     13  C   UNL     1      28.138  28.551  19.607  0.00  0.00    +0.000 A 
ATOM     14  C   UNL     1      27.343  29.731  19.143  0.00  0.00    +0.000 C 
ATOM     15  C   UNL     1      27.730  27.744  20.634  0.00  0.00    +0.000 A 
ATOM     16  C   UNL     1      26.465  28.009  21.338  0.00  0.00    +0.000 C 
ENDBRANCH   6   9
BRANCH   1  23
ATOM     17  C   UNL     1      29.481  24.014  26.768  0.00  0.00    +0.000 C 
ATOM     18  O   UNL     1      29.667  24.094  25.541  0.00  0.00    +0.000 OA
ATOM     19  N   UNL     1      28.289  24.335  27.380  0.00  0.00    +0.000 N 
ATOM     20  C   UNL     1      27.973  24.300  28.811  0.00  0.00    +0.000 C 
ATOM     21  C   UNL     1      26.500  24.263  28.968  0.00  0.00    +0.000 C 
ATOM     22  C   UNL     1      26.004  23.791  27.648  0.00  0.00    +0.000 C 
ATOM     23  C   UNL     1      26.972  24.849  26.759  0.00  0.00    +0.000 C 
BRANCH  17  27
ATOM     24  C   UNL     1      32.883  21.332  29.369  0.00  0.00    +0.000 C 
ATOM     25  C   UNL     1      32.076  22.396  28.717  0.00  0.00    +0.000 A 
ATOM     26  C   UNL     1      30.946  22.270  27.938  0.00  0.00    +0.000 A 
ATOM     27  C   UNL     1      30.590  23.554  27.581  0.00  0.00    +0.000 A 
ATOM     28  N   UNL     1      31.480  24.390  28.132  0.00  0.00    +0.000 NA
ATOM     29  N   UNL     1      32.383  23.702  28.819  0.00  0.00    +0.000 NA
ENDBRANCH  17  27
ENDBRANCH   1  23
TORSDOF 3
ENDMDL
MODEL 7
REMARK VINA RESULT:      -6.8     24.706     27.926
REMARK  Name = 
REMARK  3 active torsions:
REMARK  status: ('A' for Active; 'I' for Inactive)
REMARK    1  A    between atoms: C_4  and  C_5
REMARK    2  A    between atoms: C_11  and  C_12
REMARK    3  A    between atoms: N_17  and  C_18
REMARK                            x       y       z     vdW  Elec       q    Type
REMARK                         _______ _______ _______ _____ _____    ______ ____
ROOT
ATOM      1  C   UNL     1      17.415   7.068  42.187  0.00  0.00    +0.000 C 
ATOM      2  O   UNL     1      16.323   7.133  41.672  0.00  0.00    +0.000 OA
ATOM      3  N   UNL     1      18.549   6.506  41.595  0.00  0.00    +0.000 N 
ATOM      4  C   UNL     1      18.625   5.918  40.299  0.00  0.00    +0.000 C 
ATOM      5  C   UNL     1      19.519   4.734  40.180  0.00  0.00    +0.000 C 
ATOM      6  N   UNL     1      20.372   4.476  41.279  0.00  0.00    +0.000 N 
ATOM      7  C   UNL     1      20.064   5.022  42.586  0.00  0.00    +0.000 C 
ATOM      8  C   UNL     1      19.815   6.502  42.355  0.00  0.00    +0.000 C 
ENDROOT
BRANCH   6   9
ATOM      9  C   UNL     1      21.543   3.681  41.131  0.00  0.00    +0.000 A 
ATOM     10  C   UNL     1      21.517   2.303  41.211  0.00  0.00    +0.000 A 
ATOM     11  C   UNL     1      22.626   1.494  41.074  0.00  0.00    +0.000 A 
ATOM     12  C   UNL     1      23.838   2.093  40.841  0.00  0.00    +0.000 A 
ATOM     13  C   UNL     1      23.901   3.470  40.755  0.00  0.00    +0.000 A 
ATOM     14  C   UNL     1      25.264   4.033  40.501  0.00  0.00    +0.000 C 
ATOM     15  C   UNL     1      22.791   4.258  40.894  0.00  0.00    +0.000 A 
ATOM     16  C   UNL     1      22.895   5.723  40.796  0.00  0.00    +0.000 C 
ENDBRANCH   6   9
BRANCH   1  23
ATOM     17  C   UNL     1      16.376   5.416  44.400  0.00  0.00    +0.000 C 
ATOM     18  O   UNL     1      17.009   4.669  43.634  0.00  0.00    +0.000 OA
ATOM     19  N   UNL     1      16.556   6.782  44.452  0.00  0.00    +0.000 N 
ATOM     20  C   UNL     1      15.886   7.746  45.329  0.00  0.00    +0.000 C 
ATOM     21  C   UNL     1      16.026   9.098  44.738  0.00  0.00    +0.000 C 
ATOM     22  C   UNL     1      16.346   8.840  43.309  0.00  0.00    +0.000 C 
ATOM     23  C   UNL     1      17.520   7.678  43.645  0.00  0.00    +0.000 C 
BRANCH  17  27
ATOM     24  C   UNL     1      12.199   3.653  46.629  0.00  0.00    +0.000 C 
ATOM     25  C   UNL     1      13.587   4.028  46.256  0.00  0.00    +0.000 A 
ATOM     26  C   UNL     1      14.029   4.717  45.146  0.00  0.00    +0.000 A 
ATOM     27  C   UNL     1      15.399   4.800  45.276  0.00  0.00    +0.000 A 
ATOM     28  N   UNL     1      15.737   4.183  46.417  0.00  0.00    +0.000 NA
ATOM     29  N   UNL     1      14.651   3.712  47.017  0.00  0.00    +0.000 NA
ENDBRANCH  17  27
ENDBRANCH   1  23
TORSDOF 3
ENDMDL
MODEL 8
REMARK VINA RESULT:      -6.7     17.396     21.061
REMARK  Name = 
REMARK  3 active torsions:
REMARK  status: ('A' for Active; 'I' for Inactive)
REMARK    1  A    between atoms: C_4  and  C_5
REMARK    2  A    between atoms: C_11  and  C_12
REMARK    3  A    between atoms: N_17  and  C_18
REMARK                            x       y       z     vdW  Elec       q    Type
REMARK                         _______ _______ _______ _____ _____    ______ ____
ROOT
ATOM      1  C   UNL     1      20.226  10.245  37.350  0.00  0.00    +0.000 C 
ATOM      2  O   UNL     1      19.836   9.327  36.666  0.00  0.00    +0.000 OA
ATOM      3  N   UNL     1      21.510  10.791  37.305  0.00  0.00    +0.000 N 
ATOM      4  C   UNL     1      22.579  10.375  36.460  0.00  0.00    +0.000 C 
ATOM      5  C   UNL     1      23.938  10.431  37.065  0.00  0.00    +0.000 C 
ATOM      6  N   UNL     1      24.051  11.111  38.300  0.00  0.00    +0.000 N 
ATOM      7  C   UNL     1      22.880  11.317  39.130  0.00  0.00    +0.000 C 
ATOM      8  C   UNL     1      21.833  11.916  38.208  0.00  0.00    +0.000 C 
ENDROOT
BRANCH   6   9
ATOM      9  C   UNL     1      25.304  11.609  38.755  0.00  0.00    +0.000 A 
ATOM     10  C   UNL     1      26.206  10.822  39.443  0.00  0.00    +0.000 A 
ATOM     11  C   UNL     1      27.431  11.263  39.901  0.00  0.00    +0.000 A 
ATOM     12  C   UNL     1      27.781  12.567  39.660  0.00  0.00    +0.000 A 
ATOM     13  C   UNL     1      26.902  13.382  38.974  0.00  0.00    +0.000 A 
ATOM     14  C   UNL     1      27.368  14.788  38.758  0.00  0.00    +0.000 C 
ATOM     15  C   UNL     1      25.691  12.930  38.526  0.00  0.00    +0.000 A 
ATOM     16  C   UNL     1      24.778  13.827  37.798  0.00  0.00    +0.000 C 
ENDBRANCH   6   9
BRANCH   1  23
ATOM     17  C   UNL     1      19.825   8.782  39.880  0.00  0.00    +0.000 C 
ATOM     18  O   UNL     1      21.046   8.820  39.654  0.00  0.00    +0.000 OA
ATOM     19  N   UNL     1      18.920   9.662  39.326  0.00  0.00    +0.000 N 
ATOM     20  C   UNL     1      17.472   9.721  39.544  0.00  0.00    +0.000 C 
ATOM     21  C   UNL     1      16.857  10.479  38.428  0.00  0.00    +0.000 C 
ATOM     22  C   UNL     1      17.877  10.428  37.348  0.00  0.00    +0.000 C 
ATOM     23  C   UNL     1      19.161  10.842  38.360  0.00  0.00    +0.000 C 
BRANCH  17  27
ATOM     24  C   UNL     1      18.097   4.534  42.000  0.00  0.00    +0.000 C 
ATOM     25  C   UNL     1      18.593   5.904  41.710  0.00  0.00    +0.000 A 
ATOM     26  C   UNL     1      18.961   6.453  40.500  0.00  0.00    +0.000 A 
ATOM     27  C   UNL     1      19.345   7.749  40.777  0.00  0.00    +0.000 A 
ATOM     28  N   UNL     1      19.203   7.941  42.095  0.00  0.00    +0.000 NA
ATOM     29  N   UNL     1      18.751   6.834  42.670  0.00  0.00    +0.000 NA
ENDBRANCH  17  27
ENDBRANCH   1  23
TORSDOF 3
ENDMDL
MODEL 9
REMARK VINA RESULT:      -6.7      3.330      8.258
REMARK  Name = 
REMARK  3 active torsions:
REMARK  status: ('A' for Active; 'I' for Inactive)
REMARK    1  A    between atoms: C_4  and  C_5
REMARK    2  A    between atoms: C_11  and  C_12
REMARK    3  A    between atoms: N_17  and  C_18
REMARK                            x       y       z     vdW  Elec       q    Type
REMARK                         _______ _______ _______ _____ _____    ______ ____
ROOT
ATOM      1  C   UNL     1      28.328  25.104  24.997  0.00  0.00    +0.000 C 
ATOM      2  O   UNL     1      29.345  25.751  25.095  0.00  0.00    +0.000 OA
ATOM      3  N   UNL     1      27.041  25.639  24.906  0.00  0.00    +0.000 N 
ATOM      4  C   UNL     1      26.696  27.021  24.909  0.00  0.00    +0.000 C 
ATOM      5  C   UNL     1      25.431  27.368  25.612  0.00  0.00    +0.000 C 
ATOM      6  N   UNL     1      24.596  26.285  25.977  0.00  0.00    +0.000 N 
ATOM      7  C   UNL     1      25.142  24.947  26.087  0.00  0.00    +0.000 C 
ATOM      8  C   UNL     1      25.896  24.713  24.790  0.00  0.00    +0.000 C 
ENDROOT
BRANCH   6   9
ATOM      9  C   UNL     1      23.212  26.480  26.242  0.00  0.00    +0.000 A 
ATOM     10  C   UNL     1      22.277  26.617  25.235  0.00  0.00    +0.000 A 
ATOM     11  C   UNL     1      20.928  26.807  25.447  0.00  0.00    +0.000 A 
ATOM     12  C   UNL     1      20.478  26.864  26.741  0.00  0.00    +0.000 A 
ATOM     13  C   UNL     1      21.385  26.731  27.774  0.00  0.00    +0.000 A 
ATOM     14  C   UNL     1      20.803  26.807  29.151  0.00  0.00    +0.000 C 
ATOM     15  C   UNL     1      22.721  26.543  27.547  0.00  0.00    +0.000 A 
ATOM     16  C   UNL     1      23.660  26.404  28.672  0.00  0.00    +0.000 C 
ENDBRANCH   6   9
BRANCH   1  23
ATOM     17  C   UNL     1      28.806  23.787  27.594  0.00  0.00    +0.000 C 
ATOM     18  O   UNL     1      27.911  24.633  27.757  0.00  0.00    +0.000 OA
ATOM     19  N   UNL     1      29.134  23.252  26.366  0.00  0.00    +0.000 N 
ATOM     20  C   UNL     1      30.148  22.237  26.067  0.00  0.00    +0.000 C 
ATOM     21  C   UNL     1      30.477  22.309  24.623  0.00  0.00    +0.000 C 
ATOM     22  C   UNL     1      30.018  23.663  24.212  0.00  0.00    +0.000 C 
ATOM     23  C   UNL     1      28.520  23.531  24.977  0.00  0.00    +0.000 C 
BRANCH  17  27
ATOM     24  C   UNL     1      32.270  22.792  31.135  0.00  0.00    +0.000 C 
ATOM     25  C   UNL     1      31.035  22.913  30.317  0.00  0.00    +0.000 A 
ATOM     26  C   UNL     1      30.867  23.515  29.088  0.00  0.00    +0.000 A 
ATOM     27  C   UNL     1      29.535  23.352  28.769  0.00  0.00    +0.000 A 
ATOM     28  N   UNL     1      28.956  22.682  29.775  0.00  0.00    +0.000 NA
ATOM     29  N   UNL     1      29.852  22.412  30.716  0.00  0.00    +0.000 NA
ENDBRANCH  17  27
ENDBRANCH   1  23
TORSDOF 3
ENDMDL
MODEL 10
REMARK VINA RESULT:      -6.7     13.680     15.712
REMARK  Name = 
REMARK  3 active torsions:
REMARK  status: ('A' for Active; 'I' for Inactive)
REMARK    1  A    between atoms: C_4  and  C_5
REMARK    2  A    between atoms: C_11  and  C_12
REMARK    3  A    between atoms: N_17  and  C_18
REMARK                            x       y       z     vdW  Elec       q    Type
REMARK                         _______ _______ _______ _____ _____    ______ ____
ROOT
ATOM      1  C   UNL     1      20.087  19.262  39.707  0.00  0.00    +0.000 C 
ATOM      2  O   UNL     1      20.040  20.042  40.631  0.00  0.00    +0.000 OA
ATOM      3  N   UNL     1      20.678  17.998  39.753  0.00  0.00    +0.000 N 
ATOM      4  C   UNL     1      21.323  17.404  40.877  0.00  0.00    +0.000 C 
ATOM      5  C   UNL     1      22.514  16.566  40.568  0.00  0.00    +0.000 C 
ATOM      6  N   UNL     1      22.727  16.252  39.204  0.00  0.00    +0.000 N 
ATOM      7  C   UNL     1      22.121  17.062  38.165  0.00  0.00    +0.000 C 
ATOM      8  C   UNL     1      20.653  17.160  38.537  0.00  0.00    +0.000 C 
ENDROOT
BRANCH   6   9
ATOM      9  C   UNL     1      23.531  15.142  38.822  0.00  0.00    +0.000 A 
ATOM     10  C   UNL     1      24.889  15.255  38.598  0.00  0.00    +0.000 A 
ATOM     11  C   UNL     1      25.705  14.207  38.226  0.00  0.00    +0.000 A 
ATOM     12  C   UNL     1      25.138  12.969  38.069  0.00  0.00    +0.000 A 
ATOM     13  C   UNL     1      23.782  12.819  38.286  0.00  0.00    +0.000 A 
ATOM     14  C   UNL     1      23.251  11.434  38.090  0.00  0.00    +0.000 C 
ATOM     15  C   UNL     1      22.985  13.869  38.654  0.00  0.00    +0.000 A 
ATOM     16  C   UNL     1      21.543  13.674  38.876  0.00  0.00    +0.000 C 
ENDBRANCH   6   9
BRANCH   1  23
ATOM     17  C   UNL     1      21.612  21.200  38.088  0.00  0.00    +0.000 C 
ATOM     18  O   UNL     1      22.407  20.333  38.490  0.00  0.00    +0.000 OA
ATOM     19  N   UNL     1      20.250  21.006  38.009  0.00  0.00    +0.000 N 
ATOM     20  C   UNL     1      19.232  21.946  37.530  0.00  0.00    +0.000 C 
ATOM     21  C   UNL     1      17.912  21.518  38.049  0.00  0.00    +0.000 C 
ATOM     22  C   UNL     1      18.242  20.636  39.200  0.00  0.00    +0.000 C 
ATOM     23  C   UNL     1      19.412  19.758  38.362  0.00  0.00    +0.000 C 
BRANCH  17  27
ATOM     24  C   UNL     1      23.280  25.961  37.814  0.00  0.00    +0.000 C 
ATOM     25  C   UNL     1      22.896  24.549  37.556  0.00  0.00    +0.000 A 
ATOM     26  C   UNL     1      22.314  23.641  38.414  0.00  0.00    +0.000 A 
ATOM     27  C   UNL     1      22.167  22.478  37.687  0.00  0.00    +0.000 A 
ATOM     28  N   UNL     1      22.645  22.706  36.456  0.00  0.00    +0.000 NA
ATOM     29  N   UNL     1      23.089  23.953  36.365  0.00  0.00    +0.000 NA
ENDBRANCH  17  27
ENDBRANCH   1  23
TORSDOF 3
ENDMDL
