MODEL 1
REMARK VINA RESULT:      -6.6      0.000      0.000
REMARK  Name = 
REMARK  3 active torsions:
REMARK  status: ('A' for Active; 'I' for Inactive)
REMARK    1  A    between atoms: C_2  and  C_4
REMARK    2  A    between atoms: C_4  and  C_5
REMARK    3  A    between atoms: C_8  and  C_9
REMARK                            x       y       z     vdW  Elec       q    Type
REMARK                         _______ _______ _______ _____ _____    ______ ____
ROOT
ATOM      1  C   UNL     1      17.709   9.256  40.132  0.00  0.00    +0.000 A 
ATOM      2  C   UNL     1      18.873   9.249  39.351  0.00  0.00    +0.000 A 
ATOM      3  C   UNL     1      20.111   8.615  39.865  0.00  0.00    +0.000 C 
ATOM      4  C   UNL     1      18.919   9.819  38.099  0.00  0.00    +0.000 A 
ATOM      5  C   UNL     1      17.786  10.429  37.565  0.00  0.00    +0.000 A 
ATOM      6  N   UNL     1      17.553  11.050  36.395  0.00  0.00    +0.000 NA
ATOM      7  C   UNL     1      16.278  11.465  36.376  0.00  0.00    +0.000 A 
ATOM      8  C   UNL     1      15.474  12.135  35.488  0.00  0.00    +0.000 A 
ATOM      9  C   UNL     1      14.168  12.396  35.821  0.00  0.00    +0.000 A 
ATOM     10  C   UNL     1      13.610  12.014  37.027  0.00  0.00    +0.000 A 
ATOM     11  C   UNL     1      14.429  11.345  37.901  0.00  0.00    +0.000 A 
ATOM     12  C   UNL     1      15.739  11.072  37.587  0.00  0.00    +0.000 A 
ATOM     13  N   UNL     1      16.687  10.424  38.327  0.00  0.00    +0.000 N 
ATOM     14  C   UNL     1      16.634   9.862  39.568  0.00  0.00    +0.000 A 
ATOM     15  O   UNL     1      15.444   9.913  40.269  0.00  0.00    +0.000 OA
ENDROOT
BRANCH   4  16
ATOM     16  C   UNL     1      20.119   9.803  37.308  0.00  0.00    +0.000 C 
ATOM     17  N   UNL     1      21.090   9.783  36.660  0.00  0.00    +0.000 NA
ENDBRANCH   4  16
BRANCH   1  18
ATOM     18  C   UNL     1      17.806   8.608  41.440  0.00  0.00    +0.000 C 
BRANCH  18  20
ATOM     19  C   UNL     1      17.252   6.299  41.001  0.00  0.00    +0.000 C 
ATOM     20  C   UNL     1      17.015   7.415  41.672  0.00  0.00    +0.000 C 
ATOM     21  C   UNL     1      15.936   7.414  42.687  0.00  0.00    +0.000 C 
ENDBRANCH  18  20
ENDBRANCH   1  18
TORSDOF 3
ENDMDL
MODEL 2
REMARK VINA RESULT:      -6.2     21.239     22.782
REMARK  Name = 
REMARK  3 active torsions:
REMARK  status: ('A' for Active; 'I' for Inactive)
REMARK    1  A    between atoms: C_2  and  C_4
REMARK    2  A    between atoms: C_4  and  C_5
REMARK    3  A    between atoms: C_8  and  C_9
REMARK                            x       y       z     vdW  Elec       q    Type
REMARK                         _______ _______ _______ _____ _____    ______ ____
ROOT
ATOM      1  C   UNL     1      19.759  -9.317  26.937  0.00  0.00    +0.000 A 
ATOM      2  C   UNL     1      19.135  -8.062  26.951  0.00  0.00    +0.000 A 
ATOM      3  C   UNL     1      17.842  -7.881  27.656  0.00  0.00    +0.000 C 
ATOM      4  C   UNL     1      19.680  -6.965  26.323  0.00  0.00    +0.000 A 
ATOM      5  C   UNL     1      20.893  -7.077  25.646  0.00  0.00    +0.000 A 
ATOM      6  N   UNL     1      21.636  -6.190  24.961  0.00  0.00    +0.000 NA
ATOM      7  C   UNL     1      22.729  -6.815  24.497  0.00  0.00    +0.000 A 
ATOM      8  C   UNL     1      23.827  -6.458  23.755  0.00  0.00    +0.000 A 
ATOM      9  C   UNL     1      24.781  -7.399  23.460  0.00  0.00    +0.000 A 
ATOM     10  C   UNL     1      24.692  -8.714  23.879  0.00  0.00    +0.000 A 
ATOM     11  C   UNL     1      23.588  -9.053  24.620  0.00  0.00    +0.000 A 
ATOM     12  C   UNL     1      22.621  -8.125  24.927  0.00  0.00    +0.000 A 
ATOM     13  N   UNL     1      21.470  -8.283  25.645  0.00  0.00    +0.000 N 
ATOM     14  C   UNL     1      20.936  -9.373  26.265  0.00  0.00    +0.000 A 
ATOM     15  O   UNL     1      21.620 -10.572  26.202  0.00  0.00    +0.000 OA
ENDROOT
BRANCH   4  16
ATOM     16  C   UNL     1      19.030  -5.683  26.347  0.00  0.00    +0.000 C 
ATOM     17  N   UNL     1      18.509  -4.638  26.362  0.00  0.00    +0.000 NA
ENDBRANCH   4  16
BRANCH   1  18
ATOM     18  C   UNL     1      19.067 -10.390  27.651  0.00  0.00    +0.000 C 
BRANCH  18  20
ATOM     19  C   UNL     1      19.802 -12.189  29.084  0.00  0.00    +0.000 C 
ATOM     20  C   UNL     1      19.659 -10.890  28.876  0.00  0.00    +0.000 C 
ATOM     21  C   UNL     1      20.141  -9.950  29.916  0.00  0.00    +0.000 C 
ENDBRANCH  18  20
ENDBRANCH   1  18
TORSDOF 3
ENDMDL
MODEL 3
REMARK VINA RESULT:      -6.2     20.711     22.059
REMARK  Name = 
REMARK  3 active torsions:
REMARK  status: ('A' for Active; 'I' for Inactive)
REMARK    1  A    between atoms: C_2  and  C_4
REMARK    2  A    between atoms: C_4  and  C_5
REMARK    3  A    between atoms: C_8  and  C_9
REMARK                            x       y       z     vdW  Elec       q    Type
REMARK                         _______ _______ _______ _____ _____    ______ ____
ROOT
ATOM      1  C   UNL     1      29.316  22.739  26.354  0.00  0.00    +0.000 A 
ATOM      2  C   UNL     1      29.644  23.005  25.018  0.00  0.00    +0.000 A 
ATOM      3  C   UNL     1      30.893  22.456  24.434  0.00  0.00    +0.000 C 
ATOM      4  C   UNL     1      28.842  23.772  24.204  0.00  0.00    +0.000 A 
ATOM      5  C   UNL     1      27.657  24.313  24.700  0.00  0.00    +0.000 A 
ATOM      6  N   UNL     1      26.706  25.082  24.140  0.00  0.00    +0.000 NA
ATOM      7  C   UNL     1      25.761  25.332  25.060  0.00  0.00    +0.000 A 
ATOM      8  C   UNL     1      24.580  26.031  25.094  0.00  0.00    +0.000 A 
ATOM      9  C   UNL     1      23.849  26.068  26.254  0.00  0.00    +0.000 A 
ATOM     10  C   UNL     1      24.247  25.428  27.414  0.00  0.00    +0.000 A 
ATOM     11  C   UNL     1      25.429  24.734  27.361  0.00  0.00    +0.000 A 
ATOM     12  C   UNL     1      26.177  24.683  26.208  0.00  0.00    +0.000 A 
ATOM     13  N   UNL     1      27.363  24.047  25.977  0.00  0.00    +0.000 N 
ATOM     14  C   UNL     1      28.154  23.288  26.787  0.00  0.00    +0.000 A 
ATOM     15  O   UNL     1      27.752  23.074  28.093  0.00  0.00    +0.000 OA
ENDROOT
BRANCH   4  16
ATOM     16  C   UNL     1      29.190  24.035  22.835  0.00  0.00    +0.000 C 
ATOM     17  N   UNL     1      29.479  24.255  21.725  0.00  0.00    +0.000 NA
ENDBRANCH   4  16
BRANCH   1  18
ATOM     18  C   UNL     1      30.259  21.904  27.097  0.00  0.00    +0.000 C 
BRANCH  18  20
ATOM     19  C   UNL     1      31.935  21.866  28.835  0.00  0.00    +0.000 C 
ATOM     20  C   UNL     1      31.216  22.559  27.967  0.00  0.00    +0.000 C 
ATOM     21  C   UNL     1      31.425  24.024  27.886  0.00  0.00    +0.000 C 
ENDBRANCH  18  20
ENDBRANCH   1  18
TORSDOF 3
ENDMDL
MODEL 4
REMARK VINA RESULT:      -6.0     19.282     21.519
REMARK  Name = 
REMARK  3 active torsions:
REMARK  status: ('A' for Active; 'I' for Inactive)
REMARK    1  A    between atoms: C_2  and  C_4
REMARK    2  A    between atoms: C_4  and  C_5
REMARK    3  A    between atoms: C_8  and  C_9
REMARK                            x       y       z     vdW  Elec       q    Type
REMARK                         _______ _______ _______ _____ _____    ______ ____
ROOT
ATOM      1  C   UNL     1      28.228  22.868  26.874  0.00  0.00    +0.000 A 
ATOM      2  C   UNL     1      27.322  23.305  27.850  0.00  0.00    +0.000 A 
ATOM      3  C   UNL     1      25.955  23.731  27.460  0.00  0.00    +0.000 C 
ATOM      4  C   UNL     1      27.651  23.358  29.186  0.00  0.00    +0.000 A 
ATOM      5  C   UNL     1      28.920  22.970  29.609  0.00  0.00    +0.000 A 
ATOM      6  N   UNL     1      29.498  22.921  30.823  0.00  0.00    +0.000 NA
ATOM      7  C   UNL     1      30.753  22.468  30.683  0.00  0.00    +0.000 A 
ATOM      8  C   UNL     1      31.805  22.207  31.524  0.00  0.00    +0.000 A 
ATOM      9  C   UNL     1      32.984  21.734  31.007  0.00  0.00    +0.000 A 
ATOM     10  C   UNL     1      33.172  21.501  29.656  0.00  0.00    +0.000 A 
ATOM     11  C   UNL     1      32.109  21.767  28.831  0.00  0.00    +0.000 A 
ATOM     12  C   UNL     1      30.919  22.242  29.329  0.00  0.00    +0.000 A 
ATOM     13  N   UNL     1      29.769  22.557  28.662  0.00  0.00    +0.000 N 
ATOM     14  C   UNL     1      29.449  22.502  27.338  0.00  0.00    +0.000 A 
ATOM     15  O   UNL     1      30.405  22.057  26.444  0.00  0.00    +0.000 OA
ENDROOT
BRANCH   4  16
ATOM     16  C   UNL     1      26.710  23.806  30.176  0.00  0.00    +0.000 C 
ATOM     17  N   UNL     1      25.948  24.178  30.978  0.00  0.00    +0.000 NA
ENDBRANCH   4  16
BRANCH   1  18
ATOM     18  C   UNL     1      27.739  22.859  25.496  0.00  0.00    +0.000 C 
BRANCH  18  20
ATOM     19  C   UNL     1      28.939  23.308  23.450  0.00  0.00    +0.000 C 
ATOM     20  C   UNL     1      28.353  23.764  24.545  0.00  0.00    +0.000 C 
ATOM     21  C   UNL     1      28.315  25.228  24.769  0.00  0.00    +0.000 C 
ENDBRANCH  18  20
ENDBRANCH   1  18
TORSDOF 3
ENDMDL
MODEL 5
REMARK VINA RESULT:      -6.0     19.633     21.765
REMARK  Name = 
REMARK  3 active torsions:
REMARK  status: ('A' for Active; 'I' for Inactive)
REMARK    1  A    between atoms: C_2  and  C_4
REMARK    2  A    between atoms: C_4  and  C_5
REMARK    3  A    between atoms: C_8  and  C_9
REMARK                            x       y       z     vdW  Elec       q    Type
REMARK                         _______ _______ _______ _____ _____    ______ ____
ROOT
ATOM      1  C   UNL     1      28.392  23.200  25.346  0.00  0.00    +0.000 A 
ATOM      2  C   UNL     1      28.554  22.772  26.671  0.00  0.00    +0.000 A 
ATOM      3  C   UNL     1      29.710  21.920  27.042  0.00  0.00    +0.000 C 
ATOM      4  C   UNL     1      27.665  23.113  27.666  0.00  0.00    +0.000 A 
ATOM      5  C   UNL     1      26.561  23.912  27.374  0.00  0.00    +0.000 A 
ATOM      6  N   UNL     1      25.557  24.387  28.133  0.00  0.00    +0.000 NA
ATOM      7  C   UNL     1      24.740  25.114  27.356  0.00  0.00    +0.000 A 
ATOM      8  C   UNL     1      23.584  25.830  27.542  0.00  0.00    +0.000 A 
ATOM      9  C   UNL     1      23.005  26.470  26.476  0.00  0.00    +0.000 A 
ATOM     10  C   UNL     1      23.535  26.431  25.199  0.00  0.00    +0.000 A 
ATOM     11  C   UNL     1      24.691  25.711  25.032  0.00  0.00    +0.000 A 
ATOM     12  C   UNL     1      25.287  25.062  26.087  0.00  0.00    +0.000 A 
ATOM     13  N   UNL     1      26.427  24.309  26.105  0.00  0.00    +0.000 N 
ATOM     14  C   UNL     1      27.302  23.975  25.115  0.00  0.00    +0.000 A 
ATOM     15  O   UNL     1      27.067  24.443  23.836  0.00  0.00    +0.000 OA
ENDROOT
BRANCH   4  16
ATOM     16  C   UNL     1      27.844  22.668  29.021  0.00  0.00    +0.000 C 
ATOM     17  N   UNL     1      27.982  22.310  30.123  0.00  0.00    +0.000 NA
ENDBRANCH   4  16
BRANCH   1  18
ATOM     18  C   UNL     1      29.417  22.766  24.398  0.00  0.00    +0.000 C 
BRANCH  18  20
ATOM     19  C   UNL     1      31.762  23.328  24.511  0.00  0.00    +0.000 C 
ATOM     20  C   UNL     1      30.534  23.654  24.142  0.00  0.00    +0.000 C 
ATOM     21  C   UNL     1      30.325  24.940  23.437  0.00  0.00    +0.000 C 
ENDBRANCH  18  20
ENDBRANCH   1  18
TORSDOF 3
ENDMDL
MODEL 6
REMARK VINA RESULT:      -6.0     19.212     21.460
REMARK  Name = 
REMARK  3 active torsions:
REMARK  status: ('A' for Active; 'I' for Inactive)
REMARK    1  A    between atoms: C_2  and  C_4
REMARK    2  A    between atoms: C_4  and  C_5
REMARK    3  A    between atoms: C_8  and  C_9
REMARK                            x       y       z     vdW  Elec       q    Type
REMARK                         _______ _______ _______ _____ _____    ______ ____
ROOT
ATOM      1  C   UNL     1      30.217  22.552  28.105  0.00  0.00    +0.000 A 
ATOM      2  C   UNL     1      29.198  22.674  29.059  0.00  0.00    +0.000 A 
ATOM      3  C   UNL     1      29.507  22.517  30.502  0.00  0.00    +0.000 C 
ATOM      4  C   UNL     1      27.893  22.938  28.710  0.00  0.00    +0.000 A 
ATOM      5  C   UNL     1      27.546  23.095  27.369  0.00  0.00    +0.000 A 
ATOM      6  N   UNL     1      26.376  23.352  26.758  0.00  0.00    +0.000 NA
ATOM      7  C   UNL     1      26.587  23.405  25.434  0.00  0.00    +0.000 A 
ATOM      8  C   UNL     1      25.814  23.624  24.321  0.00  0.00    +0.000 A 
ATOM      9  C   UNL     1      26.394  23.603  23.078  0.00  0.00    +0.000 A 
ATOM     10  C   UNL     1      27.743  23.366  22.883  0.00  0.00    +0.000 A 
ATOM     11  C   UNL     1      28.500  23.149  24.006  0.00  0.00    +0.000 A 
ATOM     12  C   UNL     1      27.938  23.167  25.261  0.00  0.00    +0.000 A 
ATOM     13  N   UNL     1      28.533  22.974  26.475  0.00  0.00    +0.000 N 
ATOM     14  C   UNL     1      29.827  22.713  26.815  0.00  0.00    +0.000 A 
ATOM     15  O   UNL     1      30.769  22.611  25.809  0.00  0.00    +0.000 OA
ENDROOT
BRANCH   4  16
ATOM     16  C   UNL     1      26.859  23.063  29.699  0.00  0.00    +0.000 C 
ATOM     17  N   UNL     1      26.013  23.158  30.499  0.00  0.00    +0.000 NA
ENDBRANCH   4  16
BRANCH   1  18
ATOM     18  C   UNL     1      31.557  22.276  28.622  0.00  0.00    +0.000 C 
BRANCH  18  20
ATOM     19  C   UNL     1      33.767  23.165  29.013  0.00  0.00    +0.000 C 
ATOM     20  C   UNL     1      32.498  23.376  28.706  0.00  0.00    +0.000 C 
ATOM     21  C   UNL     1      32.060  24.763  28.425  0.00  0.00    +0.000 C 
ENDBRANCH  18  20
ENDBRANCH   1  18
TORSDOF 3
ENDMDL
MODEL 7
REMARK VINA RESULT:      -5.9     19.959     22.444
REMARK  Name = 
REMARK  3 active torsions:
REMARK  status: ('A' for Active; 'I' for Inactive)
REMARK    1  A    between atoms: C_2  and  C_4
REMARK    2  A    between atoms: C_4  and  C_5
REMARK    3  A    between atoms: C_8  and  C_9
REMARK                            x       y       z     vdW  Elec       q    Type
REMARK                         _______ _______ _______ _____ _____    ______ ____
ROOT
ATOM      1  C   UNL     1      30.427  23.309  25.177  0.00  0.00    +0.000 A 
ATOM      2  C   UNL     1      29.288  23.436  24.370  0.00  0.00    +0.000 A 
ATOM      3  C   UNL     1      29.430  23.653  22.909  0.00  0.00    +0.000 C 
ATOM      4  C   UNL     1      28.013  23.367  24.885  0.00  0.00    +0.000 A 
ATOM      5  C   UNL     1      27.820  23.164  26.250  0.00  0.00    +0.000 A 
ATOM      6  N   UNL     1      26.712  23.058  27.005  0.00  0.00    +0.000 NA
ATOM      7  C   UNL     1      27.080  22.865  28.281  0.00  0.00    +0.000 A 
ATOM      8  C   UNL     1      26.430  22.690  29.477  0.00  0.00    +0.000 A 
ATOM      9  C   UNL     1      27.161  22.515  30.625  0.00  0.00    +0.000 A 
ATOM     10  C   UNL     1      28.544  22.506  30.641  0.00  0.00    +0.000 A 
ATOM     11  C   UNL     1      29.176  22.683  29.436  0.00  0.00    +0.000 A 
ATOM     12  C   UNL     1      28.463  22.859  28.274  0.00  0.00    +0.000 A 
ATOM     13  N   UNL     1      28.920  23.046  27.001  0.00  0.00    +0.000 N 
ATOM     14  C   UNL     1      30.185  23.113  26.497  0.00  0.00    +0.000 A 
ATOM     15  O   UNL     1      31.252  22.976  27.365  0.00  0.00    +0.000 OA
ENDROOT
BRANCH   4  16
ATOM     16  C   UNL     1      26.854  23.496  24.046  0.00  0.00    +0.000 C 
ATOM     17  N   UNL     1      25.907  23.597  23.370  0.00  0.00    +0.000 NA
ENDBRANCH   4  16
BRANCH   1  18
ATOM     18  C   UNL     1      31.717  23.397  24.492  0.00  0.00    +0.000 C 
BRANCH  18  20
ATOM     19  C   UNL     1      33.863  24.439  24.860  0.00  0.00    +0.000 C 
ATOM     20  C   UNL     1      32.550  24.556  24.747  0.00  0.00    +0.000 C 
ATOM     21  C   UNL     1      31.947  25.904  24.864  0.00  0.00    +0.000 C 
ENDBRANCH  18  20
ENDBRANCH   1  18
TORSDOF 3
ENDMDL
MODEL 8
REMARK VINA RESULT:      -5.9     17.895     19.421
REMARK  Name = 
REMARK  3 active torsions:
REMARK  status: ('A' for Active; 'I' for Inactive)
REMARK    1  A    between atoms: C_2  and  C_4
REMARK    2  A    between atoms: C_4  and  C_5
REMARK    3  A    between atoms: C_8  and  C_9
REMARK                            x       y       z     vdW  Elec       q    Type
REMARK                         _______ _______ _______ _____ _____    ______ ____
ROOT
ATOM      1  C   UNL     1      33.920   4.794  35.778  0.00  0.00    +0.000 A 
ATOM      2  C   UNL     1      33.993   4.460  37.137  0.00  0.00    +0.000 A 
ATOM      3  C   UNL     1      34.036   5.528  38.165  0.00  0.00    +0.000 C 
ATOM      4  C   UNL     1      34.028   3.153  37.570  0.00  0.00    +0.000 A 
ATOM      5  C   UNL     1      33.990   2.109  36.648  0.00  0.00    +0.000 A 
ATOM      6  N   UNL     1      34.011   0.772  36.788  0.00  0.00    +0.000 NA
ATOM      7  C   UNL     1      33.954   0.212  35.570  0.00  0.00    +0.000 A 
ATOM      8  C   UNL     1      33.941  -1.067  35.074  0.00  0.00    +0.000 A 
ATOM      9  C   UNL     1      33.873  -1.267  33.718  0.00  0.00    +0.000 A 
ATOM     10  C   UNL     1      33.818  -0.227  32.807  0.00  0.00    +0.000 A 
ATOM     11  C   UNL     1      33.833   1.044  33.322  0.00  0.00    +0.000 A 
ATOM     12  C   UNL     1      33.899   1.267  34.677  0.00  0.00    +0.000 A 
ATOM     13  N   UNL     1      33.921   2.451  35.357  0.00  0.00    +0.000 N 
ATOM     14  C   UNL     1      33.886   3.742  34.921  0.00  0.00    +0.000 A 
ATOM     15  O   UNL     1      33.813   3.982  33.562  0.00  0.00    +0.000 OA
ENDROOT
BRANCH   4  16
ATOM     16  C   UNL     1      34.100   2.825  38.967  0.00  0.00    +0.000 C 
ATOM     17  N   UNL     1      34.153   2.551  40.101  0.00  0.00    +0.000 NA
ENDBRANCH   4  16
BRANCH   1  18
ATOM     18  C   UNL     1      33.884   6.223  35.465  0.00  0.00    +0.000 C 
BRANCH  18  20
ATOM     19  C   UNL     1      35.220   8.197  35.846  0.00  0.00    +0.000 C 
ATOM     20  C   UNL     1      35.139   6.946  35.422  0.00  0.00    +0.000 C 
ATOM     21  C   UNL     1      36.369   6.289  34.920  0.00  0.00    +0.000 C 
ENDBRANCH  18  20
ENDBRANCH   1  18
TORSDOF 3
ENDMDL
MODEL 9
REMARK VINA RESULT:      -5.9      2.595      6.368
REMARK  Name = 
REMARK  3 active torsions:
REMARK  status: ('A' for Active; 'I' for Inactive)
REMARK    1  A    between atoms: C_2  and  C_4
REMARK    2  A    between atoms: C_4  and  C_5
REMARK    3  A    between atoms: C_8  and  C_9
REMARK                            x       y       z     vdW  Elec       q    Type
REMARK                         _______ _______ _______ _____ _____    ______ ____
ROOT
ATOM      1  C   UNL     1      17.947   9.997  37.628  0.00  0.00    +0.000 A 
ATOM      2  C   UNL     1      17.837   9.897  39.021  0.00  0.00    +0.000 A 
ATOM      3  C   UNL     1      16.508  10.008  39.672  0.00  0.00    +0.000 C 
ATOM      4  C   UNL     1      18.931   9.696  39.832  0.00  0.00    +0.000 A 
ATOM      5  C   UNL     1      20.203   9.584  39.274  0.00  0.00    +0.000 A 
ATOM      6  N   UNL     1      21.419   9.390  39.816  0.00  0.00    +0.000 NA
ATOM      7  C   UNL     1      22.328   9.358  38.829  0.00  0.00    +0.000 A 
ATOM      8  C   UNL     1      23.688   9.196  38.749  0.00  0.00    +0.000 A 
ATOM      9  C   UNL     1      24.301   9.220  37.522  0.00  0.00    +0.000 A 
ATOM     10  C   UNL     1      23.608   9.404  36.339  0.00  0.00    +0.000 A 
ATOM     11  C   UNL     1      22.249   9.564  36.439  0.00  0.00    +0.000 A 
ATOM     12  C   UNL     1      21.615   9.542  37.659  0.00  0.00    +0.000 A 
ATOM     13  N   UNL     1      20.286   9.682  37.943  0.00  0.00    +0.000 N 
ATOM     14  C   UNL     1      19.206   9.882  37.135  0.00  0.00    +0.000 A 
ATOM     15  O   UNL     1      19.407   9.967  35.770  0.00  0.00    +0.000 OA
ENDROOT
BRANCH   4  16
ATOM     16  C   UNL     1      18.802   9.593  41.259  0.00  0.00    +0.000 C 
ATOM     17  N   UNL     1      18.690   9.506  42.418  0.00  0.00    +0.000 NA
ENDBRANCH   4  16
BRANCH   1  18
ATOM     18  C   UNL     1      16.700  10.205  36.894  0.00  0.00    +0.000 C 
BRANCH  18  20
ATOM     19  C   UNL     1      16.442  12.605  36.939  0.00  0.00    +0.000 C 
ATOM     20  C   UNL     1      16.494  11.482  36.241  0.00  0.00    +0.000 C 
ATOM     21  C   UNL     1      16.359  11.560  34.767  0.00  0.00    +0.000 C 
ENDBRANCH  18  20
ENDBRANCH   1  18
TORSDOF 3
ENDMDL
MODEL 10
REMARK VINA RESULT:      -5.8      2.165      5.212
REMARK  Name = 
REMARK  3 active torsions:
REMARK  status: ('A' for Active; 'I' for Inactive)
REMARK    1  A    between atoms: C_2  and  C_4
REMARK    2  A    between atoms: C_4  and  C_5
REMARK    3  A    between atoms: C_8  and  C_9
REMARK                            x       y       z     vdW  Elec       q    Type
REMARK                         _______ _______ _______ _____ _____    ______ ____
ROOT
ATOM      1  C   UNL     1      18.259   9.659  39.728  0.00  0.00    +0.000 A 
ATOM      2  C   UNL     1      17.648  10.045  38.527  0.00  0.00    +0.000 A 
ATOM      3  C   UNL     1      16.190  10.318  38.488  0.00  0.00    +0.000 C 
ATOM      4  C   UNL     1      18.356  10.184  37.355  0.00  0.00    +0.000 A 
ATOM      5  C   UNL     1      19.728   9.940  37.333  0.00  0.00    +0.000 A 
ATOM      6  N   UNL     1      20.645   9.997  36.351  0.00  0.00    +0.000 NA
ATOM      7  C   UNL     1      21.840   9.663  36.862  0.00  0.00    +0.000 A 
ATOM      8  C   UNL     1      23.119   9.542  36.377  0.00  0.00    +0.000 A 
ATOM      9  C   UNL     1      24.130   9.165  37.224  0.00  0.00    +0.000 A 
ATOM     10  C   UNL     1      23.926   8.894  38.565  0.00  0.00    +0.000 A 
ATOM     11  C   UNL     1      22.642   9.020  39.031  0.00  0.00    +0.000 A 
ATOM     12  C   UNL     1      21.614   9.398  38.200  0.00  0.00    +0.000 A 
ATOM     13  N   UNL     1      20.291   9.573  38.489  0.00  0.00    +0.000 N 
ATOM     14  C   UNL     1      19.595   9.434  39.653  0.00  0.00    +0.000 A 
ATOM     15  O   UNL     1      20.279   9.051  40.792  0.00  0.00    +0.000 OA
ENDROOT
BRANCH   4  16
ATOM     16  C   UNL     1      17.716  10.582  36.131  0.00  0.00    +0.000 C 
ATOM     17  N   UNL     1      17.197  10.897  35.134  0.00  0.00    +0.000 NA
ENDBRANCH   4  16
BRANCH   1  18
ATOM     18  C   UNL     1      17.384   9.558  40.895  0.00  0.00    +0.000 C 
BRANCH  18  20
ATOM     19  C   UNL     1      15.426   8.268  41.471  0.00  0.00    +0.000 C 
ATOM     20  C   UNL     1      16.706   8.300  41.136  0.00  0.00    +0.000 C 
ATOM     21  C   UNL     1      17.430   7.015  40.989  0.00  0.00    +0.000 C 
ENDBRANCH  18  20
ENDBRANCH   1  18
TORSDOF 3
ENDMDL
