MODEL 1
REMARK VINA RESULT:      -7.2      0.000      0.000
REMARK  Name = 
REMARK  9 active torsions:
REMARK  status: ('A' for Active; 'I' for Inactive)
REMARK    1  A    between atoms: C_11  and  C_13
REMARK    2  A    between atoms: C_13  and  O_15
REMARK    3  A    between atoms: C_17  and  C_18
REMARK    4  A    between atoms: C_18  and  C_19
REMARK    5  A    between atoms: C_19  and  C_20
REMARK    6  A    between atoms: C_24  and  C_25
REMARK    7  A    between atoms: C_25  and  N_26
REMARK    8  A    between atoms: N_26  and  C_27
REMARK    9  A    between atoms: C_27  and  C_28
REMARK                            x       y       z     vdW  Elec       q    Type
REMARK                         _______ _______ _______ _____ _____    ______ ____
ROOT
ATOM      1  C   UNL     1      39.966  -2.989  15.713  0.00  0.00    +0.000 C 
ATOM      2  C   UNL     1      39.409  -2.227  14.780  0.00  0.00    +0.000 C 
ATOM      3  C   UNL     1      38.638  -2.782  13.655  0.00  0.00    +0.000 C 
ATOM      4  C   UNL     1      38.659  -1.683  12.609  0.00  0.00    +0.000 C 
ATOM      5  C   UNL     1      40.280  -1.452  12.548  0.00  0.00    +0.000 C 
ATOM      6  C   UNL     1      40.282  -0.191  13.574  0.00  0.00    +0.000 C 
ATOM      7  C   UNL     1      41.732   0.029  13.973  0.00  0.00    +0.000 C 
ATOM      8  C   UNL     1      39.616   0.979  13.064  0.00  0.00    +0.000 C 
ATOM      9  C   UNL     1      38.497   0.793  12.108  0.00  0.00    +0.000 C 
ATOM     10  C   UNL     1      39.070   0.132  10.902  0.00  0.00    +0.000 C 
ATOM     11  C   UNL     1      40.317  -0.531  11.195  0.00  0.00    +0.000 C 
ATOM     12  C   UNL     1      40.536  -1.638  10.150  0.00  0.00    +0.000 C 
ATOM     13  C   UNL     1      39.614  -0.653  14.957  0.00  0.00    +0.000 C 
ENDROOT
BRANCH  11  14
ATOM     14  C   UNL     1      41.496   0.331  11.280  0.00  0.00    +0.000 C 
ATOM     15  O   UNL     1      42.625  -0.163  11.518  0.00  0.00    +0.000 OA
BRANCH  14  16
ATOM     16  O   UNL     1      41.466   1.712  11.116  0.00  0.00    +0.000 OA
ATOM     17  C   UNL     1      42.638   2.511  11.340  0.00  0.00    +0.000 C 
ENDBRANCH  14  16
ENDBRANCH  11  14
BRANCH  13  18
ATOM     18  C   UNL     1      38.020  -0.279  14.488  0.00  0.00    +0.000 C 
BRANCH  18  19
ATOM     19  C   UNL     1      37.563   0.382  15.710  0.00  0.00    +0.000 C 
BRANCH  19  20
ATOM     20  C   UNL     1      36.371   1.234  15.702  0.00  0.00    +0.000 A 
ATOM     21  C   UNL     1      35.735   2.048  14.823  0.00  0.00    +0.000 A 
ATOM     22  C   UNL     1      34.584   2.529  15.368  0.00  0.00    +0.000 A 
ATOM     23  O   UNL     1      34.469   2.028  16.583  0.00  0.00    +0.000 OA
ATOM     24  C   UNL     1      35.478   1.261  16.846  0.00  0.00    +0.000 A 
BRANCH  24  25
ATOM     25  C   UNL     1      35.809   0.481  18.030  0.00  0.00    +0.000 C 
BRANCH  25  26
ATOM     26  N   UNL     1      34.877  -0.713  18.126  0.00  0.00    +0.000 NA
BRANCH  26  27
ATOM     27  C   UNL     1      35.979  -1.730  18.019  0.00  0.00    +0.000 C 
BRANCH  27  28
ATOM     28  C   UNL     1      35.918  -2.625  16.895  0.00  0.00    +0.000 A 
ATOM     29  C   UNL     1      35.166  -2.561  15.781  0.00  0.00    +0.000 A 
ATOM     30  C   UNL     1      35.168  -3.595  14.836  0.00  0.00    +0.000 A 
ATOM     31  C   UNL     1      35.924  -4.723  14.972  0.00  0.00    +0.000 A 
ATOM     32  C   UNL     1      36.724  -4.798  16.141  0.00  0.00    +0.000 A 
ATOM     33  C   UNL     1      36.716  -3.801  17.058  0.00  0.00    +0.000 A 
ENDBRANCH  27  28
ENDBRANCH  26  27
ENDBRANCH  25  26
ENDBRANCH  24  25
ENDBRANCH  19  20
ENDBRANCH  18  19
ENDBRANCH  13  18
TORSDOF 9
ENDMDL
MODEL 2
REMARK VINA RESULT:      -7.1      1.566      3.117
REMARK  Name = 
REMARK  9 active torsions:
REMARK  status: ('A' for Active; 'I' for Inactive)
REMARK    1  A    between atoms: C_11  and  C_13
REMARK    2  A    between atoms: C_13  and  O_15
REMARK    3  A    between atoms: C_17  and  C_18
REMARK    4  A    between atoms: C_18  and  C_19
REMARK    5  A    between atoms: C_19  and  C_20
REMARK    6  A    between atoms: C_24  and  C_25
REMARK    7  A    between atoms: C_25  and  N_26
REMARK    8  A    between atoms: N_26  and  C_27
REMARK    9  A    between atoms: C_27  and  C_28
REMARK                            x       y       z     vdW  Elec       q    Type
REMARK                         _______ _______ _______ _____ _____    ______ ____
ROOT
ATOM      1  C   UNL     1      38.402   2.552  12.291  0.00  0.00    +0.000 C 
ATOM      2  C   UNL     1      38.741   1.619  13.172  0.00  0.00    +0.000 C 
ATOM      3  C   UNL     1      39.675   1.874  14.281  0.00  0.00    +0.000 C 
ATOM      4  C   UNL     1      40.173   0.495  14.675  0.00  0.00    +0.000 C 
ATOM      5  C   UNL     1      40.665  -0.006  13.195  0.00  0.00    +0.000 C 
ATOM      6  C   UNL     1      39.299  -0.821  12.859  0.00  0.00    +0.000 C 
ATOM      7  C   UNL     1      39.342  -1.126  11.371  0.00  0.00    +0.000 C 
ATOM      8  C   UNL     1      39.082  -1.969  13.701  0.00  0.00    +0.000 C 
ATOM      9  C   UNL     1      39.617  -1.940  15.084  0.00  0.00    +0.000 C 
ATOM     10  C   UNL     1      41.100  -1.835  14.967  0.00  0.00    +0.000 C 
ATOM     11  C   UNL     1      41.501  -1.326  13.680  0.00  0.00    +0.000 C 
ATOM     12  C   UNL     1      42.898  -0.696  13.820  0.00  0.00    +0.000 C 
ATOM     13  C   UNL     1      38.059   0.190  12.966  0.00  0.00    +0.000 C 
ENDROOT
BRANCH  11  14
ATOM     14  C   UNL     1      41.485  -2.288  12.578  0.00  0.00    +0.000 C 
ATOM     15  O   UNL     1      41.215  -3.495  12.795  0.00  0.00    +0.000 OA
BRANCH  14  16
ATOM     16  O   UNL     1      41.763  -1.964  11.254  0.00  0.00    +0.000 OA
ATOM     17  C   UNL     1      42.600  -2.803  10.444  0.00  0.00    +0.000 C 
ENDBRANCH  14  16
ENDBRANCH  11  14
BRANCH  13  18
ATOM     18  C   UNL     1      37.805  -0.055  14.632  0.00  0.00    +0.000 C 
BRANCH  18  19
ATOM     19  C   UNL     1      36.344   0.003  14.660  0.00  0.00    +0.000 C 
BRANCH  19  20
ATOM     20  C   UNL     1      35.649   1.218  15.092  0.00  0.00    +0.000 A 
ATOM     21  C   UNL     1      35.273   2.399  14.542  0.00  0.00    +0.000 A 
ATOM     22  C   UNL     1      34.554   3.133  15.435  0.00  0.00    +0.000 A 
ATOM     23  O   UNL     1      34.456   2.434  16.550  0.00  0.00    +0.000 OA
ATOM     24  C   UNL     1      35.072   1.302  16.421  0.00  0.00    +0.000 A 
BRANCH  24  25
ATOM     25  C   UNL     1      35.246   0.193  17.347  0.00  0.00    +0.000 C 
BRANCH  25  26
ATOM     26  N   UNL     1      36.541   0.375  18.117  0.00  0.00    +0.000 NA
BRANCH  26  27
ATOM     27  C   UNL     1      36.425  -0.931  18.852  0.00  0.00    +0.000 C 
BRANCH  27  28
ATOM     28  C   UNL     1      36.948  -2.092  18.183  0.00  0.00    +0.000 A 
ATOM     29  C   UNL     1      36.407  -2.839  17.203  0.00  0.00    +0.000 A 
ATOM     30  C   UNL     1      37.029  -4.009  16.746  0.00  0.00    +0.000 A 
ATOM     31  C   UNL     1      38.210  -4.467  17.253  0.00  0.00    +0.000 A 
ATOM     32  C   UNL     1      38.789  -3.684  18.283  0.00  0.00    +0.000 A 
ATOM     33  C   UNL     1      38.185  -2.557  18.729  0.00  0.00    +0.000 A 
ENDBRANCH  27  28
ENDBRANCH  26  27
ENDBRANCH  25  26
ENDBRANCH  24  25
ENDBRANCH  19  20
ENDBRANCH  18  19
ENDBRANCH  13  18
TORSDOF 9
ENDMDL
MODEL 3
REMARK VINA RESULT:      -6.9      2.137      4.791
REMARK  Name = 
REMARK  9 active torsions:
REMARK  status: ('A' for Active; 'I' for Inactive)
REMARK    1  A    between atoms: C_11  and  C_13
REMARK    2  A    between atoms: C_13  and  O_15
REMARK    3  A    between atoms: C_17  and  C_18
REMARK    4  A    between atoms: C_18  and  C_19
REMARK    5  A    between atoms: C_19  and  C_20
REMARK    6  A    between atoms: C_24  and  C_25
REMARK    7  A    between atoms: C_25  and  N_26
REMARK    8  A    between atoms: N_26  and  C_27
REMARK    9  A    between atoms: C_27  and  C_28
REMARK                            x       y       z     vdW  Elec       q    Type
REMARK                         _______ _______ _______ _____ _____    ______ ____
ROOT
ATOM      1  C   UNL     1      36.917   0.598  13.062  0.00  0.00    +0.000 C 
ATOM      2  C   UNL     1      38.043   0.248  13.672  0.00  0.00    +0.000 C 
ATOM      3  C   UNL     1      38.978   1.231  14.244  0.00  0.00    +0.000 C 
ATOM      4  C   UNL     1      40.295   0.484  14.337  0.00  0.00    +0.000 C 
ATOM      5  C   UNL     1      40.384  -0.027  12.783  0.00  0.00    +0.000 C 
ATOM      6  C   UNL     1      39.765  -1.500  13.083  0.00  0.00    +0.000 C 
ATOM      7  C   UNL     1      39.413  -2.095  11.730  0.00  0.00    +0.000 C 
ATOM      8  C   UNL     1      40.605  -2.331  13.904  0.00  0.00    +0.000 C 
ATOM      9  C   UNL     1      41.492  -1.675  14.896  0.00  0.00    +0.000 C 
ATOM     10  C   UNL     1      42.444  -0.826  14.124  0.00  0.00    +0.000 C 
ATOM     11  C   UNL     1      41.943  -0.523  12.806  0.00  0.00    +0.000 C 
ATOM     12  C   UNL     1      42.619   0.769  12.314  0.00  0.00    +0.000 C 
ATOM     13  C   UNL     1      38.323  -1.322  13.762  0.00  0.00    +0.000 C 
ENDROOT
BRANCH  11  14
ATOM     14  C   UNL     1      42.084  -1.583  11.808  0.00  0.00    +0.000 C 
ATOM     15  O   UNL     1      41.689  -1.400  10.631  0.00  0.00    +0.000 OA
BRANCH  14  16
ATOM     16  O   UNL     1      42.638  -2.832  12.069  0.00  0.00    +0.000 OA
ATOM     17  C   UNL     1      43.007  -3.718  11.001  0.00  0.00    +0.000 C 
ENDBRANCH  14  16
ENDBRANCH  11  14
BRANCH  13  18
ATOM     18  C   UNL     1      38.916  -1.238  15.357  0.00  0.00    +0.000 C 
BRANCH  18  19
ATOM     19  C   UNL     1      37.823  -1.918  16.052  0.00  0.00    +0.000 C 
BRANCH  19  20
ATOM     20  C   UNL     1      37.993  -2.403  17.424  0.00  0.00    +0.000 A 
ATOM     21  C   UNL     1      38.855  -3.205  18.097  0.00  0.00    +0.000 A 
ATOM     22  C   UNL     1      38.550  -3.222  19.424  0.00  0.00    +0.000 A 
ATOM     23  O   UNL     1      37.509  -2.435  19.613  0.00  0.00    +0.000 OA
ATOM     24  C   UNL     1      37.129  -1.921  18.486  0.00  0.00    +0.000 A 
BRANCH  24  25
ATOM     25  C   UNL     1      36.050  -0.998  18.167  0.00  0.00    +0.000 C 
BRANCH  25  26
ATOM     26  N   UNL     1      36.538   0.429  18.336  0.00  0.00    +0.000 NA
BRANCH  26  27
ATOM     27  C   UNL     1      35.442   1.027  17.499  0.00  0.00    +0.000 C 
BRANCH  27  28
ATOM     28  C   UNL     1      35.822   2.092  16.611  0.00  0.00    +0.000 A 
ATOM     29  C   UNL     1      36.880   2.923  16.664  0.00  0.00    +0.000 A 
ATOM     30  C   UNL     1      37.027   3.980  15.756  0.00  0.00    +0.000 A 
ATOM     31  C   UNL     1      36.124   4.238  14.766  0.00  0.00    +0.000 A 
ATOM     32  C   UNL     1      35.009   3.365  14.699  0.00  0.00    +0.000 A 
ATOM     33  C   UNL     1      34.863   2.348  15.581  0.00  0.00    +0.000 A 
ENDBRANCH  27  28
ENDBRANCH  26  27
ENDBRANCH  25  26
ENDBRANCH  24  25
ENDBRANCH  19  20
ENDBRANCH  18  19
ENDBRANCH  13  18
TORSDOF 9
ENDMDL
MODEL 4
REMARK VINA RESULT:      -6.9      1.351      2.994
REMARK  Name = 
REMARK  9 active torsions:
REMARK  status: ('A' for Active; 'I' for Inactive)
REMARK    1  A    between atoms: C_11  and  C_13
REMARK    2  A    between atoms: C_13  and  O_15
REMARK    3  A    between atoms: C_17  and  C_18
REMARK    4  A    between atoms: C_18  and  C_19
REMARK    5  A    between atoms: C_19  and  C_20
REMARK    6  A    between atoms: C_24  and  C_25
REMARK    7  A    between atoms: C_25  and  N_26
REMARK    8  A    between atoms: N_26  and  C_27
REMARK    9  A    between atoms: C_27  and  C_28
REMARK                            x       y       z     vdW  Elec       q    Type
REMARK                         _______ _______ _______ _____ _____    ______ ____
ROOT
ATOM      1  C   UNL     1      38.425   2.230  11.944  0.00  0.00    +0.000 C 
ATOM      2  C   UNL     1      38.864   1.395  12.879  0.00  0.00    +0.000 C 
ATOM      3  C   UNL     1      39.822   1.800  13.921  0.00  0.00    +0.000 C 
ATOM      4  C   UNL     1      40.430   0.494  14.397  0.00  0.00    +0.000 C 
ATOM      5  C   UNL     1      40.897  -0.091  12.940  0.00  0.00    +0.000 C 
ATOM      6  C   UNL     1      39.579  -1.020  12.731  0.00  0.00    +0.000 C 
ATOM      7  C   UNL     1      39.582  -1.440  11.271  0.00  0.00    +0.000 C 
ATOM      8  C   UNL     1      39.477  -2.108  13.668  0.00  0.00    +0.000 C 
ATOM      9  C   UNL     1      40.063  -1.932  15.020  0.00  0.00    +0.000 C 
ATOM     10  C   UNL     1      41.529  -1.739  14.828  0.00  0.00    +0.000 C 
ATOM     11  C   UNL     1      41.842  -1.309  13.487  0.00  0.00    +0.000 C 
ATOM     12  C   UNL     1      43.195  -0.578  13.515  0.00  0.00    +0.000 C 
ATOM     13  C   UNL     1      38.276  -0.088  12.815  0.00  0.00    +0.000 C 
ENDROOT
BRANCH  11  14
ATOM     14  C   UNL     1      41.849  -2.356  12.465  0.00  0.00    +0.000 C 
ATOM     15  O   UNL     1      41.626  -3.550  12.781  0.00  0.00    +0.000 OA
BRANCH  14  16
ATOM     16  O   UNL     1      42.098  -2.128  11.116  0.00  0.00    +0.000 OA
ATOM     17  C   UNL     1      42.867  -3.056  10.336  0.00  0.00    +0.000 C 
ENDBRANCH  14  16
ENDBRANCH  11  14
BRANCH  13  18
ATOM     18  C   UNL     1      38.107  -0.215  14.505  0.00  0.00    +0.000 C 
BRANCH  18  19
ATOM     19  C   UNL     1      36.648  -0.186  14.600  0.00  0.00    +0.000 C 
BRANCH  19  20
ATOM     20  C   UNL     1      35.948   1.017  15.059  0.00  0.00    +0.000 A 
ATOM     21  C   UNL     1      35.357   2.100  14.496  0.00  0.00    +0.000 A 
ATOM     22  C   UNL     1      34.776   2.875  15.453  0.00  0.00    +0.000 A 
ATOM     23  O   UNL     1      34.980   2.299  16.622  0.00  0.00    +0.000 OA
ATOM     24  C   UNL     1      35.657   1.206  16.468  0.00  0.00    +0.000 A 
BRANCH  24  25
ATOM     25  C   UNL     1      36.124   0.222  17.433  0.00  0.00    +0.000 C 
BRANCH  25  26
ATOM     26  N   UNL     1      34.967  -0.668  17.848  0.00  0.00    +0.000 NA
BRANCH  26  27
ATOM     27  C   UNL     1      35.826  -1.882  18.067  0.00  0.00    +0.000 C 
BRANCH  27  28
ATOM     28  C   UNL     1      35.950  -2.788  16.957  0.00  0.00    +0.000 A 
ATOM     29  C   UNL     1      37.033  -3.437  16.490  0.00  0.00    +0.000 A 
ATOM     30  C   UNL     1      36.978  -4.204  15.320  0.00  0.00    +0.000 A 
ATOM     31  C   UNL     1      35.840  -4.351  14.581  0.00  0.00    +0.000 A 
ATOM     32  C   UNL     1      34.693  -3.676  15.068  0.00  0.00    +0.000 A 
ATOM     33  C   UNL     1      34.747  -2.928  16.195  0.00  0.00    +0.000 A 
ENDBRANCH  27  28
ENDBRANCH  26  27
ENDBRANCH  25  26
ENDBRANCH  24  25
ENDBRANCH  19  20
ENDBRANCH  18  19
ENDBRANCH  13  18
TORSDOF 9
ENDMDL
MODEL 5
REMARK VINA RESULT:      -6.9      1.561      2.425
REMARK  Name = 
REMARK  9 active torsions:
REMARK  status: ('A' for Active; 'I' for Inactive)
REMARK    1  A    between atoms: C_11  and  C_13
REMARK    2  A    between atoms: C_13  and  O_15
REMARK    3  A    between atoms: C_17  and  C_18
REMARK    4  A    between atoms: C_18  and  C_19
REMARK    5  A    between atoms: C_19  and  C_20
REMARK    6  A    between atoms: C_24  and  C_25
REMARK    7  A    between atoms: C_25  and  N_26
REMARK    8  A    between atoms: N_26  and  C_27
REMARK    9  A    between atoms: C_27  and  C_28
REMARK                            x       y       z     vdW  Elec       q    Type
REMARK                         _______ _______ _______ _____ _____    ______ ____
ROOT
ATOM      1  C   UNL     1      37.215  -2.926  13.700  0.00  0.00    +0.000 C 
ATOM      2  C   UNL     1      38.036  -1.892  13.559  0.00  0.00    +0.000 C 
ATOM      3  C   UNL     1      38.098  -1.086  12.329  0.00  0.00    +0.000 C 
ATOM      4  C   UNL     1      39.457  -0.415  12.390  0.00  0.00    +0.000 C 
ATOM      5  C   UNL     1      40.369  -1.757  12.619  0.00  0.00    +0.000 C 
ATOM      6  C   UNL     1      40.449  -1.599  14.236  0.00  0.00    +0.000 C 
ATOM      7  C   UNL     1      40.972  -2.923  14.766  0.00  0.00    +0.000 C 
ATOM      8  C   UNL     1      41.187  -0.443  14.674  0.00  0.00    +0.000 C 
ATOM      9  C   UNL     1      41.201   0.757  13.803  0.00  0.00    +0.000 C 
ATOM     10  C   UNL     1      41.859   0.353  12.528  0.00  0.00    +0.000 C 
ATOM     11  C   UNL     1      41.831  -1.077  12.340  0.00  0.00    +0.000 C 
ATOM     12  C   UNL     1      41.955  -1.372  10.835  0.00  0.00    +0.000 C 
ATOM     13  C   UNL     1      38.957  -1.562  14.822  0.00  0.00    +0.000 C 
ENDROOT
BRANCH  11  14
ATOM     14  C   UNL     1      42.825  -1.841  13.093  0.00  0.00    +0.000 C 
ATOM     15  O   UNL     1      42.906  -3.086  12.951  0.00  0.00    +0.000 OA
BRANCH  14  16
ATOM     16  O   UNL     1      43.722  -1.279  13.996  0.00  0.00    +0.000 OA
ATOM     17  C   UNL     1      44.831  -2.035  14.507  0.00  0.00    +0.000 C 
ENDBRANCH  14  16
ENDBRANCH  11  14
BRANCH  13  18
ATOM     18  C   UNL     1      38.770   0.123  14.659  0.00  0.00    +0.000 C 
BRANCH  18  19
ATOM     19  C   UNL     1      37.754   0.349  15.686  0.00  0.00    +0.000 C 
BRANCH  19  20
ATOM     20  C   UNL     1      36.610   1.228  15.430  0.00  0.00    +0.000 A 
ATOM     21  C   UNL     1      36.053   1.851  14.362  0.00  0.00    +0.000 A 
ATOM     22  C   UNL     1      34.908   2.491  14.728  0.00  0.00    +0.000 A 
ATOM     23  O   UNL     1      34.718   2.278  16.016  0.00  0.00    +0.000 OA
ATOM     24  C   UNL     1      35.674   1.546  16.492  0.00  0.00    +0.000 A 
BRANCH  24  25
ATOM     25  C   UNL     1      35.916   1.037  17.834  0.00  0.00    +0.000 C 
BRANCH  25  26
ATOM     26  N   UNL     1      35.120  -0.238  18.042  0.00  0.00    +0.000 NA
BRANCH  26  27
ATOM     27  C   UNL     1      36.223  -0.945  18.779  0.00  0.00    +0.000 C 
BRANCH  27  28
ATOM     28  C   UNL     1      36.816  -2.075  18.117  0.00  0.00    +0.000 A 
ATOM     29  C   UNL     1      36.251  -3.002  17.320  0.00  0.00    +0.000 A 
ATOM     30  C   UNL     1      36.978  -4.102  16.847  0.00  0.00    +0.000 A 
ATOM     31  C   UNL     1      38.291  -4.310  17.153  0.00  0.00    +0.000 A 
ATOM     32  C   UNL     1      38.896  -3.337  17.988  0.00  0.00    +0.000 A 
ATOM     33  C   UNL     1      38.192  -2.277  18.451  0.00  0.00    +0.000 A 
ENDBRANCH  27  28
ENDBRANCH  26  27
ENDBRANCH  25  26
ENDBRANCH  24  25
ENDBRANCH  19  20
ENDBRANCH  18  19
ENDBRANCH  13  18
TORSDOF 9
ENDMDL
MODEL 6
REMARK VINA RESULT:      -6.8      1.759      2.704
REMARK  Name = 
REMARK  9 active torsions:
REMARK  status: ('A' for Active; 'I' for Inactive)
REMARK    1  A    between atoms: C_11  and  C_13
REMARK    2  A    between atoms: C_13  and  O_15
REMARK    3  A    between atoms: C_17  and  C_18
REMARK    4  A    between atoms: C_18  and  C_19
REMARK    5  A    between atoms: C_19  and  C_20
REMARK    6  A    between atoms: C_24  and  C_25
REMARK    7  A    between atoms: C_25  and  N_26
REMARK    8  A    between atoms: N_26  and  C_27
REMARK    9  A    between atoms: C_27  and  C_28
REMARK                            x       y       z     vdW  Elec       q    Type
REMARK                         _______ _______ _______ _____ _____    ______ ____
ROOT
ATOM      1  C   UNL     1      39.292  -3.200  16.195  0.00  0.00    +0.000 C 
ATOM      2  C   UNL     1      39.128  -2.497  15.080  0.00  0.00    +0.000 C 
ATOM      3  C   UNL     1      38.328  -2.984  13.943  0.00  0.00    +0.000 C 
ATOM      4  C   UNL     1      38.831  -2.179  12.761  0.00  0.00    +0.000 C 
ATOM      5  C   UNL     1      40.430  -2.498  12.924  0.00  0.00    +0.000 C 
ATOM      6  C   UNL     1      40.765  -1.129  13.735  0.00  0.00    +0.000 C 
ATOM      7  C   UNL     1      42.154  -1.313  14.323  0.00  0.00    +0.000 C 
ATOM      8  C   UNL     1      40.598   0.069  12.954  0.00  0.00    +0.000 C 
ATOM      9  C   UNL     1      39.584   0.069  11.871  0.00  0.00    +0.000 C 
ATOM     10  C   UNL     1      40.011  -0.965  10.886  0.00  0.00    +0.000 C 
ATOM     11  C   UNL     1      40.916  -1.922  11.471  0.00  0.00    +0.000 C 
ATOM     12  C   UNL     1      40.842  -3.224  10.654  0.00  0.00    +0.000 C 
ATOM     13  C   UNL     1      39.845  -1.071  15.047  0.00  0.00    +0.000 C 
ENDROOT
BRANCH  11  14
ATOM     14  C   UNL     1      42.306  -1.487  11.611  0.00  0.00    +0.000 C 
ATOM     15  O   UNL     1      43.160  -2.253  12.120  0.00  0.00    +0.000 OA
BRANCH  14  16
ATOM     16  O   UNL     1      42.776  -0.239  11.215  0.00  0.00    +0.000 OA
ATOM     17  C   UNL     1      44.091   0.207  11.579  0.00  0.00    +0.000 C 
ENDBRANCH  14  16
ENDBRANCH  11  14
BRANCH  13  18
ATOM     18  C   UNL     1      38.533  -0.304  14.279  0.00  0.00    +0.000 C 
BRANCH  18  19
ATOM     19  C   UNL     1      38.241   0.723  15.278  0.00  0.00    +0.000 C 
BRANCH  19  20
ATOM     20  C   UNL     1      38.339   2.146  14.944  0.00  0.00    +0.000 A 
ATOM     21  C   UNL     1      39.316   3.026  14.612  0.00  0.00    +0.000 A 
ATOM     22  C   UNL     1      38.781   4.243  14.317  0.00  0.00    +0.000 A 
ATOM     23  O   UNL     1      37.471   4.153  14.447  0.00  0.00    +0.000 OA
ATOM     24  C   UNL     1      37.141   2.955  14.810  0.00  0.00    +0.000 A 
BRANCH  24  25
ATOM     25  C   UNL     1      35.841   2.356  15.075  0.00  0.00    +0.000 C 
BRANCH  25  26
ATOM     26  N   UNL     1      35.427   2.658  16.503  0.00  0.00    +0.000 NA
BRANCH  26  27
ATOM     27  C   UNL     1      34.656   1.379  16.674  0.00  0.00    +0.000 C 
BRANCH  27  28
ATOM     28  C   UNL     1      35.324   0.315  17.374  0.00  0.00    +0.000 A 
ATOM     29  C   UNL     1      36.114   0.362  18.464  0.00  0.00    +0.000 A 
ATOM     30  C   UNL     1      36.768  -0.780  18.944  0.00  0.00    +0.000 A 
ATOM     31  C   UNL     1      36.652  -2.004  18.352  0.00  0.00    +0.000 A 
ATOM     32  C   UNL     1      35.819  -2.065  17.207  0.00  0.00    +0.000 A 
ATOM     33  C   UNL     1      35.192  -0.959  16.739  0.00  0.00    +0.000 A 
ENDBRANCH  27  28
ENDBRANCH  26  27
ENDBRANCH  25  26
ENDBRANCH  24  25
ENDBRANCH  19  20
ENDBRANCH  18  19
ENDBRANCH  13  18
TORSDOF 9
ENDMDL
MODEL 7
REMARK VINA RESULT:      -6.8      2.561      5.707
REMARK  Name = 
REMARK  9 active torsions:
REMARK  status: ('A' for Active; 'I' for Inactive)
REMARK    1  A    between atoms: C_11  and  C_13
REMARK    2  A    between atoms: C_13  and  O_15
REMARK    3  A    between atoms: C_17  and  C_18
REMARK    4  A    between atoms: C_18  and  C_19
REMARK    5  A    between atoms: C_19  and  C_20
REMARK    6  A    between atoms: C_24  and  C_25
REMARK    7  A    between atoms: C_25  and  N_26
REMARK    8  A    between atoms: N_26  and  C_27
REMARK    9  A    between atoms: C_27  and  C_28
REMARK                            x       y       z     vdW  Elec       q    Type
REMARK                         _______ _______ _______ _____ _____    ______ ____
ROOT
ATOM      1  C   UNL     1      39.324   0.068  11.022  0.00  0.00    +0.000 C 
ATOM      2  C   UNL     1      38.320   0.130  11.888  0.00  0.00    +0.000 C 
ATOM      3  C   UNL     1      36.974   0.593  11.513  0.00  0.00    +0.000 C 
ATOM      4  C   UNL     1      36.340   1.004  12.829  0.00  0.00    +0.000 C 
ATOM      5  C   UNL     1      37.517   2.019  13.348  0.00  0.00    +0.000 C 
ATOM      6  C   UNL     1      38.255   0.914  14.285  0.00  0.00    +0.000 C 
ATOM      7  C   UNL     1      39.610   1.499  14.645  0.00  0.00    +0.000 C 
ATOM      8  C   UNL     1      37.468   0.484  15.412  0.00  0.00    +0.000 C 
ATOM      9  C   UNL     1      35.990   0.491  15.284  0.00  0.00    +0.000 C 
ATOM     10  C   UNL     1      35.587   1.910  15.063  0.00  0.00    +0.000 C 
ATOM     11  C   UNL     1      36.683   2.709  14.575  0.00  0.00    +0.000 C 
ATOM     12  C   UNL     1      36.105   3.923  13.827  0.00  0.00    +0.000 C 
ATOM     13  C   UNL     1      38.657  -0.344  13.375  0.00  0.00    +0.000 C 
ENDROOT
BRANCH  11  14
ATOM     14  C   UNL     1      37.654   3.144  15.579  0.00  0.00    +0.000 C 
ATOM     15  O   UNL     1      37.458   2.903  16.795  0.00  0.00    +0.000 OA
BRANCH  14  16
ATOM     16  O   UNL     1      38.824   3.838  15.285  0.00  0.00    +0.000 OA
ATOM     17  C   UNL     1      39.213   4.991  16.045  0.00  0.00    +0.000 C 
ENDBRANCH  14  16
ENDBRANCH  11  14
BRANCH  13  18
ATOM     18  C   UNL     1      37.173  -1.156  13.573  0.00  0.00    +0.000 C 
BRANCH  18  19
ATOM     19  C   UNL     1      37.668  -2.527  13.696  0.00  0.00    +0.000 C 
BRANCH  19  20
ATOM     20  C   UNL     1      37.127  -3.431  14.714  0.00  0.00    +0.000 A 
ATOM     21  C   UNL     1      36.101  -4.312  14.819  0.00  0.00    +0.000 A 
ATOM     22  C   UNL     1      36.143  -4.950  16.022  0.00  0.00    +0.000 A 
ATOM     23  O   UNL     1      37.188  -4.496  16.686  0.00  0.00    +0.000 OA
ATOM     24  C   UNL     1      37.811  -3.606  15.982  0.00  0.00    +0.000 A 
BRANCH  24  25
ATOM     25  C   UNL     1      39.007  -2.825  16.262  0.00  0.00    +0.000 C 
BRANCH  25  26
ATOM     26  N   UNL     1      40.232  -3.591  15.795  0.00  0.00    +0.000 NA
BRANCH  26  27
ATOM     27  C   UNL     1      40.969  -2.363  15.338  0.00  0.00    +0.000 C 
BRANCH  27  28
ATOM     28  C   UNL     1      41.354  -2.324  13.953  0.00  0.00    +0.000 A 
ATOM     29  C   UNL     1      41.135  -3.220  12.971  0.00  0.00    +0.000 A 
ATOM     30  C   UNL     1      41.685  -3.054  11.693  0.00  0.00    +0.000 A 
ATOM     31  C   UNL     1      42.467  -1.989  11.355  0.00  0.00    +0.000 A 
ATOM     32  C   UNL     1      42.699  -1.038  12.380  0.00  0.00    +0.000 A 
ATOM     33  C   UNL     1      42.173  -1.201  13.618  0.00  0.00    +0.000 A 
ENDBRANCH  27  28
ENDBRANCH  26  27
ENDBRANCH  25  26
ENDBRANCH  24  25
ENDBRANCH  19  20
ENDBRANCH  18  19
ENDBRANCH  13  18
TORSDOF 9
ENDMDL
MODEL 8
REMARK VINA RESULT:      -6.8      3.097      5.055
REMARK  Name = 
REMARK  9 active torsions:
REMARK  status: ('A' for Active; 'I' for Inactive)
REMARK    1  A    between atoms: C_11  and  C_13
REMARK    2  A    between atoms: C_13  and  O_15
REMARK    3  A    between atoms: C_17  and  C_18
REMARK    4  A    between atoms: C_18  and  C_19
REMARK    5  A    between atoms: C_19  and  C_20
REMARK    6  A    between atoms: C_24  and  C_25
REMARK    7  A    between atoms: C_25  and  N_26
REMARK    8  A    between atoms: N_26  and  C_27
REMARK    9  A    between atoms: C_27  and  C_28
REMARK                            x       y       z     vdW  Elec       q    Type
REMARK                         _______ _______ _______ _____ _____    ______ ____
ROOT
ATOM      1  C   UNL     1      39.119  -3.266  16.107  0.00  0.00    +0.000 C 
ATOM      2  C   UNL     1      38.950  -2.520  15.022  0.00  0.00    +0.000 C 
ATOM      3  C   UNL     1      38.160  -2.969  13.863  0.00  0.00    +0.000 C 
ATOM      4  C   UNL     1      38.658  -2.109  12.716  0.00  0.00    +0.000 C 
ATOM      5  C   UNL     1      40.259  -2.416  12.872  0.00  0.00    +0.000 C 
ATOM      6  C   UNL     1      40.576  -1.078  13.740  0.00  0.00    +0.000 C 
ATOM      7  C   UNL     1      41.965  -1.271  14.325  0.00  0.00    +0.000 C 
ATOM      8  C   UNL     1      40.398   0.149  13.009  0.00  0.00    +0.000 C 
ATOM      9  C   UNL     1      39.387   0.182  11.923  0.00  0.00    +0.000 C 
ATOM     10  C   UNL     1      39.829  -0.806  10.897  0.00  0.00    +0.000 C 
ATOM     11  C   UNL     1      40.743  -1.776  11.447  0.00  0.00    +0.000 C 
ATOM     12  C   UNL     1      40.688  -3.043  10.576  0.00  0.00    +0.000 C 
ATOM     13  C   UNL     1      39.651  -1.085  15.050  0.00  0.00    +0.000 C 
ENDROOT
BRANCH  11  14
ATOM     14  C   UNL     1      42.127  -1.330  11.610  0.00  0.00    +0.000 C 
ATOM     15  O   UNL     1      42.471  -0.183  11.234  0.00  0.00    +0.000 OA
BRANCH  14  16
ATOM     16  O   UNL     1      43.138  -2.109  12.164  0.00  0.00    +0.000 OA
ATOM     17  C   UNL     1      44.407  -2.253  11.509  0.00  0.00    +0.000 C 
ENDBRANCH  14  16
ENDBRANCH  11  14
BRANCH  13  18
ATOM     18  C   UNL     1      38.333  -0.302  14.310  0.00  0.00    +0.000 C 
BRANCH  18  19
ATOM     19  C   UNL     1      37.924   0.568  15.412  0.00  0.00    +0.000 C 
BRANCH  19  20
ATOM     20  C   UNL     1      36.629   0.386  16.072  0.00  0.00    +0.000 A 
ATOM     21  C   UNL     1      35.891  -0.647  16.548  0.00  0.00    +0.000 A 
ATOM     22  C   UNL     1      34.763  -0.185  17.157  0.00  0.00    +0.000 A 
ATOM     23  O   UNL     1      34.773   1.132  17.085  0.00  0.00    +0.000 OA
ATOM     24  C   UNL     1      35.835   1.536  16.465  0.00  0.00    +0.000 A 
BRANCH  24  25
ATOM     25  C   UNL     1      36.306   2.874  16.139  0.00  0.00    +0.000 C 
BRANCH  25  26
ATOM     26  N   UNL     1      37.216   3.374  17.246  0.00  0.00    +0.000 NA
BRANCH  26  27
ATOM     27  C   UNL     1      38.050   4.230  16.335  0.00  0.00    +0.000 C 
BRANCH  27  28
ATOM     28  C   UNL     1      39.035   5.067  16.965  0.00  0.00    +0.000 A 
ATOM     29  C   UNL     1      40.109   5.683  16.436  0.00  0.00    +0.000 A 
ATOM     30  C   UNL     1      41.023   6.378  17.238  0.00  0.00    +0.000 A 
ATOM     31  C   UNL     1      40.892   6.481  18.592  0.00  0.00    +0.000 A 
ATOM     32  C   UNL     1      39.762   5.839  19.158  0.00  0.00    +0.000 A 
ATOM     33  C   UNL     1      38.882   5.162  18.383  0.00  0.00    +0.000 A 
ENDBRANCH  27  28
ENDBRANCH  26  27
ENDBRANCH  25  26
ENDBRANCH  24  25
ENDBRANCH  19  20
ENDBRANCH  18  19
ENDBRANCH  13  18
TORSDOF 9
ENDMDL
MODEL 9
REMARK VINA RESULT:      -6.6      2.462      7.232
REMARK  Name = 
REMARK  9 active torsions:
REMARK  status: ('A' for Active; 'I' for Inactive)
REMARK    1  A    between atoms: C_11  and  C_13
REMARK    2  A    between atoms: C_13  and  O_15
REMARK    3  A    between atoms: C_17  and  C_18
REMARK    4  A    between atoms: C_18  and  C_19
REMARK    5  A    between atoms: C_19  and  C_20
REMARK    6  A    between atoms: C_24  and  C_25
REMARK    7  A    between atoms: C_25  and  N_26
REMARK    8  A    between atoms: N_26  and  C_27
REMARK    9  A    between atoms: C_27  and  C_28
REMARK                            x       y       z     vdW  Elec       q    Type
REMARK                         _______ _______ _______ _____ _____    ______ ____
ROOT
ATOM      1  C   UNL     1      38.179  -0.655  12.219  0.00  0.00    +0.000 C 
ATOM      2  C   UNL     1      38.281  -1.481  13.253  0.00  0.00    +0.000 C 
ATOM      3  C   UNL     1      37.955  -2.914  13.162  0.00  0.00    +0.000 C 
ATOM      4  C   UNL     1      37.694  -3.329  14.598  0.00  0.00    +0.000 C 
ATOM      5  C   UNL     1      36.582  -2.187  14.973  0.00  0.00    +0.000 C 
ATOM      6  C   UNL     1      37.646  -1.178  15.676  0.00  0.00    +0.000 C 
ATOM      7  C   UNL     1      36.931   0.153  15.830  0.00  0.00    +0.000 C 
ATOM      8  C   UNL     1      38.225  -1.693  16.889  0.00  0.00    +0.000 C 
ATOM      9  C   UNL     1      38.380  -3.162  17.029  0.00  0.00    +0.000 C 
ATOM     10  C   UNL     1      37.007  -3.742  16.993  0.00  0.00    +0.000 C 
ATOM     11  C   UNL     1      36.062  -2.843  16.379  0.00  0.00    +0.000 C 
ATOM     12  C   UNL     1      34.882  -3.672  15.842  0.00  0.00    +0.000 C 
ATOM     13  C   UNL     1      38.797  -0.826  14.615  0.00  0.00    +0.000 C 
ENDROOT
BRANCH  11  14
ATOM     14  C   UNL     1      35.575  -1.751  17.223  0.00  0.00    +0.000 C 
ATOM     15  O   UNL     1      34.718  -0.946  16.784  0.00  0.00    +0.000 OA
BRANCH  14  16
ATOM     16  O   UNL     1      36.007  -1.519  18.525  0.00  0.00    +0.000 OA
ATOM     17  C   UNL     1      35.645  -0.318  19.223  0.00  0.00    +0.000 C 
ENDBRANCH  14  16
ENDBRANCH  11  14
BRANCH  13  18
ATOM     18  C   UNL     1      39.783  -2.157  15.013  0.00  0.00    +0.000 C 
BRANCH  18  19
ATOM     19  C   UNL     1      41.089  -1.592  14.678  0.00  0.00    +0.000 C 
BRANCH  19  20
ATOM     20  C   UNL     1      41.818  -2.040  13.488  0.00  0.00    +0.000 A 
ATOM     21  C   UNL     1      42.049  -3.211  12.845  0.00  0.00    +0.000 A 
ATOM     22  C   UNL     1      42.755  -2.994  11.701  0.00  0.00    +0.000 A 
ATOM     23  O   UNL     1      42.973  -1.697  11.597  0.00  0.00    +0.000 OA
ATOM     24  C   UNL     1      42.452  -1.076  12.607  0.00  0.00    +0.000 A 
BRANCH  24  25
ATOM     25  C   UNL     1      42.413   0.338  12.949  0.00  0.00    +0.000 C 
BRANCH  25  26
ATOM     26  N   UNL     1      41.348   1.030  12.118  0.00  0.00    +0.000 NA
BRANCH  26  27
ATOM     27  C   UNL     1      41.091   2.109  13.133  0.00  0.00    +0.000 C 
BRANCH  27  28
ATOM     28  C   UNL     1      39.726   2.538  13.281  0.00  0.00    +0.000 A 
ATOM     29  C   UNL     1      38.787   2.765  12.343  0.00  0.00    +0.000 A 
ATOM     30  C   UNL     1      37.531   3.287  12.677  0.00  0.00    +0.000 A 
ATOM     31  C   UNL     1      37.172   3.594  13.957  0.00  0.00    +0.000 A 
ATOM     32  C   UNL     1      38.153   3.353  14.952  0.00  0.00    +0.000 A 
ATOM     33  C   UNL     1      39.370   2.856  14.629  0.00  0.00    +0.000 A 
ENDBRANCH  27  28
ENDBRANCH  26  27
ENDBRANCH  25  26
ENDBRANCH  24  25
ENDBRANCH  19  20
ENDBRANCH  18  19
ENDBRANCH  13  18
TORSDOF 9
ENDMDL
MODEL 10
REMARK VINA RESULT:      -6.4      3.947      8.204
REMARK  Name = 
REMARK  9 active torsions:
REMARK  status: ('A' for Active; 'I' for Inactive)
REMARK    1  A    between atoms: C_11  and  C_13
REMARK    2  A    between atoms: C_13  and  O_15
REMARK    3  A    between atoms: C_17  and  C_18
REMARK    4  A    between atoms: C_18  and  C_19
REMARK    5  A    between atoms: C_19  and  C_20
REMARK    6  A    between atoms: C_24  and  C_25
REMARK    7  A    between atoms: C_25  and  N_26
REMARK    8  A    between atoms: N_26  and  C_27
REMARK    9  A    between atoms: C_27  and  C_28
REMARK                            x       y       z     vdW  Elec       q    Type
REMARK                         _______ _______ _______ _____ _____    ______ ____
ROOT
ATOM      1  C   UNL     1      38.528  -0.631  12.155  0.00  0.00    +0.000 C 
ATOM      2  C   UNL     1      38.517  -1.464  13.189  0.00  0.00    +0.000 C 
ATOM      3  C   UNL     1      38.105  -2.873  13.072  0.00  0.00    +0.000 C 
ATOM      4  C   UNL     1      37.736  -3.273  14.488  0.00  0.00    +0.000 C 
ATOM      5  C   UNL     1      36.680  -2.062  14.805  0.00  0.00    +0.000 C 
ATOM      6  C   UNL     1      37.764  -1.125  15.573  0.00  0.00    +0.000 C 
ATOM      7  C   UNL     1      37.128   0.249  15.694  0.00  0.00    +0.000 C 
ATOM      8  C   UNL     1      38.238  -1.678  16.815  0.00  0.00    +0.000 C 
ATOM      9  C   UNL     1      38.290  -3.154  16.956  0.00  0.00    +0.000 C 
ATOM     10  C   UNL     1      36.887  -3.644  16.837  0.00  0.00    +0.000 C 
ATOM     11  C   UNL     1      36.039  -2.685  16.175  0.00  0.00    +0.000 C 
ATOM     12  C   UNL     1      34.841  -3.435  15.567  0.00  0.00    +0.000 C 
ATOM     13  C   UNL     1      38.994  -0.846  14.582  0.00  0.00    +0.000 C 
ENDROOT
BRANCH  11  14
ATOM     14  C   UNL     1      35.575  -1.566  16.996  0.00  0.00    +0.000 C 
ATOM     15  O   UNL     1      34.882  -0.653  16.486  0.00  0.00    +0.000 OA
BRANCH  14  16
ATOM     16  O   UNL     1      35.857  -1.422  18.350  0.00  0.00    +0.000 OA
ATOM     17  C   UNL     1      35.729  -0.150  19.003  0.00  0.00    +0.000 C 
ENDBRANCH  14  16
ENDBRANCH  11  14
BRANCH  13  18
ATOM     18  C   UNL     1      39.868  -2.238  15.029  0.00  0.00    +0.000 C 
BRANCH  18  19
ATOM     19  C   UNL     1      41.228  -1.738  14.828  0.00  0.00    +0.000 C 
BRANCH  19  20
ATOM     20  C   UNL     1      42.108  -2.338  13.822  0.00  0.00    +0.000 A 
ATOM     21  C   UNL     1      41.998  -3.235  12.811  0.00  0.00    +0.000 A 
ATOM     22  C   UNL     1      43.177  -3.340  12.138  0.00  0.00    +0.000 A 
ATOM     23  O   UNL     1      44.040  -2.515  12.699  0.00  0.00    +0.000 OA
ATOM     24  C   UNL     1      43.484  -1.895  13.690  0.00  0.00    +0.000 A 
BRANCH  24  25
ATOM     25  C   UNL     1      44.004  -0.894  14.610  0.00  0.00    +0.000 C 
BRANCH  25  26
ATOM     26  N   UNL     1      44.981  -1.548  15.569  0.00  0.00    +0.000 NA
BRANCH  26  27
ATOM     27  C   UNL     1      45.329  -0.266  16.273  0.00  0.00    +0.000 C 
BRANCH  27  28
ATOM     28  C   UNL     1      45.845  -0.388  17.610  0.00  0.00    +0.000 A 
ATOM     29  C   UNL     1      46.452   0.529  18.387  0.00  0.00    +0.000 A 
ATOM     30  C   UNL     1      46.987   0.190  19.637  0.00  0.00    +0.000 A 
ATOM     31  C   UNL     1      46.930  -1.073  20.150  0.00  0.00    +0.000 A 
ATOM     32  C   UNL     1      46.288  -2.044  19.341  0.00  0.00    +0.000 A 
ATOM     33  C   UNL     1      45.778  -1.718  18.130  0.00  0.00    +0.000 A 
ENDBRANCH  27  28
ENDBRANCH  26  27
ENDBRANCH  25  26
ENDBRANCH  24  25
ENDBRANCH  19  20
ENDBRANCH  18  19
ENDBRANCH  13  18
TORSDOF 9
ENDMDL
