MODEL 1
REMARK VINA RESULT:      -8.4      0.000      0.000
REMARK  Name = 
REMARK  5 active torsions:
REMARK  status: ('A' for Active; 'I' for Inactive)
REMARK    1  A    between atoms: C_2  and  C_3
REMARK    2  A    between atoms: C_8  and  C_10
REMARK    3  A    between atoms: C_22  and  O_23
REMARK    4  A    between atoms: O_23  and  C_24
REMARK    5  A    between atoms: C_24  and  C_25
REMARK                            x       y       z     vdW  Elec       q    Type
REMARK                         _______ _______ _______ _____ _____    ______ ____
ROOT
ATOM      1  C   UNL     1      36.798  -2.735  15.563  0.00  0.00    +0.000 C 
ATOM      2  C   UNL     1      36.772  -2.001  14.232  0.00  0.00    +0.000 C 
ATOM      3  C   UNL     1      38.174  -1.619  13.807  0.00  0.00    +0.000 C 
ATOM      4  C   UNL     1      38.932  -2.793  13.230  0.00  0.00    +0.000 C 
ATOM      5  O   UNL     1      38.153  -0.633  12.827  0.00  0.00    +0.000 OA
ATOM      6  C   UNL     1      38.899  -1.043  15.008  0.00  0.00    +0.000 C 
ATOM      7  O   UNL     1      38.150   0.049  15.437  0.00  0.00    +0.000 OA
ATOM      8  C   UNL     1      39.018  -2.031  16.150  0.00  0.00    +0.000 C 
ATOM      9  C   UNL     1      38.291  -3.401  15.623  0.00  0.00    +0.000 C 
ATOM     10  C   UNL     1      38.116  -4.036  17.117  0.00  0.00    +0.000 C 
ATOM     11  C   UNL     1      37.519  -5.380  16.775  0.00  0.00    +0.000 C 
ATOM     12  C   UNL     1      36.178  -5.127  16.123  0.00  0.00    +0.000 A 
ATOM     13  C   UNL     1      35.252  -6.130  16.076  0.00  0.00    +0.000 A 
ATOM     14  C   UNL     1      33.993  -5.966  15.483  0.00  0.00    +0.000 A 
ATOM     15  C   UNL     1      33.710  -4.753  14.944  0.00  0.00    +0.000 A 
ATOM     16  C   UNL     1      34.644  -3.722  14.987  0.00  0.00    +0.000 A 
ATOM     17  C   UNL     1      35.878  -3.890  15.570  0.00  0.00    +0.000 A 
ENDROOT
BRANCH   6  18
ATOM     18  C   UNL     1      40.237  -0.605  14.549  0.00  0.00    +0.000 A 
ATOM     19  C   UNL     1      41.318  -1.459  14.681  0.00  0.00    +0.000 A 
ATOM     20  C   UNL     1      42.572  -1.084  14.259  0.00  0.00    +0.000 A 
ATOM     21  C   UNL     1      42.752   0.147  13.704  0.00  0.00    +0.000 A 
ATOM     22  C   UNL     1      41.648   0.968  13.592  0.00  0.00    +0.000 A 
ATOM     23  N   UNL     1      40.432   0.601  14.001  0.00  0.00    +0.000 NA
ENDBRANCH   6  18
BRANCH   1  25
ATOM     24  C   UNL     1      35.283  -1.128  16.677  0.00  0.00    +0.000 C 
ATOM     25  C   UNL     1      36.598  -1.845  16.716  0.00  0.00    +0.000 C 
ENDBRANCH   1  25
BRANCH  14  26
ATOM     26  O   UNL     1      33.101  -7.007  15.459  0.00  0.00    +0.000 OA
BRANCH  26  27
ATOM     27  C   UNL     1      33.429  -8.334  15.613  0.00  0.00    +0.000 C 
BRANCH  27  28
ATOM     28  C   UNL     1      33.751  -8.943  14.308  0.00  0.00    +0.000 A 
ATOM     29  C   UNL     1      33.183  -8.632  13.110  0.00  0.00    +0.000 A 
ATOM     30  C   UNL     1      33.559  -9.266  11.963  0.00  0.00    +0.000 A 
ATOM     31  C   UNL     1      34.538 -10.245  12.013  0.00  0.00    +0.000 A 
ATOM     32  N   UNL     1      35.082 -10.539  13.192  0.00  0.00    +0.000 NA
ATOM     33  C   UNL     1      34.731  -9.935  14.319  0.00  0.00    +0.000 A 
ATOM     34  C   UNL     1      35.393 -10.317  15.621  0.00  0.00    +0.000 C 
ENDBRANCH  27  28
ENDBRANCH  26  27
ENDBRANCH  14  26
TORSDOF 5
ENDMDL
MODEL 2
REMARK VINA RESULT:      -7.9      3.510      9.677
REMARK  Name = 
REMARK  5 active torsions:
REMARK  status: ('A' for Active; 'I' for Inactive)
REMARK    1  A    between atoms: C_2  and  C_3
REMARK    2  A    between atoms: C_8  and  C_10
REMARK    3  A    between atoms: C_22  and  O_23
REMARK    4  A    between atoms: O_23  and  C_24
REMARK    5  A    between atoms: C_24  and  C_25
REMARK                            x       y       z     vdW  Elec       q    Type
REMARK                         _______ _______ _______ _____ _____    ______ ____
ROOT
ATOM      1  C   UNL     1      40.611  -1.144  13.559  0.00  0.00    +0.000 C 
ATOM      2  C   UNL     1      40.008  -0.550  14.822  0.00  0.00    +0.000 C 
ATOM      3  C   UNL     1      38.877  -1.417  15.330  0.00  0.00    +0.000 C 
ATOM      4  C   UNL     1      39.383  -2.642  16.058  0.00  0.00    +0.000 C 
ATOM      5  O   UNL     1      38.071  -0.723  16.225  0.00  0.00    +0.000 OA
ATOM      6  C   UNL     1      38.005  -1.810  14.152  0.00  0.00    +0.000 C 
ATOM      7  O   UNL     1      37.558  -0.623  13.579  0.00  0.00    +0.000 OA
ATOM      8  C   UNL     1      38.758  -2.603  13.105  0.00  0.00    +0.000 C 
ATOM      9  C   UNL     1      40.287  -2.743  13.675  0.00  0.00    +0.000 C 
ATOM     10  C   UNL     1      40.929  -3.136  12.225  0.00  0.00    +0.000 C 
ATOM     11  C   UNL     1      42.365  -3.387  12.621  0.00  0.00    +0.000 C 
ATOM     12  C   UNL     1      42.927  -2.081  13.137  0.00  0.00    +0.000 A 
ATOM     13  C   UNL     1      44.280  -1.903  13.186  0.00  0.00    +0.000 A 
ATOM     14  C   UNL     1      44.869  -0.722  13.657  0.00  0.00    +0.000 A 
ATOM     15  C   UNL     1      44.037   0.266  14.075  0.00  0.00    +0.000 A 
ATOM     16  C   UNL     1      42.656   0.097  14.028  0.00  0.00    +0.000 A 
ATOM     17  C   UNL     1      42.086  -1.065  13.565  0.00  0.00    +0.000 A 
ENDROOT
BRANCH   6  18
ATOM     18  C   UNL     1      36.865  -2.590  14.685  0.00  0.00    +0.000 A 
ATOM     19  C   UNL     1      36.805  -3.953  14.460  0.00  0.00    +0.000 A 
ATOM     20  C   UNL     1      35.762  -4.707  14.946  0.00  0.00    +0.000 A 
ATOM     21  C   UNL     1      34.773  -4.099  15.661  0.00  0.00    +0.000 A 
ATOM     22  C   UNL     1      34.872  -2.737  15.862  0.00  0.00    +0.000 A 
ATOM     23  N   UNL     1      35.885  -2.009  15.389  0.00  0.00    +0.000 NA
ENDBRANCH   6  18
BRANCH   1  25
ATOM     24  C   UNL     1      40.193   0.884  12.204  0.00  0.00    +0.000 C 
ATOM     25  C   UNL     1      40.020  -0.600  12.327  0.00  0.00    +0.000 C 
ENDBRANCH   1  25
BRANCH  14  26
ATOM     26  O   UNL     1      46.234  -0.596  13.688  0.00  0.00    +0.000 OA
BRANCH  26  27
ATOM     27  C   UNL     1      47.079  -1.347  14.471  0.00  0.00    +0.000 C 
BRANCH  27  28
ATOM     28  C   UNL     1      46.749  -1.176  15.900  0.00  0.00    +0.000 A 
ATOM     29  C   UNL     1      46.730  -0.003  16.590  0.00  0.00    +0.000 A 
ATOM     30  C   UNL     1      46.411   0.033  17.915  0.00  0.00    +0.000 A 
ATOM     31  C   UNL     1      46.101  -1.144  18.576  0.00  0.00    +0.000 A 
ATOM     32  N   UNL     1      46.126  -2.283  17.887  0.00  0.00    +0.000 NA
ATOM     33  C   UNL     1      46.434  -2.340  16.599  0.00  0.00    +0.000 A 
ATOM     34  C   UNL     1      46.440  -3.669  15.881  0.00  0.00    +0.000 C 
ENDBRANCH  27  28
ENDBRANCH  26  27
ENDBRANCH  14  26
TORSDOF 5
ENDMDL
MODEL 3
REMARK VINA RESULT:      -7.7     10.581     12.628
REMARK  Name = 
REMARK  5 active torsions:
REMARK  status: ('A' for Active; 'I' for Inactive)
REMARK    1  A    between atoms: C_2  and  C_3
REMARK    2  A    between atoms: C_8  and  C_10
REMARK    3  A    between atoms: C_22  and  O_23
REMARK    4  A    between atoms: O_23  and  C_24
REMARK    5  A    between atoms: C_24  and  C_25
REMARK                            x       y       z     vdW  Elec       q    Type
REMARK                         _______ _______ _______ _____ _____    ______ ____
ROOT
ATOM      1  C   UNL     1      39.510   7.331  17.775  0.00  0.00    +0.000 C 
ATOM      2  C   UNL     1      40.652   8.322  17.607  0.00  0.00    +0.000 C 
ATOM      3  C   UNL     1      41.812   7.953  18.506  0.00  0.00    +0.000 C 
ATOM      4  C   UNL     1      42.624   6.807  17.944  0.00  0.00    +0.000 C 
ATOM      5  O   UNL     1      42.685   9.022  18.667  0.00  0.00    +0.000 OA
ATOM      6  C   UNL     1      41.266   7.608  19.879  0.00  0.00    +0.000 C 
ATOM      7  O   UNL     1      40.577   8.732  20.324  0.00  0.00    +0.000 OA
ATOM      8  C   UNL     1      40.314   6.430  19.851  0.00  0.00    +0.000 C 
ATOM      9  C   UNL     1      40.242   5.960  18.284  0.00  0.00    +0.000 C 
ATOM     10  C   UNL     1      38.861   5.108  18.469  0.00  0.00    +0.000 C 
ATOM     11  C   UNL     1      38.710   4.527  17.083  0.00  0.00    +0.000 C 
ATOM     12  C   UNL     1      38.521   5.682  16.125  0.00  0.00    +0.000 A 
ATOM     13  C   UNL     1      37.969   5.455  14.897  0.00  0.00    +0.000 A 
ATOM     14  C   UNL     1      37.770   6.477  13.959  0.00  0.00    +0.000 A 
ATOM     15  C   UNL     1      38.150   7.731  14.314  0.00  0.00    +0.000 A 
ATOM     16  C   UNL     1      38.712   7.976  15.563  0.00  0.00    +0.000 A 
ATOM     17  C   UNL     1      38.905   6.968  16.478  0.00  0.00    +0.000 A 
ENDROOT
BRANCH   6  18
ATOM     18  C   UNL     1      42.424   7.328  20.758  0.00  0.00    +0.000 A 
ATOM     19  C   UNL     1      42.767   6.018  21.040  0.00  0.00    +0.000 A 
ATOM     20  C   UNL     1      43.840   5.724  21.849  0.00  0.00    +0.000 A 
ATOM     21  C   UNL     1      44.576   6.741  22.380  0.00  0.00    +0.000 A 
ATOM     22  C   UNL     1      44.199   8.033  22.074  0.00  0.00    +0.000 A 
ATOM     23  N   UNL     1      43.158   8.315  21.289  0.00  0.00    +0.000 NA
ENDBRANCH   6  18
BRANCH   1  25
ATOM     24  C   UNL     1      37.839   9.050  18.387  0.00  0.00    +0.000 C 
ATOM     25  C   UNL     1      38.512   7.765  18.764  0.00  0.00    +0.000 C 
ENDBRANCH   1  25
BRANCH  14  26
ATOM     26  O   UNL     1      37.215   6.194  12.737  0.00  0.00    +0.000 OA
BRANCH  26  27
ATOM     27  C   UNL     1      35.972   5.639  12.544  0.00  0.00    +0.000 C 
BRANCH  27  28
ATOM     28  C   UNL     1      35.343   6.189  11.326  0.00  0.00    +0.000 A 
ATOM     29  C   UNL     1      35.787   6.035  10.048  0.00  0.00    +0.000 A 
ATOM     30  C   UNL     1      35.123   6.593   8.997  0.00  0.00    +0.000 A 
ATOM     31  C   UNL     1      33.976   7.334   9.228  0.00  0.00    +0.000 A 
ATOM     32  N   UNL     1      33.556   7.477  10.483  0.00  0.00    +0.000 NA
ATOM     33  C   UNL     1      34.186   6.942  11.520  0.00  0.00    +0.000 A 
ATOM     34  C   UNL     1      33.651   7.144  12.918  0.00  0.00    +0.000 C 
ENDBRANCH  27  28
ENDBRANCH  26  27
ENDBRANCH  14  26
TORSDOF 5
ENDMDL
MODEL 4
REMARK VINA RESULT:      -7.7      5.490      9.602
REMARK  Name = 
REMARK  5 active torsions:
REMARK  status: ('A' for Active; 'I' for Inactive)
REMARK    1  A    between atoms: C_2  and  C_3
REMARK    2  A    between atoms: C_8  and  C_10
REMARK    3  A    between atoms: C_22  and  O_23
REMARK    4  A    between atoms: O_23  and  C_24
REMARK    5  A    between atoms: C_24  and  C_25
REMARK                            x       y       z     vdW  Elec       q    Type
REMARK                         _______ _______ _______ _____ _____    ______ ____
ROOT
ATOM      1  C   UNL     1      38.621  -0.095  12.971  0.00  0.00    +0.000 C 
ATOM      2  C   UNL     1      37.436  -1.020  13.196  0.00  0.00    +0.000 C 
ATOM      3  C   UNL     1      37.303  -1.368  14.664  0.00  0.00    +0.000 C 
ATOM      4  C   UNL     1      36.675  -0.245  15.459  0.00  0.00    +0.000 C 
ATOM      5  O   UNL     1      36.500  -2.487  14.847  0.00  0.00    +0.000 OA
ATOM      6  C   UNL     1      38.680  -1.709  15.202  0.00  0.00    +0.000 C 
ATOM      7  O   UNL     1      39.151  -2.772  14.438  0.00  0.00    +0.000 OA
ATOM      8  C   UNL     1      39.656  -0.556  15.089  0.00  0.00    +0.000 C 
ATOM      9  C   UNL     1      38.811   0.669  14.404  0.00  0.00    +0.000 C 
ATOM     10  C   UNL     1      40.140   1.506  13.958  0.00  0.00    +0.000 C 
ATOM     11  C   UNL     1      39.500   2.742  13.371  0.00  0.00    +0.000 C 
ATOM     12  C   UNL     1      38.692   2.307  12.168  0.00  0.00    +0.000 A 
ATOM     13  C   UNL     1      38.341   3.228  11.223  0.00  0.00    +0.000 A 
ATOM     14  C   UNL     1      37.591   2.895  10.088  0.00  0.00    +0.000 A 
ATOM     15  C   UNL     1      37.212   1.598   9.949  0.00  0.00    +0.000 A 
ATOM     16  C   UNL     1      37.564   0.650  10.904  0.00  0.00    +0.000 A 
ATOM     17  C   UNL     1      38.301   0.984  12.016  0.00  0.00    +0.000 A 
ENDROOT
BRANCH   6  18
ATOM     18  C   UNL     1      38.513  -2.121  16.615  0.00  0.00    +0.000 A 
ATOM     19  C   UNL     1      38.737  -3.438  16.974  0.00  0.00    +0.000 A 
ATOM     20  C   UNL     1      38.595  -3.850  18.278  0.00  0.00    +0.000 A 
ATOM     21  C   UNL     1      38.228  -2.947  19.230  0.00  0.00    +0.000 A 
ATOM     22  C   UNL     1      38.013  -1.644  18.829  0.00  0.00    +0.000 A 
ATOM     23  N   UNL     1      38.152  -1.246  17.563  0.00  0.00    +0.000 NA
ENDBRANCH   6  18
BRANCH   1  25
ATOM     24  C   UNL     1      39.721  -1.616  11.358  0.00  0.00    +0.000 C 
ATOM     25  C   UNL     1      39.854  -0.816  12.618  0.00  0.00    +0.000 C 
ENDBRANCH   1  25
BRANCH  14  26
ATOM     26  O   UNL     1      37.262   3.859   9.170  0.00  0.00    +0.000 OA
BRANCH  26  27
ATOM     27  C   UNL     1      35.988   4.319   8.929  0.00  0.00    +0.000 C 
BRANCH  27  28
ATOM     28  C   UNL     1      35.635   4.145   7.507  0.00  0.00    +0.000 A 
ATOM     29  C   UNL     1      35.957   3.082   6.719  0.00  0.00    +0.000 A 
ATOM     30  C   UNL     1      35.577   3.030   5.411  0.00  0.00    +0.000 A 
ATOM     31  C   UNL     1      34.851   4.077   4.868  0.00  0.00    +0.000 A 
ATOM     32  N   UNL     1      34.545   5.110   5.651  0.00  0.00    +0.000 NA
ATOM     33  C   UNL     1      34.905   5.180   6.925  0.00  0.00    +0.000 A 
ATOM     34  C   UNL     1      34.521   6.382   7.755  0.00  0.00    +0.000 C 
ENDBRANCH  27  28
ENDBRANCH  26  27
ENDBRANCH  14  26
TORSDOF 5
ENDMDL
MODEL 5
REMARK VINA RESULT:      -7.6     20.481     23.643
REMARK  Name = 
REMARK  5 active torsions:
REMARK  status: ('A' for Active; 'I' for Inactive)
REMARK    1  A    between atoms: C_2  and  C_3
REMARK    2  A    between atoms: C_8  and  C_10
REMARK    3  A    between atoms: C_22  and  O_23
REMARK    4  A    between atoms: O_23  and  C_24
REMARK    5  A    between atoms: C_24  and  C_25
REMARK                            x       y       z     vdW  Elec       q    Type
REMARK                         _______ _______ _______ _____ _____    ______ ____
ROOT
ATOM      1  C   UNL     1      19.248   0.963   0.421  0.00  0.00    +0.000 C 
ATOM      2  C   UNL     1      18.853   1.785   1.637  0.00  0.00    +0.000 C 
ATOM      3  C   UNL     1      18.521   0.882   2.805  0.00  0.00    +0.000 C 
ATOM      4  C   UNL     1      19.763   0.344   3.478  0.00  0.00    +0.000 C 
ATOM      5  O   UNL     1      17.799   1.561   3.779  0.00  0.00    +0.000 OA
ATOM      6  C   UNL     1      17.643  -0.250   2.303  0.00  0.00    +0.000 C 
ATOM      7  O   UNL     1      16.516   0.344   1.743  0.00  0.00    +0.000 OA
ATOM      8  C   UNL     1      18.325  -1.095   1.247  0.00  0.00    +0.000 C 
ATOM      9  C   UNL     1      19.812  -0.437   1.051  0.00  0.00    +0.000 C 
ATOM     10  C   UNL     1      20.081  -1.157  -0.391  0.00  0.00    +0.000 C 
ATOM     11  C   UNL     1      21.493  -0.698  -0.667  0.00  0.00    +0.000 C 
ATOM     12  C   UNL     1      21.463   0.808  -0.800  0.00  0.00    +0.000 A 
ATOM     13  C   UNL     1      22.488   1.449  -1.434  0.00  0.00    +0.000 A 
ATOM     14  C   UNL     1      22.527   2.841  -1.588  0.00  0.00    +0.000 A 
ATOM     15  C   UNL     1      21.491   3.554  -1.077  0.00  0.00    +0.000 A 
ATOM     16  C   UNL     1      20.439   2.913  -0.431  0.00  0.00    +0.000 A 
ATOM     17  C   UNL     1      20.408   1.546  -0.283  0.00  0.00    +0.000 A 
ENDROOT
BRANCH   6  18
ATOM     18  C   UNL     1      17.268  -1.072   3.475  0.00  0.00    +0.000 A 
ATOM     19  C   UNL     1      17.843  -2.319   3.647  0.00  0.00    +0.000 A 
ATOM     20  C   UNL     1      17.520  -3.105   4.728  0.00  0.00    +0.000 A 
ATOM     21  C   UNL     1      16.619  -2.649   5.643  0.00  0.00    +0.000 A 
ATOM     22  C   UNL     1      16.069  -1.400   5.433  0.00  0.00    +0.000 A 
ATOM     23  N   UNL     1      16.384  -0.639   4.383  0.00  0.00    +0.000 NA
ENDBRANCH   6  18
BRANCH   1  25
ATOM     24  C   UNL     1      17.492   1.938  -1.025  0.00  0.00    +0.000 C 
ATOM     25  C   UNL     1      18.118   0.689  -0.480  0.00  0.00    +0.000 C 
ENDBRANCH   1  25
BRANCH  14  26
ATOM     26  O   UNL     1      23.583   3.436  -2.230  0.00  0.00    +0.000 OA
BRANCH  26  27
ATOM     27  C   UNL     1      24.432   4.359  -1.666  0.00  0.00    +0.000 C 
BRANCH  27  28
ATOM     28  C   UNL     1      25.720   3.730  -1.311  0.00  0.00    +0.000 A 
ATOM     29  C   UNL     1      25.887   2.550  -0.653  0.00  0.00    +0.000 A 
ATOM     30  C   UNL     1      27.131   2.065  -0.376  0.00  0.00    +0.000 A 
ATOM     31  C   UNL     1      28.248   2.783  -0.769  0.00  0.00    +0.000 A 
ATOM     32  N   UNL     1      28.067   3.936  -1.410  0.00  0.00    +0.000 NA
ATOM     33  C   UNL     1      26.867   4.425  -1.689  0.00  0.00    +0.000 A 
ATOM     34  C   UNL     1      26.737   5.739  -2.422  0.00  0.00    +0.000 C 
ENDBRANCH  27  28
ENDBRANCH  26  27
ENDBRANCH  14  26
TORSDOF 5
ENDMDL
MODEL 6
REMARK VINA RESULT:      -7.5     28.519     31.852
REMARK  Name = 
REMARK  5 active torsions:
REMARK  status: ('A' for Active; 'I' for Inactive)
REMARK    1  A    between atoms: C_2  and  C_3
REMARK    2  A    between atoms: C_8  and  C_10
REMARK    3  A    between atoms: C_22  and  O_23
REMARK    4  A    between atoms: O_23  and  C_24
REMARK    5  A    between atoms: C_24  and  C_25
REMARK                            x       y       z     vdW  Elec       q    Type
REMARK                         _______ _______ _______ _____ _____    ______ ____
ROOT
ATOM      1  C   UNL     1      26.403  16.605  35.308  0.00  0.00    +0.000 C 
ATOM      2  C   UNL     1      27.455  17.507  35.934  0.00  0.00    +0.000 C 
ATOM      3  C   UNL     1      28.813  16.840  35.908  0.00  0.00    +0.000 C 
ATOM      4  C   UNL     1      29.455  16.913  34.540  0.00  0.00    +0.000 C 
ATOM      5  O   UNL     1      29.692  17.447  36.797  0.00  0.00    +0.000 OA
ATOM      6  C   UNL     1      28.648  15.398  36.352  0.00  0.00    +0.000 C 
ATOM      7  O   UNL     1      28.094  15.439  37.628  0.00  0.00    +0.000 OA
ATOM      8  C   UNL     1      27.729  14.607  35.445  0.00  0.00    +0.000 C 
ATOM      9  C   UNL     1      27.251  15.656  34.281  0.00  0.00    +0.000 C 
ATOM     10  C   UNL     1      25.972  14.754  33.815  0.00  0.00    +0.000 C 
ATOM     11  C   UNL     1      25.466  15.578  32.654  0.00  0.00    +0.000 C 
ATOM     12  C   UNL     1      25.025  16.915  33.205  0.00  0.00    +0.000 A 
ATOM     13  C   UNL     1      24.172  17.695  32.478  0.00  0.00    +0.000 A 
ATOM     14  C   UNL     1      23.728  18.946  32.926  0.00  0.00    +0.000 A 
ATOM     15  C   UNL     1      24.181  19.374  34.132  0.00  0.00    +0.000 A 
ATOM     16  C   UNL     1      25.049  18.588  34.883  0.00  0.00    +0.000 A 
ATOM     17  C   UNL     1      25.481  17.361  34.437  0.00  0.00    +0.000 A 
ENDROOT
BRANCH   6  18
ATOM     18  C   UNL     1      29.998  14.791  36.393  0.00  0.00    +0.000 A 
ATOM     19  C   UNL     1      30.698  14.760  37.586  0.00  0.00    +0.000 A 
ATOM     20  C   UNL     1      31.951  14.199  37.658  0.00  0.00    +0.000 A 
ATOM     21  C   UNL     1      32.512  13.665  36.536  0.00  0.00    +0.000 A 
ATOM     22  C   UNL     1      31.780  13.717  35.367  0.00  0.00    +0.000 A 
ATOM     23  N   UNL     1      30.564  14.262  35.300  0.00  0.00    +0.000 NA
ENDBRANCH   6  18
BRANCH   1  25
ATOM     24  C   UNL     1      24.893  16.581  37.268  0.00  0.00    +0.000 C 
ATOM     25  C   UNL     1      25.697  15.774  36.295  0.00  0.00    +0.000 C 
ENDBRANCH   1  25
BRANCH  14  26
ATOM     26  O   UNL     1      22.873  19.692  32.155  0.00  0.00    +0.000 OA
BRANCH  26  27
ATOM     27  C   UNL     1      22.839  21.066  32.117  0.00  0.00    +0.000 C 
BRANCH  27  28
ATOM     28  C   UNL     1      24.197  21.613  31.924  0.00  0.00    +0.000 A 
ATOM     29  C   UNL     1      25.158  21.114  31.098  0.00  0.00    +0.000 A 
ATOM     30  C   UNL     1      26.383  21.704  31.003  0.00  0.00    +0.000 A 
ATOM     31  C   UNL     1      26.660  22.831  31.758  0.00  0.00    +0.000 A 
ATOM     32  N   UNL     1      25.710  23.305  32.562  0.00  0.00    +0.000 NA
ATOM     33  C   UNL     1      24.512  22.747  32.670  0.00  0.00    +0.000 A 
ATOM     34  C   UNL     1      23.482  23.341  33.600  0.00  0.00    +0.000 C 
ENDBRANCH  27  28
ENDBRANCH  26  27
ENDBRANCH  14  26
TORSDOF 5
ENDMDL
MODEL 7
REMARK VINA RESULT:      -7.4      4.578      7.527
REMARK  Name = 
REMARK  5 active torsions:
REMARK  status: ('A' for Active; 'I' for Inactive)
REMARK    1  A    between atoms: C_2  and  C_3
REMARK    2  A    between atoms: C_8  and  C_10
REMARK    3  A    between atoms: C_22  and  O_23
REMARK    4  A    between atoms: O_23  and  C_24
REMARK    5  A    between atoms: C_24  and  C_25
REMARK                            x       y       z     vdW  Elec       q    Type
REMARK                         _______ _______ _______ _____ _____    ______ ____
ROOT
ATOM      1  C   UNL     1      39.932  -1.561  13.144  0.00  0.00    +0.000 C 
ATOM      2  C   UNL     1      39.440  -2.777  13.913  0.00  0.00    +0.000 C 
ATOM      3  C   UNL     1      38.222  -2.426  14.740  0.00  0.00    +0.000 C 
ATOM      4  C   UNL     1      36.966  -2.355  13.900  0.00  0.00    +0.000 C 
ATOM      5  O   UNL     1      37.992  -3.377  15.728  0.00  0.00    +0.000 OA
ATOM      6  C   UNL     1      38.481  -1.105  15.440  0.00  0.00    +0.000 C 
ATOM      7  O   UNL     1      39.623  -1.284  16.214  0.00  0.00    +0.000 OA
ATOM      8  C   UNL     1      38.722   0.034  14.471  0.00  0.00    +0.000 C 
ATOM      9  C   UNL     1      38.599  -0.627  12.977  0.00  0.00    +0.000 C 
ATOM     10  C   UNL     1      39.367   0.605  12.229  0.00  0.00    +0.000 C 
ATOM     11  C   UNL     1      39.252   0.164  10.789  0.00  0.00    +0.000 C 
ATOM     12  C   UNL     1      40.021  -1.131  10.648  0.00  0.00    +0.000 A 
ATOM     13  C   UNL     1      40.425  -1.544   9.411  0.00  0.00    +0.000 A 
ATOM     14  C   UNL     1      41.135  -2.734   9.208  0.00  0.00    +0.000 A 
ATOM     15  C   UNL     1      41.418  -3.486  10.302  0.00  0.00    +0.000 A 
ATOM     16  C   UNL     1      41.014  -3.075  11.569  0.00  0.00    +0.000 A 
ATOM     17  C   UNL     1      40.316  -1.906  11.760  0.00  0.00    +0.000 A 
ENDROOT
BRANCH   6  18
ATOM     18  C   UNL     1      37.310  -0.824  16.302  0.00  0.00    +0.000 A 
ATOM     19  C   UNL     1      36.197  -0.203  15.763  0.00  0.00    +0.000 A 
ATOM     20  C   UNL     1      35.092   0.067  16.535  0.00  0.00    +0.000 A 
ATOM     21  C   UNL     1      35.094  -0.283  17.852  0.00  0.00    +0.000 A 
ATOM     22  C   UNL     1      36.224  -0.900  18.350  0.00  0.00    +0.000 A 
ATOM     23  N   UNL     1      37.295  -1.161  17.598  0.00  0.00    +0.000 NA
ENDBRANCH   6  18
BRANCH   1  25
ATOM     24  C   UNL     1      42.157  -1.671  14.220  0.00  0.00    +0.000 C 
ATOM     25  C   UNL     1      40.982  -0.816  13.855  0.00  0.00    +0.000 C 
ENDBRANCH   1  25
BRANCH  14  26
ATOM     26  O   UNL     1      41.514  -3.104   7.943  0.00  0.00    +0.000 OA
BRANCH  26  27
ATOM     27  C   UNL     1      41.866  -4.379   7.565  0.00  0.00    +0.000 C 
BRANCH  27  28
ATOM     28  C   UNL     1      40.766  -5.020   6.817  0.00  0.00    +0.000 A 
ATOM     29  C   UNL     1      40.104  -4.495   5.750  0.00  0.00    +0.000 A 
ATOM     30  C   UNL     1      39.098  -5.180   5.136  0.00  0.00    +0.000 A 
ATOM     31  C   UNL     1      38.739  -6.433   5.604  0.00  0.00    +0.000 A 
ATOM     32  N   UNL     1      39.395  -6.931   6.650  0.00  0.00    +0.000 NA
ATOM     33  C   UNL     1      40.377  -6.282   7.261  0.00  0.00    +0.000 A 
ATOM     34  C   UNL     1      41.080  -6.910   8.441  0.00  0.00    +0.000 C 
ENDBRANCH  27  28
ENDBRANCH  26  27
ENDBRANCH  14  26
TORSDOF 5
ENDMDL
MODEL 8
REMARK VINA RESULT:      -7.3     19.397     22.912
REMARK  Name = 
REMARK  5 active torsions:
REMARK  status: ('A' for Active; 'I' for Inactive)
REMARK    1  A    between atoms: C_2  and  C_3
REMARK    2  A    between atoms: C_8  and  C_10
REMARK    3  A    between atoms: C_22  and  O_23
REMARK    4  A    between atoms: O_23  and  C_24
REMARK    5  A    between atoms: C_24  and  C_25
REMARK                            x       y       z     vdW  Elec       q    Type
REMARK                         _______ _______ _______ _____ _____    ______ ____
ROOT
ATOM      1  C   UNL     1      14.915  -4.491   5.486  0.00  0.00    +0.000 C 
ATOM      2  C   UNL     1      15.686  -4.563   4.177  0.00  0.00    +0.000 C 
ATOM      3  C   UNL     1      16.331  -3.230   3.865  0.00  0.00    +0.000 C 
ATOM      4  C   UNL     1      17.585  -3.002   4.679  0.00  0.00    +0.000 C 
ATOM      5  O   UNL     1      16.700  -3.149   2.528  0.00  0.00    +0.000 OA
ATOM      6  C   UNL     1      15.314  -2.133   4.118  0.00  0.00    +0.000 C 
ATOM      7  O   UNL     1      14.223  -2.409   3.298  0.00  0.00    +0.000 OA
ATOM      8  C   UNL     1      14.844  -2.091   5.557  0.00  0.00    +0.000 C 
ATOM      9  C   UNL     1      15.654  -3.293   6.319  0.00  0.00    +0.000 C 
ATOM     10  C   UNL     1      14.636  -3.344   7.596  0.00  0.00    +0.000 C 
ATOM     11  C   UNL     1      15.324  -4.380   8.453  0.00  0.00    +0.000 C 
ATOM     12  C   UNL     1      15.311  -5.683   7.686  0.00  0.00    +0.000 A 
ATOM     13  C   UNL     1      15.493  -6.861   8.354  0.00  0.00    +0.000 A 
ATOM     14  C   UNL     1      15.498  -8.103   7.707  0.00  0.00    +0.000 A 
ATOM     15  C   UNL     1      15.312  -8.105   6.361  0.00  0.00    +0.000 A 
ATOM     16  C   UNL     1      15.124  -6.913   5.669  0.00  0.00    +0.000 A 
ATOM     17  C   UNL     1      15.121  -5.698   6.312  0.00  0.00    +0.000 A 
ENDROOT
BRANCH   6  18
ATOM     18  C   UNL     1      15.942  -0.850   3.731  0.00  0.00    +0.000 A 
ATOM     19  C   UNL     1      16.834  -0.237   4.593  0.00  0.00    +0.000 A 
ATOM     20  C   UNL     1      17.437   0.953   4.261  0.00  0.00    +0.000 A 
ATOM     21  C   UNL     1      17.152   1.537   3.064  0.00  0.00    +0.000 A 
ATOM     22  C   UNL     1      16.257   0.893   2.233  0.00  0.00    +0.000 A 
ATOM     23  N   UNL     1      15.672  -0.261   2.558  0.00  0.00    +0.000 NA
ENDBRANCH   6  18
BRANCH   1  25
ATOM     24  C   UNL     1      12.770  -5.184   4.465  0.00  0.00    +0.000 C 
ATOM     25  C   UNL     1      13.492  -4.169   5.299  0.00  0.00    +0.000 C 
ENDBRANCH   1  25
BRANCH  14  26
ATOM     26  O   UNL     1      15.689  -9.255   8.425  0.00  0.00    +0.000 OA
BRANCH  26  27
ATOM     27  C   UNL     1      16.693 -10.168   8.202  0.00  0.00    +0.000 C 
BRANCH  27  28
ATOM     28  C   UNL     1      18.016  -9.532   8.366  0.00  0.00    +0.000 A 
ATOM     29  C   UNL     1      18.487  -8.928   9.492  0.00  0.00    +0.000 A 
ATOM     30  C   UNL     1      19.730  -8.370   9.527  0.00  0.00    +0.000 A 
ATOM     31  C   UNL     1      20.532  -8.414   8.399  0.00  0.00    +0.000 A 
ATOM     32  N   UNL     1      20.056  -9.007   7.305  0.00  0.00    +0.000 NA
ATOM     33  C   UNL     1      18.850  -9.556   7.250  0.00  0.00    +0.000 A 
ATOM     34  C   UNL     1      18.376 -10.214   5.976  0.00  0.00    +0.000 C 
ENDBRANCH  27  28
ENDBRANCH  26  27
ENDBRANCH  14  26
TORSDOF 5
ENDMDL
MODEL 9
REMARK VINA RESULT:      -7.3      4.883      8.542
REMARK  Name = 
REMARK  5 active torsions:
REMARK  status: ('A' for Active; 'I' for Inactive)
REMARK    1  A    between atoms: C_2  and  C_3
REMARK    2  A    between atoms: C_8  and  C_10
REMARK    3  A    between atoms: C_22  and  O_23
REMARK    4  A    between atoms: O_23  and  C_24
REMARK    5  A    between atoms: C_24  and  C_25
REMARK                            x       y       z     vdW  Elec       q    Type
REMARK                         _______ _______ _______ _____ _____    ______ ____
ROOT
ATOM      1  C   UNL     1      40.005  -1.730  13.039  0.00  0.00    +0.000 C 
ATOM      2  C   UNL     1      39.103  -2.898  13.410  0.00  0.00    +0.000 C 
ATOM      3  C   UNL     1      38.178  -2.516  14.546  0.00  0.00    +0.000 C 
ATOM      4  C   UNL     1      37.017  -1.671  14.073  0.00  0.00    +0.000 C 
ATOM      5  O   UNL     1      37.635  -3.641  15.154  0.00  0.00    +0.000 OA
ATOM      6  C   UNL     1      38.989  -1.783  15.599  0.00  0.00    +0.000 C 
ATOM      7  O   UNL     1      39.999  -2.653  15.996  0.00  0.00    +0.000 OA
ATOM      8  C   UNL     1      39.619  -0.511  15.072  0.00  0.00    +0.000 C 
ATOM      9  C   UNL     1      39.159  -0.409  13.503  0.00  0.00    +0.000 C 
ATOM     10  C   UNL     1      40.321   0.666  13.099  0.00  0.00    +0.000 C 
ATOM     11  C   UNL     1      39.960   0.928  11.656  0.00  0.00    +0.000 C 
ATOM     12  C   UNL     1      40.127  -0.373  10.903  0.00  0.00    +0.000 A 
ATOM     13  C   UNL     1      40.262  -0.353   9.544  0.00  0.00    +0.000 A 
ATOM     14  C   UNL     1      40.416  -1.520   8.784  0.00  0.00    +0.000 A 
ATOM     15  C   UNL     1      40.427  -2.702   9.452  0.00  0.00    +0.000 A 
ATOM     16  C   UNL     1      40.292  -2.736  10.836  0.00  0.00    +0.000 A 
ATOM     17  C   UNL     1      40.141  -1.586  11.576  0.00  0.00    +0.000 A 
ENDROOT
BRANCH   6  18
ATOM     18  C   UNL     1      38.081  -1.491  16.731  0.00  0.00    +0.000 A 
ATOM     19  C   UNL     1      38.151  -2.259  17.880  0.00  0.00    +0.000 A 
ATOM     20  C   UNL     1      37.325  -2.010  18.951  0.00  0.00    +0.000 A 
ATOM     21  C   UNL     1      36.424  -0.991  18.878  0.00  0.00    +0.000 A 
ATOM     22  C   UNL     1      36.386  -0.249  17.715  0.00  0.00    +0.000 A 
ATOM     23  N   UNL     1      37.189  -0.493  16.677  0.00  0.00    +0.000 NA
ENDBRANCH   6  18
BRANCH   1  25
ATOM     24  C   UNL     1      42.179  -2.889  13.266  0.00  0.00    +0.000 C 
ATOM     25  C   UNL     1      41.303  -1.764  13.729  0.00  0.00    +0.000 C 
ENDBRANCH   1  25
BRANCH  14  26
ATOM     26  O   UNL     1      40.544  -1.444   7.421  0.00  0.00    +0.000 OA
BRANCH  26  27
ATOM     27  C   UNL     1      40.261  -0.333   6.661  0.00  0.00    +0.000 C 
BRANCH  27  28
ATOM     28  C   UNL     1      39.174  -0.623   5.705  0.00  0.00    +0.000 A 
ATOM     29  C   UNL     1      39.235  -1.480   4.649  0.00  0.00    +0.000 A 
ATOM     30  C   UNL     1      38.164  -1.667   3.827  0.00  0.00    +0.000 A 
ATOM     31  C   UNL     1      36.989  -0.974   4.067  0.00  0.00    +0.000 A 
ATOM     32  N   UNL     1      36.946  -0.138   5.103  0.00  0.00    +0.000 NA
ATOM     33  C   UNL     1      37.976   0.058   5.914  0.00  0.00    +0.000 A 
ATOM     34  C   UNL     1      37.855   1.020   7.072  0.00  0.00    +0.000 C 
ENDBRANCH  27  28
ENDBRANCH  26  27
ENDBRANCH  14  26
TORSDOF 5
ENDMDL
MODEL 10
REMARK VINA RESULT:      -7.2     22.606     25.514
REMARK  Name = 
REMARK  5 active torsions:
REMARK  status: ('A' for Active; 'I' for Inactive)
REMARK    1  A    between atoms: C_2  and  C_3
REMARK    2  A    between atoms: C_8  and  C_10
REMARK    3  A    between atoms: C_22  and  O_23
REMARK    4  A    between atoms: O_23  and  C_24
REMARK    5  A    between atoms: C_24  and  C_25
REMARK                            x       y       z     vdW  Elec       q    Type
REMARK                         _______ _______ _______ _____ _____    ______ ____
ROOT
ATOM      1  C   UNL     1      15.178  -1.030   4.902  0.00  0.00    +0.000 C 
ATOM      2  C   UNL     1      16.507  -0.923   5.633  0.00  0.00    +0.000 C 
ATOM      3  C   UNL     1      17.584  -0.404   4.705  0.00  0.00    +0.000 C 
ATOM      4  C   UNL     1      17.488   1.092   4.504  0.00  0.00    +0.000 C 
ATOM      5  O   UNL     1      18.853  -0.661   5.212  0.00  0.00    +0.000 OA
ATOM      6  C   UNL     1      17.472  -1.137   3.381  0.00  0.00    +0.000 C 
ATOM      7  O   UNL     1      17.614  -2.492   3.667  0.00  0.00    +0.000 OA
ATOM      8  C   UNL     1      16.136  -0.919   2.702  0.00  0.00    +0.000 C 
ATOM      9  C   UNL     1      15.294   0.072   3.699  0.00  0.00    +0.000 C 
ATOM     10  C   UNL     1      13.845  -0.278   3.030  0.00  0.00    +0.000 C 
ATOM     11  C   UNL     1      12.951   0.654   3.813  0.00  0.00    +0.000 C 
ATOM     12  C   UNL     1      13.007   0.226   5.262  0.00  0.00    +0.000 A 
ATOM     13  C   UNL     1      12.016   0.614   6.119  0.00  0.00    +0.000 A 
ATOM     14  C   UNL     1      12.008   0.257   7.473  0.00  0.00    +0.000 A 
ATOM     15  C   UNL     1      13.038  -0.504   7.924  0.00  0.00    +0.000 A 
ATOM     16  C   UNL     1      14.053  -0.907   7.061  0.00  0.00    +0.000 A 
ATOM     17  C   UNL     1      14.054  -0.553   5.733  0.00  0.00    +0.000 A 
ENDROOT
BRANCH   6  18
ATOM     18  C   UNL     1      18.583  -0.670   2.521  0.00  0.00    +0.000 A 
ATOM     19  C   UNL     1      19.739  -1.424   2.427  0.00  0.00    +0.000 A 
ATOM     20  C   UNL     1      20.786  -1.020   1.633  0.00  0.00    +0.000 A 
ATOM     21  C   UNL     1      20.683   0.143   0.929  0.00  0.00    +0.000 A 
ATOM     22  C   UNL     1      19.513   0.865   1.052  0.00  0.00    +0.000 A 
ATOM     23  N   UNL     1      18.498   0.470   1.823  0.00  0.00    +0.000 NA
ENDBRANCH   6  18
BRANCH   1  25
ATOM     24  C   UNL     1      14.897  -3.441   5.383  0.00  0.00    +0.000 C 
ATOM     25  C   UNL     1      14.937  -2.367   4.338  0.00  0.00    +0.000 C 
ENDBRANCH   1  25
BRANCH  14  26
ATOM     26  O   UNL     1      10.991   0.676   8.292  0.00  0.00    +0.000 OA
BRANCH  26  27
ATOM     27  C   UNL     1       9.959   1.502   7.910  0.00  0.00    +0.000 C 
BRANCH  27  28
ATOM     28  C   UNL     1      10.247   2.900   8.288  0.00  0.00    +0.000 A 
ATOM     29  C   UNL     1      10.640   3.340   9.515  0.00  0.00    +0.000 A 
ATOM     30  C   UNL     1      10.877   4.662   9.749  0.00  0.00    +0.000 A 
ATOM     31  C   UNL     1      10.715   5.578   8.723  0.00  0.00    +0.000 A 
ATOM     32  N   UNL     1      10.329   5.131   7.529  0.00  0.00    +0.000 NA
ATOM     33  C   UNL     1      10.094   3.850   7.280  0.00  0.00    +0.000 A 
ATOM     34  C   UNL     1       9.660   3.415   5.900  0.00  0.00    +0.000 C 
ENDBRANCH  27  28
ENDBRANCH  26  27
ENDBRANCH  14  26
TORSDOF 5
ENDMDL
