MODEL 1
REMARK VINA RESULT:      -7.1      0.000      0.000
REMARK  Name = 
REMARK  3 active torsions:
REMARK  status: ('A' for Active; 'I' for Inactive)
REMARK    1  A    between atoms: C_5  and  C_6
REMARK    2  A    between atoms: N_8  and  C_9
REMARK    3  A    between atoms: C_15  and  C_16
REMARK                            x       y       z     vdW  Elec       q    Type
REMARK                         _______ _______ _______ _____ _____    ______ ____
ROOT
ATOM      1  C   UNL     1      17.061  10.361  35.841  0.00  0.00    +0.000 C 
ATOM      2  O   UNL     1      17.711   9.880  34.910  0.00  0.00    +0.000 OA
ATOM      3  N   UNL     1      16.114  11.225  35.508  0.00  0.00    +0.000 NA
ENDROOT
BRANCH   1   8
ATOM      4  C   UNL     1      18.159   8.815  41.264  0.00  0.00    +0.000 C 
ATOM      5  C   UNL     1      17.911   9.194  39.835  0.00  0.00    +0.000 A 
ATOM      6  C   UNL     1      18.748   8.780  38.820  0.00  0.00    +0.000 A 
ATOM      7  C   UNL     1      18.502   9.144  37.489  0.00  0.00    +0.000 A 
ATOM      8  C   UNL     1      17.409   9.923  37.209  0.00  0.00    +0.000 A 
ATOM      9  C   UNL     1      16.597  10.319  38.231  0.00  0.00    +0.000 A 
ATOM     10  C   UNL     1      16.828   9.967  39.550  0.00  0.00    +0.000 A 
ENDBRANCH   1   8
BRANCH   3  11
ATOM     11  C   UNL     1      15.403  11.935  34.616  0.00  0.00    +0.000 A 
ATOM     12  S   UNL     1      14.634  13.364  35.291  0.00  0.00    +0.000 S 
ATOM     13  C   UNL     1      13.869  13.961  33.917  0.00  0.00    +0.000 A 
ATOM     14  C   UNL     1      13.009  15.196  33.770  0.00  0.00    +0.000 C 
ATOM     15  C   UNL     1      14.215  13.056  32.965  0.00  0.00    +0.000 A 
ATOM     16  C   UNL     1      13.665  13.312  31.549  0.00  0.00    +0.000 C 
ATOM     17  C   UNL     1      15.007  12.007  33.318  0.00  0.00    +0.000 A 
BRANCH  17  18
ATOM     18  C   UNL     1      15.400  11.016  32.328  0.00  0.00    +0.000 C 
ATOM     19  N   UNL     1      14.506   9.980  31.958  0.00  0.00    +0.000 NA
ATOM     20  O   UNL     1      16.485  11.012  31.768  0.00  0.00    +0.000 OA
ENDBRANCH  17  18
ENDBRANCH   3  11
TORSDOF 3
ENDMDL
MODEL 2
REMARK VINA RESULT:      -6.8      2.476      7.216
REMARK  Name = 
REMARK  3 active torsions:
REMARK  status: ('A' for Active; 'I' for Inactive)
REMARK    1  A    between atoms: C_5  and  C_6
REMARK    2  A    between atoms: N_8  and  C_9
REMARK    3  A    between atoms: C_15  and  C_16
REMARK                            x       y       z     vdW  Elec       q    Type
REMARK                         _______ _______ _______ _____ _____    ______ ____
ROOT
ATOM      1  C   UNL     1      14.789  12.116  36.270  0.00  0.00    +0.000 C 
ATOM      2  O   UNL     1      13.928  12.499  37.067  0.00  0.00    +0.000 OA
ATOM      3  N   UNL     1      15.771  11.386  36.775  0.00  0.00    +0.000 NA
ENDROOT
BRANCH   1   8
ATOM      4  C   UNL     1      13.981  13.910  30.872  0.00  0.00    +0.000 C 
ATOM      5  C   UNL     1      14.219  13.406  32.264  0.00  0.00    +0.000 A 
ATOM      6  C   UNL     1      14.975  12.279  32.507  0.00  0.00    +0.000 A 
ATOM      7  C   UNL     1      15.187  11.821  33.814  0.00  0.00    +0.000 A 
ATOM      8  C   UNL     1      14.626  12.514  34.856  0.00  0.00    +0.000 A 
ATOM      9  C   UNL     1      13.882  13.626  34.589  0.00  0.00    +0.000 A 
ATOM     10  C   UNL     1      13.665  14.090  33.302  0.00  0.00    +0.000 A 
ENDBRANCH   1   8
BRANCH   3  11
ATOM     11  C   UNL     1      16.406  10.770  37.787  0.00  0.00    +0.000 A 
ATOM     12  S   UNL     1      15.363  10.359  39.140  0.00  0.00    +0.000 S 
ATOM     13  C   UNL     1      16.483   9.633  40.162  0.00  0.00    +0.000 A 
ATOM     14  C   UNL     1      16.268   9.032  41.534  0.00  0.00    +0.000 C 
ATOM     15  C   UNL     1      17.637   9.717  39.451  0.00  0.00    +0.000 A 
ATOM     16  C   UNL     1      18.895   9.128  40.117  0.00  0.00    +0.000 C 
ATOM     17  C   UNL     1      17.605  10.303  38.222  0.00  0.00    +0.000 A 
BRANCH  17  18
ATOM     18  C   UNL     1      18.820  10.412  37.429  0.00  0.00    +0.000 C 
ATOM     19  N   UNL     1      18.968   9.656  36.239  0.00  0.00    +0.000 NA
ATOM     20  O   UNL     1      19.757  11.137  37.723  0.00  0.00    +0.000 OA
ENDBRANCH  17  18
ENDBRANCH   3  11
TORSDOF 3
ENDMDL
MODEL 3
REMARK VINA RESULT:      -6.4      4.098      6.975
REMARK  Name = 
REMARK  3 active torsions:
REMARK  status: ('A' for Active; 'I' for Inactive)
REMARK    1  A    between atoms: C_5  and  C_6
REMARK    2  A    between atoms: N_8  and  C_9
REMARK    3  A    between atoms: C_15  and  C_16
REMARK                            x       y       z     vdW  Elec       q    Type
REMARK                         _______ _______ _______ _____ _____    ______ ____
ROOT
ATOM      1  C   UNL     1      17.447  10.949  37.349  0.00  0.00    +0.000 C 
ATOM      2  O   UNL     1      17.813   9.798  37.095  0.00  0.00    +0.000 OA
ATOM      3  N   UNL     1      18.393  11.793  37.731  0.00  0.00    +0.000 NA
ENDROOT
BRANCH   1   8
ATOM      4  C   UNL     1      11.805  11.997  37.063  0.00  0.00    +0.000 C 
ATOM      5  C   UNL     1      13.283  11.742  37.094  0.00  0.00    +0.000 A 
ATOM      6  C   UNL     1      14.098  12.079  36.034  0.00  0.00    +0.000 A 
ATOM      7  C   UNL     1      15.477  11.833  36.079  0.00  0.00    +0.000 A 
ATOM      8  C   UNL     1      16.008  11.249  37.201  0.00  0.00    +0.000 A 
ATOM      9  C   UNL     1      15.179  10.926  38.235  0.00  0.00    +0.000 A 
ATOM     10  C   UNL     1      13.815  11.163  38.205  0.00  0.00    +0.000 A 
ENDBRANCH   1   8
BRANCH   3  11
ATOM     11  C   UNL     1      19.665  12.112  38.022  0.00  0.00    +0.000 A 
ATOM     12  S   UNL     1      19.900  13.802  38.440  0.00  0.00    +0.000 S 
ATOM     13  C   UNL     1      21.557  13.805  38.726  0.00  0.00    +0.000 A 
ATOM     14  C   UNL     1      22.448  14.956  39.138  0.00  0.00    +0.000 C 
ATOM     15  C   UNL     1      21.903  12.512  38.496  0.00  0.00    +0.000 A 
ATOM     16  C   UNL     1      23.393  12.162  38.675  0.00  0.00    +0.000 C 
ATOM     17  C   UNL     1      20.931  11.631  38.132  0.00  0.00    +0.000 A 
BRANCH  17  18
ATOM     18  C   UNL     1      21.261  10.237  37.877  0.00  0.00    +0.000 C 
ATOM     19  N   UNL     1      21.561   9.801  36.562  0.00  0.00    +0.000 NA
ATOM     20  O   UNL     1      21.302   9.381  38.746  0.00  0.00    +0.000 OA
ENDBRANCH  17  18
ENDBRANCH   3  11
TORSDOF 3
ENDMDL
MODEL 4
REMARK VINA RESULT:      -6.3      2.828      7.397
REMARK  Name = 
REMARK  3 active torsions:
REMARK  status: ('A' for Active; 'I' for Inactive)
REMARK    1  A    between atoms: C_5  and  C_6
REMARK    2  A    between atoms: N_8  and  C_9
REMARK    3  A    between atoms: C_15  and  C_16
REMARK                            x       y       z     vdW  Elec       q    Type
REMARK                         _______ _______ _______ _____ _____    ______ ____
ROOT
ATOM      1  C   UNL     1      17.528  10.051  35.778  0.00  0.00    +0.000 C 
ATOM      2  O   UNL     1      17.691   8.829  35.739  0.00  0.00    +0.000 OA
ATOM      3  N   UNL     1      18.053  10.678  36.819  0.00  0.00    +0.000 NA
ENDROOT
BRANCH   1   8
ATOM      4  C   UNL     1      14.417  12.609  31.681  0.00  0.00    +0.000 C 
ATOM      5  C   UNL     1      15.255  11.919  32.716  0.00  0.00    +0.000 A 
ATOM      6  C   UNL     1      16.264  11.047  32.368  0.00  0.00    +0.000 A 
ATOM      7  C   UNL     1      17.037  10.410  33.348  0.00  0.00    +0.000 A 
ATOM      8  C   UNL     1      16.773  10.669  34.668  0.00  0.00    +0.000 A 
ATOM      9  C   UNL     1      15.769  11.537  34.986  0.00  0.00    +0.000 A 
ATOM     10  C   UNL     1      14.998  12.173  34.028  0.00  0.00    +0.000 A 
ENDBRANCH   1   8
BRANCH   3  11
ATOM     11  C   UNL     1      18.738  10.712  37.975  0.00  0.00    +0.000 A 
ATOM     12  S   UNL     1      19.847  12.067  38.109  0.00  0.00    +0.000 S 
ATOM     13  C   UNL     1      20.490  11.770  39.634  0.00  0.00    +0.000 A 
ATOM     14  C   UNL     1      21.528  12.562  40.398  0.00  0.00    +0.000 C 
ATOM     15  C   UNL     1      19.844  10.638  40.016  0.00  0.00    +0.000 A 
ATOM     16  C   UNL     1      20.208  10.080  41.404  0.00  0.00    +0.000 C 
ATOM     17  C   UNL     1      18.937  10.085  39.164  0.00  0.00    +0.000 A 
BRANCH  17  18
ATOM     18  C   UNL     1      18.224   8.873  39.536  0.00  0.00    +0.000 C 
ATOM     19  N   UNL     1      16.988   8.952  40.226  0.00  0.00    +0.000 NA
ATOM     20  O   UNL     1      18.626   7.748  39.287  0.00  0.00    +0.000 OA
ENDBRANCH  17  18
ENDBRANCH   3  11
TORSDOF 3
ENDMDL
MODEL 5
REMARK VINA RESULT:      -6.2      1.569      2.219
REMARK  Name = 
REMARK  3 active torsions:
REMARK  status: ('A' for Active; 'I' for Inactive)
REMARK    1  A    between atoms: C_5  and  C_6
REMARK    2  A    between atoms: N_8  and  C_9
REMARK    3  A    between atoms: C_15  and  C_16
REMARK                            x       y       z     vdW  Elec       q    Type
REMARK                         _______ _______ _______ _____ _____    ______ ____
ROOT
ATOM      1  C   UNL     1      17.453  10.543  37.821  0.00  0.00    +0.000 C 
ATOM      2  O   UNL     1      18.492  11.167  37.593  0.00  0.00    +0.000 OA
ATOM      3  N   UNL     1      16.432  10.792  37.017  0.00  0.00    +0.000 NA
ENDROOT
BRANCH   1   8
ATOM      4  C   UNL     1      17.765   6.730  42.108  0.00  0.00    +0.000 C 
ATOM      5  C   UNL     1      17.646   7.745  41.010  0.00  0.00    +0.000 A 
ATOM      6  C   UNL     1      16.652   8.701  41.013  0.00  0.00    +0.000 A 
ATOM      7  C   UNL     1      16.555   9.642  39.979  0.00  0.00    +0.000 A 
ATOM      8  C   UNL     1      17.468   9.598  38.957  0.00  0.00    +0.000 A 
ATOM      9  C   UNL     1      18.441   8.642  38.979  0.00  0.00    +0.000 A 
ATOM     10  C   UNL     1      18.550   7.706  39.994  0.00  0.00    +0.000 A 
ENDBRANCH   1   8
BRANCH   3  11
ATOM     11  C   UNL     1      15.851  11.418  35.979  0.00  0.00    +0.000 A 
ATOM     12  S   UNL     1      14.779  12.729  36.445  0.00  0.00    +0.000 S 
ATOM     13  C   UNL     1      14.267  13.242  34.928  0.00  0.00    +0.000 A 
ATOM     14  C   UNL     1      13.312  14.361  34.576  0.00  0.00    +0.000 C 
ATOM     15  C   UNL     1      14.926  12.401  34.089  0.00  0.00    +0.000 A 
ATOM     16  C   UNL     1      14.674  12.604  32.583  0.00  0.00    +0.000 C 
ATOM     17  C   UNL     1      15.746  11.456  34.625  0.00  0.00    +0.000 A 
BRANCH  17  18
ATOM     18  C   UNL     1      16.469  10.536  33.760  0.00  0.00    +0.000 C 
ATOM     19  N   UNL     1      17.853  10.304  33.960  0.00  0.00    +0.000 NA
ATOM     20  O   UNL     1      15.952   9.924  32.840  0.00  0.00    +0.000 OA
ENDBRANCH  17  18
ENDBRANCH   3  11
TORSDOF 3
ENDMDL
MODEL 6
REMARK VINA RESULT:      -6.2      2.831      7.453
REMARK  Name = 
REMARK  3 active torsions:
REMARK  status: ('A' for Active; 'I' for Inactive)
REMARK    1  A    between atoms: C_5  and  C_6
REMARK    2  A    between atoms: N_8  and  C_9
REMARK    3  A    between atoms: C_15  and  C_16
REMARK                            x       y       z     vdW  Elec       q    Type
REMARK                         _______ _______ _______ _____ _____    ______ ____
ROOT
ATOM      1  C   UNL     1      16.652  11.585  36.345  0.00  0.00    +0.000 C 
ATOM      2  O   UNL     1      16.056  12.421  37.029  0.00  0.00    +0.000 OA
ATOM      3  N   UNL     1      17.572  10.866  36.969  0.00  0.00    +0.000 NA
ENDROOT
BRANCH   1   8
ATOM      4  C   UNL     1      14.948  11.396  30.861  0.00  0.00    +0.000 C 
ATOM      5  C   UNL     1      15.428  11.414  32.282  0.00  0.00    +0.000 A 
ATOM      6  C   UNL     1      16.497  10.649  32.695  0.00  0.00    +0.000 A 
ATOM      7  C   UNL     1      16.932  10.677  34.027  0.00  0.00    +0.000 A 
ATOM      8  C   UNL     1      16.273  11.482  34.920  0.00  0.00    +0.000 A 
ATOM      9  C   UNL     1      15.218  12.230  34.485  0.00  0.00    +0.000 A 
ATOM     10  C   UNL     1      14.778  12.212  33.173  0.00  0.00    +0.000 A 
ENDBRANCH   1   8
BRANCH   3  11
ATOM     11  C   UNL     1      18.283  10.516  38.054  0.00  0.00    +0.000 A 
ATOM     12  S   UNL     1      17.320   9.813  39.344  0.00  0.00    +0.000 S 
ATOM     13  C   UNL     1      18.523   9.517  40.481  0.00  0.00    +0.000 A 
ATOM     14  C   UNL     1      18.398   8.908  41.860  0.00  0.00    +0.000 C 
ATOM     15  C   UNL     1      19.643   9.962  39.854  0.00  0.00    +0.000 A 
ATOM     16  C   UNL     1      20.962   9.835  40.640  0.00  0.00    +0.000 C 
ATOM     17  C   UNL     1      19.528  10.479  38.600  0.00  0.00    +0.000 A 
BRANCH  17  18
ATOM     18  C   UNL     1      20.703  10.966  37.894  0.00  0.00    +0.000 C 
ATOM     19  N   UNL     1      21.412  10.115  37.011  0.00  0.00    +0.000 NA
ATOM     20  O   UNL     1      21.142  12.099  38.012  0.00  0.00    +0.000 OA
ENDBRANCH  17  18
ENDBRANCH   3  11
TORSDOF 3
ENDMDL
MODEL 7
REMARK VINA RESULT:      -6.1     21.964     24.212
REMARK  Name = 
REMARK  3 active torsions:
REMARK  status: ('A' for Active; 'I' for Inactive)
REMARK    1  A    between atoms: C_5  and  C_6
REMARK    2  A    between atoms: N_8  and  C_9
REMARK    3  A    between atoms: C_15  and  C_16
REMARK                            x       y       z     vdW  Elec       q    Type
REMARK                         _______ _______ _______ _____ _____    ______ ____
ROOT
ATOM      1  C   UNL     1      29.435  25.551  21.236  0.00  0.00    +0.000 C 
ATOM      2  O   UNL     1      29.692  24.564  20.542  0.00  0.00    +0.000 OA
ATOM      3  N   UNL     1      29.100  25.312  22.494  0.00  0.00    +0.000 NA
ENDROOT
BRANCH   1   8
ATOM      4  C   UNL     1      29.925  30.559  18.461  0.00  0.00    +0.000 C 
ATOM      5  C   UNL     1      29.779  29.275  19.223  0.00  0.00    +0.000 A 
ATOM      6  C   UNL     1      29.272  29.247  20.505  0.00  0.00    +0.000 A 
ATOM      7  C   UNL     1      29.143  28.039  21.203  0.00  0.00    +0.000 A 
ATOM      8  C   UNL     1      29.531  26.877  20.588  0.00  0.00    +0.000 A 
ATOM      9  C   UNL     1      30.029  26.931  19.319  0.00  0.00    +0.000 A 
ATOM     10  C   UNL     1      30.161  28.118  18.617  0.00  0.00    +0.000 A 
ENDBRANCH   1   8
BRANCH   3  11
ATOM     11  C   UNL     1      28.863  24.494  23.534  0.00  0.00    +0.000 A 
ATOM     12  S   UNL     1      30.311  23.985  24.387  0.00  0.00    +0.000 S 
ATOM     13  C   UNL     1      29.625  23.011  25.574  0.00  0.00    +0.000 A 
ATOM     14  C   UNL     1      30.308  22.236  26.678  0.00  0.00    +0.000 C 
ATOM     15  C   UNL     1      28.298  23.092  25.297  0.00  0.00    +0.000 A 
ATOM     16  C   UNL     1      27.358  22.295  26.221  0.00  0.00    +0.000 C 
ATOM     17  C   UNL     1      27.896  23.857  24.244  0.00  0.00    +0.000 A 
BRANCH  17  18
ATOM     18  C   UNL     1      26.483  23.969  23.916  0.00  0.00    +0.000 C 
ATOM     19  N   UNL     1      25.895  23.088  22.974  0.00  0.00    +0.000 NA
ATOM     20  O   UNL     1      25.737  24.799  24.410  0.00  0.00    +0.000 OA
ENDBRANCH  17  18
ENDBRANCH   3  11
TORSDOF 3
ENDMDL
MODEL 8
REMARK VINA RESULT:      -6.1     20.686     23.222
REMARK  Name = 
REMARK  3 active torsions:
REMARK  status: ('A' for Active; 'I' for Inactive)
REMARK    1  A    between atoms: C_5  and  C_6
REMARK    2  A    between atoms: N_8  and  C_9
REMARK    3  A    between atoms: C_15  and  C_16
REMARK                            x       y       z     vdW  Elec       q    Type
REMARK                         _______ _______ _______ _____ _____    ______ ____
ROOT
ATOM      1  C   UNL     1      33.863  -2.197  34.199  0.00  0.00    +0.000 C 
ATOM      2  O   UNL     1      34.493  -2.522  35.208  0.00  0.00    +0.000 OA
ATOM      3  N   UNL     1      33.301  -3.182  33.516  0.00  0.00    +0.000 NA
ENDROOT
BRANCH   1   8
ATOM      4  C   UNL     1      33.530   3.454  33.213  0.00  0.00    +0.000 C 
ATOM      5  C   UNL     1      33.636   1.973  33.426  0.00  0.00    +0.000 A 
ATOM      6  C   UNL     1      34.128   1.134  32.450  0.00  0.00    +0.000 A 
ATOM      7  C   UNL     1      34.220  -0.248  32.666  0.00  0.00    +0.000 A 
ATOM      8  C   UNL     1      33.808  -0.757  33.870  0.00  0.00    +0.000 A 
ATOM      9  C   UNL     1      33.324   0.096  34.820  0.00  0.00    +0.000 A 
ATOM     10  C   UNL     1      33.229   1.463  34.621  0.00  0.00    +0.000 A 
ENDBRANCH   1   8
BRANCH   3  11
ATOM     11  C   UNL     1      33.013  -4.477  33.302  0.00  0.00    +0.000 A 
ATOM     12  S   UNL     1      32.020  -5.204  34.555  0.00  0.00    +0.000 S 
ATOM     13  C   UNL     1      31.883  -6.767  33.950  0.00  0.00    +0.000 A 
ATOM     14  C   UNL     1      31.146  -7.952  34.535  0.00  0.00    +0.000 C 
ATOM     15  C   UNL     1      32.600  -6.706  32.798  0.00  0.00    +0.000 A 
ATOM     16  C   UNL     1      32.680  -8.005  31.974  0.00  0.00    +0.000 C 
ATOM     17  C   UNL     1      33.187  -5.526  32.457  0.00  0.00    +0.000 A 
BRANCH  17  18
ATOM     18  C   UNL     1      33.964  -5.420  31.231  0.00  0.00    +0.000 C 
ATOM     19  N   UNL     1      35.339  -5.763  31.222  0.00  0.00    +0.000 NA
ATOM     20  O   UNL     1      33.500  -5.042  30.167  0.00  0.00    +0.000 OA
ENDBRANCH  17  18
ENDBRANCH   3  11
TORSDOF 3
ENDMDL
MODEL 9
REMARK VINA RESULT:      -6.1      3.162      7.955
REMARK  Name = 
REMARK  3 active torsions:
REMARK  status: ('A' for Active; 'I' for Inactive)
REMARK    1  A    between atoms: C_5  and  C_6
REMARK    2  A    between atoms: N_8  and  C_9
REMARK    3  A    between atoms: C_15  and  C_16
REMARK                            x       y       z     vdW  Elec       q    Type
REMARK                         _______ _______ _______ _____ _____    ______ ____
ROOT
ATOM      1  C   UNL     1      17.257  10.440  36.602  0.00  0.00    +0.000 C 
ATOM      2  O   UNL     1      16.440  10.543  37.521  0.00  0.00    +0.000 OA
ATOM      3  N   UNL     1      18.484  10.083  36.947  0.00  0.00    +0.000 NA
ENDROOT
BRANCH   1   8
ATOM      4  C   UNL     1      15.615  11.358  31.173  0.00  0.00    +0.000 C 
ATOM      5  C   UNL     1      16.008  11.147  32.605  0.00  0.00    +0.000 A 
ATOM      6  C   UNL     1      15.326  11.751  33.640  0.00  0.00    +0.000 A 
ATOM      7  C   UNL     1      15.707  11.544  34.972  0.00  0.00    +0.000 A 
ATOM      8  C   UNL     1      16.775  10.725  35.234  0.00  0.00    +0.000 A 
ATOM      9  C   UNL     1      17.432  10.138  34.192  0.00  0.00    +0.000 A 
ATOM     10  C   UNL     1      17.067  10.334  32.871  0.00  0.00    +0.000 A 
ENDBRANCH   1   8
BRANCH   3  11
ATOM     11  C   UNL     1      19.421   9.735  37.844  0.00  0.00    +0.000 A 
ATOM     12  S   UNL     1      21.063  10.106  37.343  0.00  0.00    +0.000 S 
ATOM     13  C   UNL     1      21.912   9.544  38.682  0.00  0.00    +0.000 A 
ATOM     14  C   UNL     1      23.404   9.548  38.931  0.00  0.00    +0.000 C 
ATOM     15  C   UNL     1      20.924   9.081  39.490  0.00  0.00    +0.000 A 
ATOM     16  C   UNL     1      21.369   8.481  40.837  0.00  0.00    +0.000 C 
ATOM     17  C   UNL     1      19.634   9.176  39.065  0.00  0.00    +0.000 A 
BRANCH  17  18
ATOM     18  C   UNL     1      18.547   8.692  39.901  0.00  0.00    +0.000 C 
ATOM     19  N   UNL     1      17.817   9.591  40.718  0.00  0.00    +0.000 NA
ATOM     20  O   UNL     1      18.202   7.522  39.953  0.00  0.00    +0.000 OA
ENDBRANCH  17  18
ENDBRANCH   3  11
TORSDOF 3
ENDMDL
MODEL 10
REMARK VINA RESULT:      -6.1     21.003     23.617
REMARK  Name = 
REMARK  3 active torsions:
REMARK  status: ('A' for Active; 'I' for Inactive)
REMARK    1  A    between atoms: C_5  and  C_6
REMARK    2  A    between atoms: N_8  and  C_9
REMARK    3  A    between atoms: C_15  and  C_16
REMARK                            x       y       z     vdW  Elec       q    Type
REMARK                         _______ _______ _______ _____ _____    ______ ____
ROOT
ATOM      1  C   UNL     1      33.273  -4.328  33.124  0.00  0.00    +0.000 C 
ATOM      2  O   UNL     1      32.311  -4.772  33.755  0.00  0.00    +0.000 OA
ATOM      3  N   UNL     1      33.850  -3.245  33.620  0.00  0.00    +0.000 NA
ENDROOT
BRANCH   1   8
ATOM      4  C   UNL     1      34.530  -7.049  28.221  0.00  0.00    +0.000 C 
ATOM      5  C   UNL     1      34.244  -6.352  29.518  0.00  0.00    +0.000 A 
ATOM      6  C   UNL     1      35.148  -6.361  30.560  0.00  0.00    +0.000 A 
ATOM      7  C   UNL     1      34.865  -5.705  31.765  0.00  0.00    +0.000 A 
ATOM      8  C   UNL     1      33.668  -5.050  31.896  0.00  0.00    +0.000 A 
ATOM      9  C   UNL     1      32.791  -5.056  30.850  0.00  0.00    +0.000 A 
ATOM     10  C   UNL     1      33.057  -5.700  29.653  0.00  0.00    +0.000 A 
ENDBRANCH   1   8
BRANCH   3  11
ATOM     11  C   UNL     1      33.970  -2.265  34.531  0.00  0.00    +0.000 A 
ATOM     12  S   UNL     1      34.469  -2.824  36.120  0.00  0.00    +0.000 S 
ATOM     13  C   UNL     1      34.506  -1.360  36.948  0.00  0.00    +0.000 A 
ATOM     14  C   UNL     1      34.862  -1.095  38.394  0.00  0.00    +0.000 C 
ATOM     15  C   UNL     1      34.135  -0.467  35.993  0.00  0.00    +0.000 A 
ATOM     16  C   UNL     1      34.065   1.008  36.430  0.00  0.00    +0.000 C 
ATOM     17  C   UNL     1      33.857  -0.927  34.742  0.00  0.00    +0.000 A 
BRANCH  17  18
ATOM     18  C   UNL     1      33.457  -0.003  33.693  0.00  0.00    +0.000 C 
ATOM     19  N   UNL     1      34.316   0.249  32.594  0.00  0.00    +0.000 NA
ATOM     20  O   UNL     1      32.392   0.595  33.687  0.00  0.00    +0.000 OA
ENDBRANCH  17  18
ENDBRANCH   3  11
TORSDOF 3
ENDMDL
