MODEL 1
REMARK VINA RESULT:      -7.8      0.000      0.000
REMARK  Name = 
REMARK  8 active torsions:
REMARK  status: ('A' for Active; 'I' for Inactive)
REMARK    1  A    between atoms: C_2  and  C_3
REMARK    2  A    between atoms: C_3  and  N_4
REMARK    3  A    between atoms: C_5  and  S_6
REMARK    4  A    between atoms: S_6  and  C_7
REMARK    5  A    between atoms: C_7  and  C_8
REMARK    6  A    between atoms: N_10  and  C_11
REMARK    7  A    between atoms: C_16  and  C_17
REMARK    8  A    between atoms: C_22  and  C_23
REMARK                            x       y       z     vdW  Elec       q    Type
REMARK                         _______ _______ _______ _____ _____    ______ ____
ROOT
ATOM      1  N   UNL     1      38.456   4.949  16.472  0.00  0.00    +0.000 N 
ATOM      2  C   UNL     1      37.817   3.832  16.052  0.00  0.00    +0.000 A 
ATOM      3  N   UNL     1      37.458   3.157  17.157  0.00  0.00    +0.000 NA
ATOM      4  N   UNL     1      37.868   3.844  18.204  0.00  0.00    +0.000 NA
ATOM      5  C   UNL     1      38.504   4.984  17.815  0.00  0.00    +0.000 A 
ENDROOT
BRANCH   5   6
ATOM      6  C   UNL     1      39.099   5.996  18.668  0.00  0.00    +0.000 A 
ATOM      7  C   UNL     1      38.462   7.179  18.925  0.00  0.00    +0.000 A 
ATOM      8  C   UNL     1      39.049   8.136  19.743  0.00  0.00    +0.000 A 
ATOM      9  C   UNL     1      40.280   7.930  20.320  0.00  0.00    +0.000 A 
ATOM     10  C   UNL     1      40.927   6.742  20.065  0.00  0.00    +0.000 A 
ATOM     11  C   UNL     1      42.253   6.535  20.694  0.00  0.00    +0.000 C 
ATOM     12  C   UNL     1      40.330   5.796  19.247  0.00  0.00    +0.000 A 
ENDBRANCH   5   6
BRANCH   1  13
ATOM     13  C   UNL     1      38.985   5.910  15.537  0.00  0.00    +0.000 C 
BRANCH  13  15
ATOM     14  C   UNL     1      41.366   6.429  15.775  0.00  0.00    +0.000 C 
ATOM     15  C   UNL     1      40.406   5.720  15.238  0.00  0.00    +0.000 C 
ENDBRANCH  13  15
ENDBRANCH   1  13
BRANCH   2  16
ATOM     16  S   UNL     1      37.511   3.354  14.358  0.00  0.00    +0.000 S 
BRANCH  16  17
ATOM     17  C   UNL     1      36.496   1.875  14.248  0.00  0.00    +0.000 C 
BRANCH  17  18
ATOM     18  C   UNL     1      37.373   0.687  14.351  0.00  0.00    +0.000 C 
ATOM     19  O   UNL     1      37.167  -0.233  13.491  0.00  0.00    +0.000 OA
ATOM     20  N   UNL     1      38.389   0.492  15.291  0.00  0.00    +0.000 NA
BRANCH  20  21
ATOM     21  C   UNL     1      39.153  -0.727  15.251  0.00  0.00    +0.000 A 
ATOM     22  C   UNL     1      40.196  -0.877  14.352  0.00  0.00    +0.000 A 
ATOM     23  C   UNL     1      40.937  -2.036  14.300  0.00  0.00    +0.000 A 
ATOM     24  C   UNL     1      40.665  -3.096  15.147  0.00  0.00    +0.000 A 
ATOM     25  C   UNL     1      39.622  -2.922  16.032  0.00  0.00    +0.000 A 
ATOM     26  C   UNL     1      38.876  -1.766  16.090  0.00  0.00    +0.000 A 
BRANCH  26  27
ATOM     27  C   UNL     1      37.756  -1.625  17.064  0.00  0.00    +0.000 C 
ATOM     28  C   UNL     1      38.196  -2.233  18.390  0.00  0.00    +0.000 C 
ATOM     29  C   UNL     1      36.570  -2.483  16.602  0.00  0.00    +0.000 C 
ENDBRANCH  26  27
ENDBRANCH  20  21
ENDBRANCH  17  18
ENDBRANCH  16  17
ENDBRANCH   2  16
TORSDOF 8
ENDMDL
MODEL 2
REMARK VINA RESULT:      -7.7      1.325      2.600
REMARK  Name = 
REMARK  8 active torsions:
REMARK  status: ('A' for Active; 'I' for Inactive)
REMARK    1  A    between atoms: C_2  and  C_3
REMARK    2  A    between atoms: C_3  and  N_4
REMARK    3  A    between atoms: C_5  and  S_6
REMARK    4  A    between atoms: S_6  and  C_7
REMARK    5  A    between atoms: C_7  and  C_8
REMARK    6  A    between atoms: N_10  and  C_11
REMARK    7  A    between atoms: C_16  and  C_17
REMARK    8  A    between atoms: C_22  and  C_23
REMARK                            x       y       z     vdW  Elec       q    Type
REMARK                         _______ _______ _______ _____ _____    ______ ____
ROOT
ATOM      1  N   UNL     1      38.819   5.204  16.639  0.00  0.00    +0.000 N 
ATOM      2  C   UNL     1      38.163   4.120  16.161  0.00  0.00    +0.000 A 
ATOM      3  N   UNL     1      37.748   3.422  17.232  0.00  0.00    +0.000 NA
ATOM      4  N   UNL     1      38.143   4.062  18.313  0.00  0.00    +0.000 NA
ATOM      5  C   UNL     1      38.824   5.194  17.982  0.00  0.00    +0.000 A 
ENDROOT
BRANCH   5   6
ATOM      6  C   UNL     1      39.420   6.160  18.887  0.00  0.00    +0.000 A 
ATOM      7  C   UNL     1      38.758   7.301  19.251  0.00  0.00    +0.000 A 
ATOM      8  C   UNL     1      39.346   8.214  20.118  0.00  0.00    +0.000 A 
ATOM      9  C   UNL     1      40.602   8.006  20.637  0.00  0.00    +0.000 A 
ATOM     10  C   UNL     1      41.273   6.860  20.275  0.00  0.00    +0.000 A 
ATOM     11  C   UNL     1      42.626   6.649  20.842  0.00  0.00    +0.000 C 
ATOM     12  C   UNL     1      40.675   5.957  19.409  0.00  0.00    +0.000 A 
ENDBRANCH   5   6
BRANCH   1  13
ATOM     13  C   UNL     1      39.407   6.178  15.754  0.00  0.00    +0.000 C 
BRANCH  13  15
ATOM     14  C   UNL     1      41.813   6.535  16.035  0.00  0.00    +0.000 C 
ATOM     15  C   UNL     1      40.817   5.922  15.448  0.00  0.00    +0.000 C 
ENDBRANCH  13  15
ENDBRANCH   1  13
BRANCH   2  16
ATOM     16  S   UNL     1      37.900   3.706  14.443  0.00  0.00    +0.000 S 
BRANCH  16  17
ATOM     17  C   UNL     1      38.452   2.040  14.060  0.00  0.00    +0.000 C 
BRANCH  17  18
ATOM     18  C   UNL     1      37.462   1.077  14.591  0.00  0.00    +0.000 C 
ATOM     19  O   UNL     1      36.382   0.961  13.919  0.00  0.00    +0.000 OA
ATOM     20  N   UNL     1      37.605   0.297  15.741  0.00  0.00    +0.000 NA
BRANCH  20  21
ATOM     21  C   UNL     1      36.541  -0.596  16.118  0.00  0.00    +0.000 A 
ATOM     22  C   UNL     1      35.459  -0.133  16.849  0.00  0.00    +0.000 A 
ATOM     23  C   UNL     1      34.432  -0.972  17.219  0.00  0.00    +0.000 A 
ATOM     24  C   UNL     1      34.444  -2.312  16.873  0.00  0.00    +0.000 A 
ATOM     25  C   UNL     1      35.533  -2.748  16.146  0.00  0.00    +0.000 A 
ATOM     26  C   UNL     1      36.564  -1.914  15.773  0.00  0.00    +0.000 A 
BRANCH  26  27
ATOM     27  C   UNL     1      37.721  -2.432  14.988  0.00  0.00    +0.000 C 
ATOM     28  C   UNL     1      37.200  -3.457  13.988  0.00  0.00    +0.000 C 
ATOM     29  C   UNL     1      38.656  -3.217  15.918  0.00  0.00    +0.000 C 
ENDBRANCH  26  27
ENDBRANCH  20  21
ENDBRANCH  17  18
ENDBRANCH  16  17
ENDBRANCH   2  16
TORSDOF 8
ENDMDL
MODEL 3
REMARK VINA RESULT:      -7.6      1.737      2.656
REMARK  Name = 
REMARK  8 active torsions:
REMARK  status: ('A' for Active; 'I' for Inactive)
REMARK    1  A    between atoms: C_2  and  C_3
REMARK    2  A    between atoms: C_3  and  N_4
REMARK    3  A    between atoms: C_5  and  S_6
REMARK    4  A    between atoms: S_6  and  C_7
REMARK    5  A    between atoms: C_7  and  C_8
REMARK    6  A    between atoms: N_10  and  C_11
REMARK    7  A    between atoms: C_16  and  C_17
REMARK    8  A    between atoms: C_22  and  C_23
REMARK                            x       y       z     vdW  Elec       q    Type
REMARK                         _______ _______ _______ _____ _____    ______ ____
ROOT
ATOM      1  N   UNL     1      38.816   5.190  16.661  0.00  0.00    +0.000 N 
ATOM      2  C   UNL     1      38.180   4.090  16.195  0.00  0.00    +0.000 A 
ATOM      3  N   UNL     1      37.741   3.417  17.272  0.00  0.00    +0.000 NA
ATOM      4  N   UNL     1      38.102   4.088  18.346  0.00  0.00    +0.000 NA
ATOM      5  C   UNL     1      38.784   5.216  18.004  0.00  0.00    +0.000 A 
ENDROOT
BRANCH   5   6
ATOM      6  C   UNL     1      39.349   6.211  18.899  0.00  0.00    +0.000 A 
ATOM      7  C   UNL     1      40.633   6.110  19.360  0.00  0.00    +0.000 A 
ATOM      8  C   UNL     1      41.154   7.071  20.217  0.00  0.00    +0.000 A 
ATOM      9  C   UNL     1      40.407   8.150  20.627  0.00  0.00    +0.000 A 
ATOM     10  C   UNL     1      39.114   8.257  20.166  0.00  0.00    +0.000 A 
ATOM     11  C   UNL     1      38.320   9.424  20.617  0.00  0.00    +0.000 C 
ATOM     12  C   UNL     1      38.606   7.291  19.312  0.00  0.00    +0.000 A 
ENDBRANCH   5   6
BRANCH   1  13
ATOM     13  C   UNL     1      39.421   6.145  15.766  0.00  0.00    +0.000 C 
BRANCH  13  15
ATOM     14  C   UNL     1      41.526   6.178  14.515  0.00  0.00    +0.000 C 
ATOM     15  C   UNL     1      40.872   5.991  15.633  0.00  0.00    +0.000 C 
ENDBRANCH  13  15
ENDBRANCH   1  13
BRANCH   2  16
ATOM     16  S   UNL     1      37.967   3.629  14.482  0.00  0.00    +0.000 S 
BRANCH  16  17
ATOM     17  C   UNL     1      38.750   2.056  14.106  0.00  0.00    +0.000 C 
BRANCH  17  18
ATOM     18  C   UNL     1      37.797   0.965  14.409  0.00  0.00    +0.000 C 
ATOM     19  O   UNL     1      36.753   0.918  13.676  0.00  0.00    +0.000 OA
ATOM     20  N   UNL     1      37.940  -0.000  15.410  0.00  0.00    +0.000 NA
BRANCH  20  21
ATOM     21  C   UNL     1      36.915  -0.997  15.571  0.00  0.00    +0.000 A 
ATOM     22  C   UNL     1      36.888  -2.119  14.759  0.00  0.00    +0.000 A 
ATOM     23  C   UNL     1      35.915  -3.083  14.899  0.00  0.00    +0.000 A 
ATOM     24  C   UNL     1      34.925  -2.965  15.859  0.00  0.00    +0.000 A 
ATOM     25  C   UNL     1      34.974  -1.838  16.655  0.00  0.00    +0.000 A 
ATOM     26  C   UNL     1      35.945  -0.870  16.520  0.00  0.00    +0.000 A 
BRANCH  26  27
ATOM     27  C   UNL     1      35.955   0.331  17.403  0.00  0.00    +0.000 C 
ATOM     28  C   UNL     1      35.587  -0.109  18.814  0.00  0.00    +0.000 C 
ATOM     29  C   UNL     1      34.833   1.287  16.974  0.00  0.00    +0.000 C 
ENDBRANCH  26  27
ENDBRANCH  20  21
ENDBRANCH  17  18
ENDBRANCH  16  17
ENDBRANCH   2  16
TORSDOF 8
ENDMDL
MODEL 4
REMARK VINA RESULT:      -7.5     25.460     27.781
REMARK  Name = 
REMARK  8 active torsions:
REMARK  status: ('A' for Active; 'I' for Inactive)
REMARK    1  A    between atoms: C_2  and  C_3
REMARK    2  A    between atoms: C_3  and  N_4
REMARK    3  A    between atoms: C_5  and  S_6
REMARK    4  A    between atoms: S_6  and  C_7
REMARK    5  A    between atoms: C_7  and  C_8
REMARK    6  A    between atoms: N_10  and  C_11
REMARK    7  A    between atoms: C_16  and  C_17
REMARK    8  A    between atoms: C_22  and  C_23
REMARK                            x       y       z     vdW  Elec       q    Type
REMARK                         _______ _______ _______ _____ _____    ______ ____
ROOT
ATOM      1  N   UNL     1      26.122  15.324  37.638  0.00  0.00    +0.000 N 
ATOM      2  C   UNL     1      27.050  15.247  38.620  0.00  0.00    +0.000 A 
ATOM      3  N   UNL     1      28.250  15.327  38.020  0.00  0.00    +0.000 NA
ATOM      4  N   UNL     1      28.049  15.446  36.723  0.00  0.00    +0.000 NA
ATOM      5  C   UNL     1      26.717  15.448  36.440  0.00  0.00    +0.000 A 
ENDROOT
BRANCH   5   6
ATOM      6  C   UNL     1      26.094  15.556  35.133  0.00  0.00    +0.000 A 
ATOM      7  C   UNL     1      26.019  14.483  34.287  0.00  0.00    +0.000 A 
ATOM      8  C   UNL     1      25.419  14.606  33.039  0.00  0.00    +0.000 A 
ATOM      9  C   UNL     1      24.884  15.799  32.614  0.00  0.00    +0.000 A 
ATOM     10  C   UNL     1      24.957  16.882  33.460  0.00  0.00    +0.000 A 
ATOM     11  C   UNL     1      24.376  18.162  32.989  0.00  0.00    +0.000 C 
ATOM     12  C   UNL     1      25.558  16.746  34.702  0.00  0.00    +0.000 A 
ENDBRANCH   5   6
BRANCH   1  13
ATOM     13  C   UNL     1      24.712  15.266  37.930  0.00  0.00    +0.000 C 
BRANCH  13  15
ATOM     14  C   UNL     1      24.238  17.668  37.905  0.00  0.00    +0.000 C 
ATOM     15  C   UNL     1      24.176  16.505  38.500  0.00  0.00    +0.000 C 
ENDBRANCH  13  15
ENDBRANCH   1  13
BRANCH   2  16
ATOM     16  S   UNL     1      26.737  15.076  40.371  0.00  0.00    +0.000 S 
BRANCH  16  17
ATOM     17  C   UNL     1      25.916  13.526  40.759  0.00  0.00    +0.000 C 
BRANCH  17  18
ATOM     18  C   UNL     1      26.944  12.487  40.986  0.00  0.00    +0.000 C 
ATOM     19  O   UNL     1      27.979  12.859  41.634  0.00  0.00    +0.000 OA
ATOM     20  N   UNL     1      26.880  11.157  40.561  0.00  0.00    +0.000 NA
BRANCH  20  21
ATOM     21  C   UNL     1      27.972  10.271  40.868  0.00  0.00    +0.000 A 
ATOM     22  C   UNL     1      29.226  10.482  40.320  0.00  0.00    +0.000 A 
ATOM     23  C   UNL     1      30.282   9.645  40.602  0.00  0.00    +0.000 A 
ATOM     24  C   UNL     1      30.127   8.558  41.444  0.00  0.00    +0.000 A 
ATOM     25  C   UNL     1      28.868   8.369  41.976  0.00  0.00    +0.000 A 
ATOM     26  C   UNL     1      27.807   9.203  41.699  0.00  0.00    +0.000 A 
BRANCH  26  27
ATOM     27  C   UNL     1      26.464   8.956  42.297  0.00  0.00    +0.000 C 
ATOM     28  C   UNL     1      26.654   8.575  43.759  0.00  0.00    +0.000 C 
ATOM     29  C   UNL     1      25.832   7.722  41.637  0.00  0.00    +0.000 C 
ENDBRANCH  26  27
ENDBRANCH  20  21
ENDBRANCH  17  18
ENDBRANCH  16  17
ENDBRANCH   2  16
TORSDOF 8
ENDMDL
MODEL 5
REMARK VINA RESULT:      -7.5      0.880      2.627
REMARK  Name = 
REMARK  8 active torsions:
REMARK  status: ('A' for Active; 'I' for Inactive)
REMARK    1  A    between atoms: C_2  and  C_3
REMARK    2  A    between atoms: C_3  and  N_4
REMARK    3  A    between atoms: C_5  and  S_6
REMARK    4  A    between atoms: S_6  and  C_7
REMARK    5  A    between atoms: C_7  and  C_8
REMARK    6  A    between atoms: N_10  and  C_11
REMARK    7  A    between atoms: C_16  and  C_17
REMARK    8  A    between atoms: C_22  and  C_23
REMARK                            x       y       z     vdW  Elec       q    Type
REMARK                         _______ _______ _______ _____ _____    ______ ____
ROOT
ATOM      1  N   UNL     1      38.705   5.004  16.294  0.00  0.00    +0.000 N 
ATOM      2  C   UNL     1      38.171   3.880  15.763  0.00  0.00    +0.000 A 
ATOM      3  N   UNL     1      37.625   3.196  16.783  0.00  0.00    +0.000 NA
ATOM      4  N   UNL     1      37.826   3.885  17.888  0.00  0.00    +0.000 NA
ATOM      5  C   UNL     1      38.506   5.035  17.623  0.00  0.00    +0.000 A 
ENDROOT
BRANCH   5   6
ATOM      6  C   UNL     1      38.919   6.053  18.572  0.00  0.00    +0.000 A 
ATOM      7  C   UNL     1      40.067   5.923  19.304  0.00  0.00    +0.000 A 
ATOM      8  C   UNL     1      40.446   6.908  20.208  0.00  0.00    +0.000 A 
ATOM      9  C   UNL     1      39.688   8.039  20.396  0.00  0.00    +0.000 A 
ATOM     10  C   UNL     1      38.532   8.176  19.663  0.00  0.00    +0.000 A 
ATOM     11  C   UNL     1      37.725   9.401  19.876  0.00  0.00    +0.000 C 
ATOM     12  C   UNL     1      38.165   7.186  18.765  0.00  0.00    +0.000 A 
ENDBRANCH   5   6
BRANCH   1  13
ATOM     13  C   UNL     1      39.383   5.976  15.473  0.00  0.00    +0.000 C 
BRANCH  13  15
ATOM     14  C   UNL     1      41.683   6.584  16.055  0.00  0.00    +0.000 C 
ATOM     15  C   UNL     1      40.837   5.802  15.433  0.00  0.00    +0.000 C 
ENDBRANCH  13  15
ENDBRANCH   1  13
BRANCH   2  16
ATOM     16  S   UNL     1      38.189   3.403  14.041  0.00  0.00    +0.000 S 
BRANCH  16  17
ATOM     17  C   UNL     1      37.045   2.060  13.703  0.00  0.00    +0.000 C 
BRANCH  17  18
ATOM     18  C   UNL     1      37.701   0.778  14.047  0.00  0.00    +0.000 C 
ATOM     19  O   UNL     1      37.252  -0.256  13.448  0.00  0.00    +0.000 OA
ATOM     20  N   UNL     1      38.750   0.607  14.954  0.00  0.00    +0.000 NA
BRANCH  20  21
ATOM     21  C   UNL     1      39.276  -0.714  15.174  0.00  0.00    +0.000 A 
ATOM     22  C   UNL     1      38.633  -1.597  16.026  0.00  0.00    +0.000 A 
ATOM     23  C   UNL     1      39.121  -2.864  16.248  0.00  0.00    +0.000 A 
ATOM     24  C   UNL     1      40.278  -3.303  15.627  0.00  0.00    +0.000 A 
ATOM     25  C   UNL     1      40.899  -2.405  14.784  0.00  0.00    +0.000 A 
ATOM     26  C   UNL     1      40.416  -1.136  14.557  0.00  0.00    +0.000 A 
BRANCH  26  27
ATOM     27  C   UNL     1      41.125  -0.201  13.637  0.00  0.00    +0.000 C 
ATOM     28  C   UNL     1      41.147  -0.821  12.247  0.00  0.00    +0.000 C 
ATOM     29  C   UNL     1      42.598  -0.096  14.055  0.00  0.00    +0.000 C 
ENDBRANCH  26  27
ENDBRANCH  20  21
ENDBRANCH  17  18
ENDBRANCH  16  17
ENDBRANCH   2  16
TORSDOF 8
ENDMDL
MODEL 6
REMARK VINA RESULT:      -7.3      2.261      8.540
REMARK  Name = 
REMARK  8 active torsions:
REMARK  status: ('A' for Active; 'I' for Inactive)
REMARK    1  A    between atoms: C_2  and  C_3
REMARK    2  A    between atoms: C_3  and  N_4
REMARK    3  A    between atoms: C_5  and  S_6
REMARK    4  A    between atoms: S_6  and  C_7
REMARK    5  A    between atoms: C_7  and  C_8
REMARK    6  A    between atoms: N_10  and  C_11
REMARK    7  A    between atoms: C_16  and  C_17
REMARK    8  A    between atoms: C_22  and  C_23
REMARK                            x       y       z     vdW  Elec       q    Type
REMARK                         _______ _______ _______ _____ _____    ______ ____
ROOT
ATOM      1  N   UNL     1      36.989   1.243  15.219  0.00  0.00    +0.000 N 
ATOM      2  C   UNL     1      37.576   2.460  15.143  0.00  0.00    +0.000 A 
ATOM      3  N   UNL     1      38.895   2.242  15.008  0.00  0.00    +0.000 NA
ATOM      4  N   UNL     1      39.093   0.940  15.004  0.00  0.00    +0.000 NA
ATOM      5  C   UNL     1      37.914   0.271  15.135  0.00  0.00    +0.000 A 
ENDROOT
BRANCH   5   6
ATOM      6  C   UNL     1      37.716  -1.166  15.179  0.00  0.00    +0.000 A 
ATOM      7  C   UNL     1      37.094  -1.833  14.159  0.00  0.00    +0.000 A 
ATOM      8  C   UNL     1      36.913  -3.209  14.220  0.00  0.00    +0.000 A 
ATOM      9  C   UNL     1      37.349  -3.944  15.297  0.00  0.00    +0.000 A 
ATOM     10  C   UNL     1      37.975  -3.279  16.327  0.00  0.00    +0.000 A 
ATOM     11  C   UNL     1      38.440  -4.084  17.482  0.00  0.00    +0.000 C 
ATOM     12  C   UNL     1      38.149  -1.906  16.254  0.00  0.00    +0.000 A 
ENDBRANCH   5   6
BRANCH   1  13
ATOM     13  C   UNL     1      35.563   1.103  15.374  0.00  0.00    +0.000 C 
BRANCH  13  15
ATOM     14  C   UNL     1      34.786  -0.377  17.163  0.00  0.00    +0.000 C 
ATOM     15  C   UNL     1      35.145   0.810  16.747  0.00  0.00    +0.000 C 
ENDBRANCH  13  15
ENDBRANCH   1  13
BRANCH   2  16
ATOM     16  S   UNL     1      36.753   4.045  15.209  0.00  0.00    +0.000 S 
BRANCH  16  17
ATOM     17  C   UNL     1      37.831   5.385  14.690  0.00  0.00    +0.000 C 
BRANCH  17  18
ATOM     18  C   UNL     1      38.558   5.896  15.874  0.00  0.00    +0.000 C 
ATOM     19  O   UNL     1      38.150   7.012  16.340  0.00  0.00    +0.000 OA
ATOM     20  N   UNL     1      39.632   5.272  16.514  0.00  0.00    +0.000 NA
BRANCH  20  21
ATOM     21  C   UNL     1      40.228   5.907  17.660  0.00  0.00    +0.000 A 
ATOM     22  C   UNL     1      39.594   5.879  18.891  0.00  0.00    +0.000 A 
ATOM     23  C   UNL     1      40.149   6.480  19.998  0.00  0.00    +0.000 A 
ATOM     24  C   UNL     1      41.364   7.138  19.919  0.00  0.00    +0.000 A 
ATOM     25  C   UNL     1      41.975   7.152  18.682  0.00  0.00    +0.000 A 
ATOM     26  C   UNL     1      41.425   6.551  17.571  0.00  0.00    +0.000 A 
BRANCH  26  27
ATOM     27  C   UNL     1      42.123   6.595  16.254  0.00  0.00    +0.000 C 
ATOM     28  C   UNL     1      43.617   6.749  16.509  0.00  0.00    +0.000 C 
ATOM     29  C   UNL     1      41.710   7.866  15.501  0.00  0.00    +0.000 C 
ENDBRANCH  26  27
ENDBRANCH  20  21
ENDBRANCH  17  18
ENDBRANCH  16  17
ENDBRANCH   2  16
TORSDOF 8
ENDMDL
MODEL 7
REMARK VINA RESULT:      -7.2      2.660      7.340
REMARK  Name = 
REMARK  8 active torsions:
REMARK  status: ('A' for Active; 'I' for Inactive)
REMARK    1  A    between atoms: C_2  and  C_3
REMARK    2  A    between atoms: C_3  and  N_4
REMARK    3  A    between atoms: C_5  and  S_6
REMARK    4  A    between atoms: S_6  and  C_7
REMARK    5  A    between atoms: C_7  and  C_8
REMARK    6  A    between atoms: N_10  and  C_11
REMARK    7  A    between atoms: C_16  and  C_17
REMARK    8  A    between atoms: C_22  and  C_23
REMARK                            x       y       z     vdW  Elec       q    Type
REMARK                         _______ _______ _______ _____ _____    ______ ____
ROOT
ATOM      1  N   UNL     1      36.353   2.956  15.295  0.00  0.00    +0.000 N 
ATOM      2  C   UNL     1      35.834   4.018  14.635  0.00  0.00    +0.000 A 
ATOM      3  N   UNL     1      34.528   4.064  14.951  0.00  0.00    +0.000 NA
ATOM      4  N   UNL     1      34.273   3.065  15.770  0.00  0.00    +0.000 NA
ATOM      5  C   UNL     1      35.399   2.339  16.013  0.00  0.00    +0.000 A 
ENDROOT
BRANCH   5   6
ATOM      6  C   UNL     1      35.526   1.164  16.856  0.00  0.00    +0.000 A 
ATOM      7  C   UNL     1      36.025   1.246  18.127  0.00  0.00    +0.000 A 
ATOM      8  C   UNL     1      36.139   0.109  18.918  0.00  0.00    +0.000 A 
ATOM      9  C   UNL     1      35.757  -1.128  18.456  0.00  0.00    +0.000 A 
ATOM     10  C   UNL     1      35.254  -1.218  17.178  0.00  0.00    +0.000 A 
ATOM     11  C   UNL     1      34.847  -2.558  16.694  0.00  0.00    +0.000 C 
ATOM     12  C   UNL     1      35.146  -0.076  16.400  0.00  0.00    +0.000 A 
ENDBRANCH   5   6
BRANCH   1  13
ATOM     13  C   UNL     1      37.746   2.606  15.179  0.00  0.00    +0.000 C 
BRANCH  13  15
ATOM     14  C   UNL     1      38.513   0.319  14.759  0.00  0.00    +0.000 C 
ATOM     15  C   UNL     1      37.992   1.439  14.328  0.00  0.00    +0.000 C 
ENDBRANCH  13  15
ENDBRANCH   1  13
BRANCH   2  16
ATOM     16  S   UNL     1      36.717   5.138  13.559  0.00  0.00    +0.000 S 
BRANCH  16  17
ATOM     17  C   UNL     1      36.871   6.778  14.275  0.00  0.00    +0.000 C 
BRANCH  17  18
ATOM     18  C   UNL     1      38.190   6.885  14.939  0.00  0.00    +0.000 C 
ATOM     19  O   UNL     1      38.661   8.066  15.056  0.00  0.00    +0.000 OA
ATOM     20  N   UNL     1      38.948   5.824  15.441  0.00  0.00    +0.000 NA
BRANCH  20  21
ATOM     21  C   UNL     1      40.216   6.103  16.062  0.00  0.00    +0.000 A 
ATOM     22  C   UNL     1      41.364   6.230  15.296  0.00  0.00    +0.000 A 
ATOM     23  C   UNL     1      42.585   6.496  15.873  0.00  0.00    +0.000 A 
ATOM     24  C   UNL     1      42.710   6.646  17.243  0.00  0.00    +0.000 A 
ATOM     25  C   UNL     1      41.553   6.515  17.983  0.00  0.00    +0.000 A 
ATOM     26  C   UNL     1      40.328   6.248  17.412  0.00  0.00    +0.000 A 
BRANCH  26  27
ATOM     27  C   UNL     1      39.105   6.114  18.254  0.00  0.00    +0.000 C 
ATOM     28  C   UNL     1      39.428   6.626  19.652  0.00  0.00    +0.000 C 
ATOM     29  C   UNL     1      38.775   4.626  18.437  0.00  0.00    +0.000 C 
ENDBRANCH  26  27
ENDBRANCH  20  21
ENDBRANCH  17  18
ENDBRANCH  16  17
ENDBRANCH   2  16
TORSDOF 8
ENDMDL
MODEL 8
REMARK VINA RESULT:      -7.1      2.179      8.777
REMARK  Name = 
REMARK  8 active torsions:
REMARK  status: ('A' for Active; 'I' for Inactive)
REMARK    1  A    between atoms: C_2  and  C_3
REMARK    2  A    between atoms: C_3  and  N_4
REMARK    3  A    between atoms: C_5  and  S_6
REMARK    4  A    between atoms: S_6  and  C_7
REMARK    5  A    between atoms: C_7  and  C_8
REMARK    6  A    between atoms: N_10  and  C_11
REMARK    7  A    between atoms: C_16  and  C_17
REMARK    8  A    between atoms: C_22  and  C_23
REMARK                            x       y       z     vdW  Elec       q    Type
REMARK                         _______ _______ _______ _____ _____    ______ ____
ROOT
ATOM      1  N   UNL     1      37.100   1.061  15.127  0.00  0.00    +0.000 N 
ATOM      2  C   UNL     1      37.748   2.247  15.041  0.00  0.00    +0.000 A 
ATOM      3  N   UNL     1      39.060   1.962  14.978  0.00  0.00    +0.000 NA
ATOM      4  N   UNL     1      39.195   0.653  15.026  0.00  0.00    +0.000 NA
ATOM      5  C   UNL     1      37.980   0.045  15.121  0.00  0.00    +0.000 A 
ENDROOT
BRANCH   5   6
ATOM      6  C   UNL     1      37.710  -1.379  15.201  0.00  0.00    +0.000 A 
ATOM      7  C   UNL     1      36.989  -2.025  14.235  0.00  0.00    +0.000 A 
ATOM      8  C   UNL     1      36.741  -3.389  14.331  0.00  0.00    +0.000 A 
ATOM      9  C   UNL     1      37.208  -4.132  15.389  0.00  0.00    +0.000 A 
ATOM     10  C   UNL     1      37.935  -3.487  16.365  0.00  0.00    +0.000 A 
ATOM     11  C   UNL     1      38.432  -4.300  17.500  0.00  0.00    +0.000 C 
ATOM     12  C   UNL     1      38.175  -2.126  16.257  0.00  0.00    +0.000 A 
ENDBRANCH   5   6
BRANCH   1  13
ATOM     13  C   UNL     1      35.663   0.994  15.216  0.00  0.00    +0.000 C 
BRANCH  13  15
ATOM     14  C   UNL     1      34.908  -0.257  17.182  0.00  0.00    +0.000 C 
ATOM     15  C   UNL     1      35.162   0.882  16.589  0.00  0.00    +0.000 C 
ENDBRANCH  13  15
ENDBRANCH   1  13
BRANCH   2  16
ATOM     16  S   UNL     1      37.000   3.869  15.015  0.00  0.00    +0.000 S 
BRANCH  16  17
ATOM     17  C   UNL     1      38.180   5.147  14.565  0.00  0.00    +0.000 C 
BRANCH  17  18
ATOM     18  C   UNL     1      38.718   5.754  15.803  0.00  0.00    +0.000 C 
ATOM     19  O   UNL     1      39.818   6.390  15.679  0.00  0.00    +0.000 OA
ATOM     20  N   UNL     1      38.135   5.693  17.072  0.00  0.00    +0.000 NA
BRANCH  20  21
ATOM     21  C   UNL     1      38.793   6.342  18.175  0.00  0.00    +0.000 A 
ATOM     22  C   UNL     1      39.786   5.690  18.887  0.00  0.00    +0.000 A 
ATOM     23  C   UNL     1      40.425   6.295  19.945  0.00  0.00    +0.000 A 
ATOM     24  C   UNL     1      40.097   7.581  20.338  0.00  0.00    +0.000 A 
ATOM     25  C   UNL     1      39.105   8.208  19.613  0.00  0.00    +0.000 A 
ATOM     26  C   UNL     1      38.461   7.609  18.553  0.00  0.00    +0.000 A 
BRANCH  26  27
ATOM     27  C   UNL     1      37.393   8.328  17.801  0.00  0.00    +0.000 C 
ATOM     28  C   UNL     1      38.056   9.356  16.894  0.00  0.00    +0.000 C 
ATOM     29  C   UNL     1      36.543   9.146  18.783  0.00  0.00    +0.000 C 
ENDBRANCH  26  27
ENDBRANCH  20  21
ENDBRANCH  17  18
ENDBRANCH  16  17
ENDBRANCH   2  16
TORSDOF 8
ENDMDL
MODEL 9
REMARK VINA RESULT:      -7.0     25.255     27.046
REMARK  Name = 
REMARK  8 active torsions:
REMARK  status: ('A' for Active; 'I' for Inactive)
REMARK    1  A    between atoms: C_2  and  C_3
REMARK    2  A    between atoms: C_3  and  N_4
REMARK    3  A    between atoms: C_5  and  S_6
REMARK    4  A    between atoms: S_6  and  C_7
REMARK    5  A    between atoms: C_7  and  C_8
REMARK    6  A    between atoms: N_10  and  C_11
REMARK    7  A    between atoms: C_16  and  C_17
REMARK    8  A    between atoms: C_22  and  C_23
REMARK                            x       y       z     vdW  Elec       q    Type
REMARK                         _______ _______ _______ _____ _____    ______ ____
ROOT
ATOM      1  N   UNL     1      27.460  15.755  36.960  0.00  0.00    +0.000 N 
ATOM      2  C   UNL     1      27.494  15.529  38.294  0.00  0.00    +0.000 A 
ATOM      3  N   UNL     1      26.277  15.075  38.637  0.00  0.00    +0.000 NA
ATOM      4  N   UNL     1      25.538  15.030  37.547  0.00  0.00    +0.000 NA
ATOM      5  C   UNL     1      26.248  15.452  36.464  0.00  0.00    +0.000 A 
ENDROOT
BRANCH   5   6
ATOM      6  C   UNL     1      25.787  15.553  35.092  0.00  0.00    +0.000 A 
ATOM      7  C   UNL     1      25.857  14.489  34.234  0.00  0.00    +0.000 A 
ATOM      8  C   UNL     1      25.411  14.606  32.924  0.00  0.00    +0.000 A 
ATOM      9  C   UNL     1      24.886  15.783  32.446  0.00  0.00    +0.000 A 
ATOM     10  C   UNL     1      24.812  16.857  33.303  0.00  0.00    +0.000 A 
ATOM     11  C   UNL     1      24.244  18.120  32.774  0.00  0.00    +0.000 C 
ATOM     12  C   UNL     1      25.261  16.728  34.608  0.00  0.00    +0.000 A 
ENDBRANCH   5   6
BRANCH   1  13
ATOM     13  C   UNL     1      28.611  16.257  36.252  0.00  0.00    +0.000 C 
BRANCH  13  15
ATOM     14  C   UNL     1      30.347  14.561  35.926  0.00  0.00    +0.000 C 
ATOM     15  C   UNL     1      29.319  15.235  35.478  0.00  0.00    +0.000 C 
ENDBRANCH  13  15
ENDBRANCH   1  13
BRANCH   2  16
ATOM     16  S   UNL     1      28.888  15.785  39.382  0.00  0.00    +0.000 S 
BRANCH  16  17
ATOM     17  C   UNL     1      28.524  15.290  41.071  0.00  0.00    +0.000 C 
BRANCH  17  18
ATOM     18  C   UNL     1      28.789  13.841  41.210  0.00  0.00    +0.000 C 
ATOM     19  O   UNL     1      28.836  13.395  42.405  0.00  0.00    +0.000 OA
ATOM     20  N   UNL     1      28.987  12.935  40.164  0.00  0.00    +0.000 NA
BRANCH  20  21
ATOM     21  C   UNL     1      29.235  11.552  40.474  0.00  0.00    +0.000 A 
ATOM     22  C   UNL     1      28.188  10.703  40.797  0.00  0.00    +0.000 A 
ATOM     23  C   UNL     1      28.406   9.378  41.096  0.00  0.00    +0.000 A 
ATOM     24  C   UNL     1      29.683   8.843  41.087  0.00  0.00    +0.000 A 
ATOM     25  C   UNL     1      30.707   9.709  40.763  0.00  0.00    +0.000 A 
ATOM     26  C   UNL     1      30.496  11.037  40.462  0.00  0.00    +0.000 A 
BRANCH  26  27
ATOM     27  C   UNL     1      31.637  11.933  40.119  0.00  0.00    +0.000 C 
ATOM     28  C   UNL     1      31.904  11.818  38.624  0.00  0.00    +0.000 C 
ATOM     29  C   UNL     1      32.913  11.416  40.797  0.00  0.00    +0.000 C 
ENDBRANCH  26  27
ENDBRANCH  20  21
ENDBRANCH  17  18
ENDBRANCH  16  17
ENDBRANCH   2  16
TORSDOF 8
ENDMDL
MODEL 10
REMARK VINA RESULT:      -7.0      2.002      8.462
REMARK  Name = 
REMARK  8 active torsions:
REMARK  status: ('A' for Active; 'I' for Inactive)
REMARK    1  A    between atoms: C_2  and  C_3
REMARK    2  A    between atoms: C_3  and  N_4
REMARK    3  A    between atoms: C_5  and  S_6
REMARK    4  A    between atoms: S_6  and  C_7
REMARK    5  A    between atoms: C_7  and  C_8
REMARK    6  A    between atoms: N_10  and  C_11
REMARK    7  A    between atoms: C_16  and  C_17
REMARK    8  A    between atoms: C_22  and  C_23
REMARK                            x       y       z     vdW  Elec       q    Type
REMARK                         _______ _______ _______ _____ _____    ______ ____
ROOT
ATOM      1  N   UNL     1      37.504   0.924  15.229  0.00  0.00    +0.000 N 
ATOM      2  C   UNL     1      37.429   2.254  15.467  0.00  0.00    +0.000 A 
ATOM      3  N   UNL     1      36.733   2.401  16.607  0.00  0.00    +0.000 NA
ATOM      4  N   UNL     1      36.401   1.201  17.038  0.00  0.00    +0.000 NA
ATOM      5  C   UNL     1      36.869   0.239  16.196  0.00  0.00    +0.000 A 
ENDROOT
BRANCH   5   6
ATOM      6  C   UNL     1      36.707  -1.198  16.322  0.00  0.00    +0.000 A 
ATOM      7  C   UNL     1      37.568  -1.951  17.073  0.00  0.00    +0.000 A 
ATOM      8  C   UNL     1      37.397  -3.325  17.181  0.00  0.00    +0.000 A 
ATOM      9  C   UNL     1      36.365  -3.973  16.545  0.00  0.00    +0.000 A 
ATOM     10  C   UNL     1      35.495  -3.221  15.788  0.00  0.00    +0.000 A 
ATOM     11  C   UNL     1      34.387  -3.932  15.107  0.00  0.00    +0.000 C 
ATOM     12  C   UNL     1      35.677  -1.851  15.688  0.00  0.00    +0.000 A 
ENDBRANCH   5   6
BRANCH   1  13
ATOM     13  C   UNL     1      38.186   0.404  14.071  0.00  0.00    +0.000 C 
BRANCH  13  15
ATOM     14  C   UNL     1      39.988  -1.231  14.352  0.00  0.00    +0.000 C 
ATOM     15  C   UNL     1      39.573   0.010  14.331  0.00  0.00    +0.000 C 
ENDBRANCH  13  15
ENDBRANCH   1  13
BRANCH   2  16
ATOM     16  S   UNL     1      38.122   3.557  14.459  0.00  0.00    +0.000 S 
BRANCH  16  17
ATOM     17  C   UNL     1      37.465   5.170  14.898  0.00  0.00    +0.000 C 
BRANCH  17  18
ATOM     18  C   UNL     1      38.278   5.732  15.999  0.00  0.00    +0.000 C 
ATOM     19  O   UNL     1      37.940   6.895  16.404  0.00  0.00    +0.000 OA
ATOM     20  N   UNL     1      39.363   5.110  16.622  0.00  0.00    +0.000 NA
BRANCH  20  21
ATOM     21  C   UNL     1      40.049   5.799  17.684  0.00  0.00    +0.000 A 
ATOM     22  C   UNL     1      39.532   5.807  18.969  0.00  0.00    +0.000 A 
ATOM     23  C   UNL     1      40.174   6.461  19.996  0.00  0.00    +0.000 A 
ATOM     24  C   UNL     1      41.363   7.136  19.781  0.00  0.00    +0.000 A 
ATOM     25  C   UNL     1      41.856   7.114  18.493  0.00  0.00    +0.000 A 
ATOM     26  C   UNL     1      41.219   6.462  17.460  0.00  0.00    +0.000 A 
BRANCH  26  27
ATOM     27  C   UNL     1      41.791   6.467  16.083  0.00  0.00    +0.000 C 
ATOM     28  C   UNL     1      43.306   6.578  16.195  0.00  0.00    +0.000 C 
ATOM     29  C   UNL     1      41.347   7.742  15.353  0.00  0.00    +0.000 C 
ENDBRANCH  26  27
ENDBRANCH  20  21
ENDBRANCH  17  18
ENDBRANCH  16  17
ENDBRANCH   2  16
TORSDOF 8
ENDMDL
