MODEL 1
REMARK VINA RESULT:      -7.7      0.000      0.000
REMARK  Name = 
REMARK  6 active torsions:
REMARK  status: ('A' for Active; 'I' for Inactive)
REMARK    1  A    between atoms: C_7  and  N_8
REMARK    2  A    between atoms: C_9  and  C_11
REMARK    3  A    between atoms: C_11  and  C_12
REMARK    4  A    between atoms: C_14  and  C_15
REMARK    5  A    between atoms: N_17  and  C_18
REMARK    6  A    between atoms: C_18  and  C_19
REMARK                            x       y       z     vdW  Elec       q    Type
REMARK                         _______ _______ _______ _____ _____    ______ ____
ROOT
ATOM      1  C   UNL     1      38.338   4.314  16.949  0.00  0.00    +0.000 A 
ATOM      2  C   UNL     1      37.073   3.719  17.032  0.00  0.00    +0.000 A 
ATOM      3  N   UNL     1      36.705   3.356  15.796  0.00  0.00    +0.000 N 
ATOM      4  C   UNL     1      37.667   3.685  14.903  0.00  0.00    +0.000 A 
ATOM      5  C   UNL     1      37.785   3.547  13.537  0.00  0.00    +0.000 A 
ATOM      6  C   UNL     1      38.925   4.013  12.919  0.00  0.00    +0.000 A 
ATOM      7  C   UNL     1      39.956   4.614  13.611  0.00  0.00    +0.000 A 
ATOM      8  C   UNL     1      39.817   4.739  14.958  0.00  0.00    +0.000 A 
ATOM      9  C   UNL     1      38.702   4.291  15.619  0.00  0.00    +0.000 A 
ENDROOT
BRANCH   1  11
ATOM     10  C   UNL     1      39.108   6.127  18.412  0.00  0.00    +0.000 C 
ATOM     11  C   UNL     1      39.091   4.869  18.062  0.00  0.00    +0.000 C 
BRANCH  10  13
ATOM     12  N   UNL     1      41.220   6.711  19.516  0.00  0.00    +0.000 NA
ATOM     13  C   UNL     1      39.858   6.679  19.529  0.00  0.00    +0.000 C 
ATOM     14  O   UNL     1      39.279   7.147  20.548  0.00  0.00    +0.000 OA
BRANCH  12  21
ATOM     15  C   UNL     1      44.211   6.834  19.408  0.00  0.00    +0.000 C 
ATOM     16  C   UNL     1      43.182   8.037  19.689  0.00  0.00    +0.000 C 
ATOM     17  C   UNL     1      44.059   8.716  20.864  0.00  0.00    +0.000 C 
ATOM     18  C   UNL     1      44.099   7.930  22.067  0.00  0.00    +0.000 C 
ATOM     19  C   UNL     1      43.954   6.476  22.023  0.00  0.00    +0.000 C 
ATOM     20  C   UNL     1      42.849   5.960  21.170  0.00  0.00    +0.000 C 
ATOM     21  C   UNL     1      42.038   7.304  20.723  0.00  0.00    +0.000 C 
ENDBRANCH  12  21
ENDBRANCH  10  13
BRANCH  10  22
ATOM     22  C   UNL     1      38.356   7.082  17.619  0.00  0.00    +0.000 C 
ATOM     23  N   UNL     1      37.774   7.850  16.963  0.00  0.00    +0.000 NA
ENDBRANCH  10  22
ENDBRANCH   1  11
BRANCH   3  24
ATOM     24  C   UNL     1      35.494   2.701  15.395  0.00  0.00    +0.000 C 
BRANCH  24  25
ATOM     25  C   UNL     1      35.500   1.261  15.750  0.00  0.00    +0.000 A 
ATOM     26  C   UNL     1      36.220   0.356  15.004  0.00  0.00    +0.000 A 
ATOM     27  C   UNL     1      36.183  -0.978  15.382  0.00  0.00    +0.000 A 
ATOM     28  C   UNL     1      35.454  -1.392  16.468  0.00  0.00    +0.000 A 
ATOM     29  C   UNL     1      34.726  -0.483  17.225  0.00  0.00    +0.000 A 
ATOM     30  C   UNL     1      34.783   0.820  16.827  0.00  0.00    +0.000 A 
ENDBRANCH  24  25
ENDBRANCH   3  24
TORSDOF 6
ENDMDL
MODEL 2
REMARK VINA RESULT:      -7.6      3.567      8.239
REMARK  Name = 
REMARK  6 active torsions:
REMARK  status: ('A' for Active; 'I' for Inactive)
REMARK    1  A    between atoms: C_7  and  N_8
REMARK    2  A    between atoms: C_9  and  C_11
REMARK    3  A    between atoms: C_11  and  C_12
REMARK    4  A    between atoms: C_14  and  C_15
REMARK    5  A    between atoms: N_17  and  C_18
REMARK    6  A    between atoms: C_18  and  C_19
REMARK                            x       y       z     vdW  Elec       q    Type
REMARK                         _______ _______ _______ _____ _____    ______ ____
ROOT
ATOM      1  C   UNL     1      37.633   3.784  15.904  0.00  0.00    +0.000 A 
ATOM      2  C   UNL     1      37.302   4.469  14.729  0.00  0.00    +0.000 A 
ATOM      3  N   UNL     1      37.597   5.764  14.909  0.00  0.00    +0.000 N 
ATOM      4  C   UNL     1      38.105   5.964  16.148  0.00  0.00    +0.000 A 
ATOM      5  C   UNL     1      38.548   7.078  16.826  0.00  0.00    +0.000 A 
ATOM      6  C   UNL     1      39.005   6.930  18.117  0.00  0.00    +0.000 A 
ATOM      7  C   UNL     1      39.038   5.710  18.761  0.00  0.00    +0.000 A 
ATOM      8  C   UNL     1      38.596   4.625  18.072  0.00  0.00    +0.000 A 
ATOM      9  C   UNL     1      38.131   4.721  16.784  0.00  0.00    +0.000 A 
ENDROOT
BRANCH   1  11
ATOM     10  C   UNL     1      36.302   1.741  16.178  0.00  0.00    +0.000 C 
ATOM     11  C   UNL     1      37.450   2.361  16.138  0.00  0.00    +0.000 C 
BRANCH  10  13
ATOM     12  N   UNL     1      37.181  -0.539  16.394  0.00  0.00    +0.000 NA
ATOM     13  C   UNL     1      36.121   0.316  16.407  0.00  0.00    +0.000 C 
ATOM     14  O   UNL     1      34.981  -0.179  16.626  0.00  0.00    +0.000 OA
BRANCH  12  21
ATOM     15  C   UNL     1      39.288  -2.482  15.525  0.00  0.00    +0.000 C 
ATOM     16  C   UNL     1      38.648  -2.309  16.989  0.00  0.00    +0.000 C 
ATOM     17  C   UNL     1      38.539  -3.891  17.296  0.00  0.00    +0.000 C 
ATOM     18  C   UNL     1      37.545  -4.556  16.497  0.00  0.00    +0.000 C 
ATOM     19  C   UNL     1      37.178  -4.051  15.176  0.00  0.00    +0.000 C 
ATOM     20  C   UNL     1      36.938  -2.584  15.087  0.00  0.00    +0.000 C 
ATOM     21  C   UNL     1      36.992  -2.082  16.638  0.00  0.00    +0.000 C 
ENDBRANCH  12  21
ENDBRANCH  10  13
BRANCH  10  22
ATOM     22  C   UNL     1      35.085   2.517  16.019  0.00  0.00    +0.000 C 
ATOM     23  N   UNL     1      34.116   3.157  15.914  0.00  0.00    +0.000 NA
ENDBRANCH  10  22
ENDBRANCH   1  11
BRANCH   3  24
ATOM     24  C   UNL     1      37.439   6.840  13.974  0.00  0.00    +0.000 C 
BRANCH  24  25
ATOM     25  C   UNL     1      36.061   6.902  13.430  0.00  0.00    +0.000 A 
ATOM     26  C   UNL     1      35.832   6.780  12.078  0.00  0.00    +0.000 A 
ATOM     27  C   UNL     1      34.522   6.850  11.627  0.00  0.00    +0.000 A 
ATOM     28  C   UNL     1      33.478   7.035  12.498  0.00  0.00    +0.000 A 
ATOM     29  C   UNL     1      33.702   7.160  13.863  0.00  0.00    +0.000 A 
ATOM     30  C   UNL     1      35.000   7.086  14.273  0.00  0.00    +0.000 A 
ENDBRANCH  24  25
ENDBRANCH   3  24
TORSDOF 6
ENDMDL
MODEL 3
REMARK VINA RESULT:      -7.6      2.803      8.582
REMARK  Name = 
REMARK  6 active torsions:
REMARK  status: ('A' for Active; 'I' for Inactive)
REMARK    1  A    between atoms: C_7  and  N_8
REMARK    2  A    between atoms: C_9  and  C_11
REMARK    3  A    between atoms: C_11  and  C_12
REMARK    4  A    between atoms: C_14  and  C_15
REMARK    5  A    between atoms: N_17  and  C_18
REMARK    6  A    between atoms: C_18  and  C_19
REMARK                            x       y       z     vdW  Elec       q    Type
REMARK                         _______ _______ _______ _____ _____    ______ ____
ROOT
ATOM      1  C   UNL     1      37.486   3.534  15.798  0.00  0.00    +0.000 A 
ATOM      2  C   UNL     1      37.895   4.455  16.769  0.00  0.00    +0.000 A 
ATOM      3  N   UNL     1      38.013   5.653  16.180  0.00  0.00    +0.000 N 
ATOM      4  C   UNL     1      37.702   5.564  14.866  0.00  0.00    +0.000 A 
ATOM      5  C   UNL     1      37.670   6.474  13.833  0.00  0.00    +0.000 A 
ATOM      6  C   UNL     1      37.310   6.039  12.576  0.00  0.00    +0.000 A 
ATOM      7  C   UNL     1      36.978   4.727  12.308  0.00  0.00    +0.000 A 
ATOM      8  C   UNL     1      37.016   3.847  13.344  0.00  0.00    +0.000 A 
ATOM      9  C   UNL     1      37.369   4.232  14.613  0.00  0.00    +0.000 A 
ENDROOT
BRANCH   1  11
ATOM     10  C   UNL     1      36.096   1.537  16.112  0.00  0.00    +0.000 C 
ATOM     11  C   UNL     1      37.262   2.114  16.012  0.00  0.00    +0.000 C 
BRANCH  10  13
ATOM     12  N   UNL     1      36.896  -0.779  16.215  0.00  0.00    +0.000 NA
ATOM     13  C   UNL     1      35.875   0.115  16.322  0.00  0.00    +0.000 C 
ATOM     14  O   UNL     1      34.734  -0.342  16.609  0.00  0.00    +0.000 OA
BRANCH  12  21
ATOM     15  C   UNL     1      38.825  -2.782  15.102  0.00  0.00    +0.000 C 
ATOM     16  C   UNL     1      38.333  -2.626  16.625  0.00  0.00    +0.000 C 
ATOM     17  C   UNL     1      38.184  -4.210  16.900  0.00  0.00    +0.000 C 
ATOM     18  C   UNL     1      37.092  -4.809  16.182  0.00  0.00    +0.000 C 
ATOM     19  C   UNL     1      36.625  -4.251  14.915  0.00  0.00    +0.000 C 
ATOM     20  C   UNL     1      36.443  -2.774  14.886  0.00  0.00    +0.000 C 
ATOM     21  C   UNL     1      36.663  -2.320  16.437  0.00  0.00    +0.000 C 
ENDBRANCH  12  21
ENDBRANCH  10  13
BRANCH  10  22
ATOM     22  C   UNL     1      34.903   2.362  16.051  0.00  0.00    +0.000 C 
ATOM     23  N   UNL     1      33.930   3.002  15.989  0.00  0.00    +0.000 NA
ENDBRANCH  10  22
ENDBRANCH   1  11
BRANCH   3  24
ATOM     24  C   UNL     1      38.395   6.896  16.785  0.00  0.00    +0.000 C 
BRANCH  24  25
ATOM     25  C   UNL     1      39.496   6.721  17.762  0.00  0.00    +0.000 A 
ATOM     26  C   UNL     1      39.235   6.649  19.111  0.00  0.00    +0.000 A 
ATOM     27  C   UNL     1      40.307   6.489  19.977  0.00  0.00    +0.000 A 
ATOM     28  C   UNL     1      41.594   6.403  19.510  0.00  0.00    +0.000 A 
ATOM     29  C   UNL     1      41.865   6.475  18.149  0.00  0.00    +0.000 A 
ATOM     30  C   UNL     1      40.789   6.633  17.326  0.00  0.00    +0.000 A 
ENDBRANCH  24  25
ENDBRANCH   3  24
TORSDOF 6
ENDMDL
MODEL 4
REMARK VINA RESULT:      -7.6      5.675      7.937
REMARK  Name = 
REMARK  6 active torsions:
REMARK  status: ('A' for Active; 'I' for Inactive)
REMARK    1  A    between atoms: C_7  and  N_8
REMARK    2  A    between atoms: C_9  and  C_11
REMARK    3  A    between atoms: C_11  and  C_12
REMARK    4  A    between atoms: C_14  and  C_15
REMARK    5  A    between atoms: N_17  and  C_18
REMARK    6  A    between atoms: C_18  and  C_19
REMARK                            x       y       z     vdW  Elec       q    Type
REMARK                         _______ _______ _______ _____ _____    ______ ____
ROOT
ATOM      1  C   UNL     1      35.991  -0.000  15.815  0.00  0.00    +0.000 A 
ATOM      2  C   UNL     1      36.477  -0.968  14.928  0.00  0.00    +0.000 A 
ATOM      3  N   UNL     1      37.060  -1.935  15.650  0.00  0.00    +0.000 N 
ATOM      4  C   UNL     1      36.982  -1.649  16.970  0.00  0.00    +0.000 A 
ATOM      5  C   UNL     1      37.418  -2.289  18.109  0.00  0.00    +0.000 A 
ATOM      6  C   UNL     1      37.177  -1.703  19.333  0.00  0.00    +0.000 A 
ATOM      7  C   UNL     1      36.516  -0.500  19.466  0.00  0.00    +0.000 A 
ATOM      8  C   UNL     1      36.094   0.113  18.328  0.00  0.00    +0.000 A 
ATOM      9  C   UNL     1      36.310  -0.430  17.086  0.00  0.00    +0.000 A 
ENDROOT
BRANCH   1  11
ATOM     10  C   UNL     1      35.893   2.361  15.155  0.00  0.00    +0.000 C 
ATOM     11  C   UNL     1      35.310   1.229  15.443  0.00  0.00    +0.000 C 
BRANCH  10  13
ATOM     12  N   UNL     1      35.779   4.474  13.916  0.00  0.00    +0.000 NA
ATOM     13  C   UNL     1      35.210   3.588  14.778  0.00  0.00    +0.000 C 
ATOM     14  O   UNL     1      34.069   3.876  15.234  0.00  0.00    +0.000 OA
BRANCH  12  21
ATOM     15  C   UNL     1      37.194   6.544  12.276  0.00  0.00    +0.000 C 
ATOM     16  C   UNL     1      35.786   5.833  11.968  0.00  0.00    +0.000 C 
ATOM     17  C   UNL     1      35.048   7.174  11.450  0.00  0.00    +0.000 C 
ATOM     18  C   UNL     1      34.799   8.124  12.500  0.00  0.00    +0.000 C 
ATOM     19  C   UNL     1      35.655   8.182  13.683  0.00  0.00    +0.000 C 
ATOM     20  C   UNL     1      35.982   6.873  14.312  0.00  0.00    +0.000 C 
ATOM     21  C   UNL     1      35.047   5.806  13.507  0.00  0.00    +0.000 C 
ENDBRANCH  12  21
ENDBRANCH  10  13
BRANCH  10  22
ATOM     22  C   UNL     1      37.340   2.442  15.246  0.00  0.00    +0.000 C 
ATOM     23  N   UNL     1      38.501   2.493  15.343  0.00  0.00    +0.000 NA
ENDBRANCH  10  22
ENDBRANCH   1  11
BRANCH   3  24
ATOM     24  C   UNL     1      37.687  -3.134  15.171  0.00  0.00    +0.000 C 
BRANCH  24  25
ATOM     25  C   UNL     1      38.980  -2.853  14.502  0.00  0.00    +0.000 A 
ATOM     26  C   UNL     1      40.107  -2.571  15.240  0.00  0.00    +0.000 A 
ATOM     27  C   UNL     1      41.287  -2.312  14.559  0.00  0.00    +0.000 A 
ATOM     28  C   UNL     1      41.338  -2.337  13.188  0.00  0.00    +0.000 A 
ATOM     29  C   UNL     1      40.205  -2.621  12.437  0.00  0.00    +0.000 A 
ATOM     30  C   UNL     1      39.062  -2.870  13.138  0.00  0.00    +0.000 A 
ENDBRANCH  24  25
ENDBRANCH   3  24
TORSDOF 6
ENDMDL
MODEL 5
REMARK VINA RESULT:      -7.5      2.769      8.941
REMARK  Name = 
REMARK  6 active torsions:
REMARK  status: ('A' for Active; 'I' for Inactive)
REMARK    1  A    between atoms: C_7  and  N_8
REMARK    2  A    between atoms: C_9  and  C_11
REMARK    3  A    between atoms: C_11  and  C_12
REMARK    4  A    between atoms: C_14  and  C_15
REMARK    5  A    between atoms: N_17  and  C_18
REMARK    6  A    between atoms: C_18  and  C_19
REMARK                            x       y       z     vdW  Elec       q    Type
REMARK                         _______ _______ _______ _____ _____    ______ ____
ROOT
ATOM      1  C   UNL     1      37.804   3.974  15.735  0.00  0.00    +0.000 A 
ATOM      2  C   UNL     1      38.146   4.343  17.041  0.00  0.00    +0.000 A 
ATOM      3  N   UNL     1      38.154   5.682  17.103  0.00  0.00    +0.000 N 
ATOM      4  C   UNL     1      37.835   6.211  15.900  0.00  0.00    +0.000 A 
ATOM      5  C   UNL     1      37.713   7.500  15.430  0.00  0.00    +0.000 A 
ATOM      6  C   UNL     1      37.374   7.695  14.109  0.00  0.00    +0.000 A 
ATOM      7  C   UNL     1      37.151   6.652  13.234  0.00  0.00    +0.000 A 
ATOM      8  C   UNL     1      37.277   5.389  13.721  0.00  0.00    +0.000 A 
ATOM      9  C   UNL     1      37.613   5.142  15.028  0.00  0.00    +0.000 A 
ENDROOT
BRANCH   1  11
ATOM     10  C   UNL     1      36.600   1.930  15.109  0.00  0.00    +0.000 C 
ATOM     11  C   UNL     1      37.705   2.613  15.235  0.00  0.00    +0.000 C 
BRANCH  10  13
ATOM     12  N   UNL     1      36.280  -0.479  15.443  0.00  0.00    +0.000 NA
ATOM     13  C   UNL     1      36.503   0.569  14.604  0.00  0.00    +0.000 C 
ATOM     14  O   UNL     1      36.621   0.311  13.374  0.00  0.00    +0.000 OA
BRANCH  12  21
ATOM     15  C   UNL     1      35.920  -2.770  17.340  0.00  0.00    +0.000 C 
ATOM     16  C   UNL     1      35.010  -2.385  16.071  0.00  0.00    +0.000 C 
ATOM     17  C   UNL     1      34.813  -3.904  15.560  0.00  0.00    +0.000 C 
ATOM     18  C   UNL     1      36.017  -4.485  15.030  0.00  0.00    +0.000 C 
ATOM     19  C   UNL     1      37.332  -4.044  15.491  0.00  0.00    +0.000 C 
ATOM     20  C   UNL     1      37.528  -2.571  15.580  0.00  0.00    +0.000 C 
ATOM     21  C   UNL     1      36.178  -1.954  14.903  0.00  0.00    +0.000 C 
ENDBRANCH  12  21
ENDBRANCH  10  13
BRANCH  10  22
ATOM     22  C   UNL     1      35.353   2.538  15.536  0.00  0.00    +0.000 C 
ATOM     23  N   UNL     1      34.353   3.013  15.905  0.00  0.00    +0.000 NA
ENDBRANCH  10  22
ENDBRANCH   1  11
BRANCH   3  24
ATOM     24  C   UNL     1      38.438   6.508  18.242  0.00  0.00    +0.000 C 
BRANCH  24  25
ATOM     25  C   UNL     1      39.883   6.518  18.572  0.00  0.00    +0.000 A 
ATOM     26  C   UNL     1      40.831   6.625  17.580  0.00  0.00    +0.000 A 
ATOM     27  C   UNL     1      42.168   6.625  17.950  0.00  0.00    +0.000 A 
ATOM     28  C   UNL     1      42.543   6.522  19.265  0.00  0.00    +0.000 A 
ATOM     29  C   UNL     1      41.592   6.415  20.272  0.00  0.00    +0.000 A 
ATOM     30  C   UNL     1      40.287   6.418  19.874  0.00  0.00    +0.000 A 
ENDBRANCH  24  25
ENDBRANCH   3  24
TORSDOF 6
ENDMDL
MODEL 6
REMARK VINA RESULT:      -7.5     25.119     27.362
REMARK  Name = 
REMARK  6 active torsions:
REMARK  status: ('A' for Active; 'I' for Inactive)
REMARK    1  A    between atoms: C_7  and  N_8
REMARK    2  A    between atoms: C_9  and  C_11
REMARK    3  A    between atoms: C_11  and  C_12
REMARK    4  A    between atoms: C_14  and  C_15
REMARK    5  A    between atoms: N_17  and  C_18
REMARK    6  A    between atoms: C_18  and  C_19
REMARK                            x       y       z     vdW  Elec       q    Type
REMARK                         _______ _______ _______ _____ _____    ______ ____
ROOT
ATOM      1  C   UNL     1      25.617  15.013  38.703  0.00  0.00    +0.000 A 
ATOM      2  C   UNL     1      26.404  15.112  37.549  0.00  0.00    +0.000 A 
ATOM      3  N   UNL     1      26.174  16.310  36.993  0.00  0.00    +0.000 N 
ATOM      4  C   UNL     1      25.272  17.003  37.725  0.00  0.00    +0.000 A 
ATOM      5  C   UNL     1      24.695  18.247  37.594  0.00  0.00    +0.000 A 
ATOM      6  C   UNL     1      23.778  18.656  38.537  0.00  0.00    +0.000 A 
ATOM      7  C   UNL     1      23.411  17.871  39.611  0.00  0.00    +0.000 A 
ATOM      8  C   UNL     1      23.994  16.647  39.720  0.00  0.00    +0.000 A 
ATOM      9  C   UNL     1      24.913  16.195  38.806  0.00  0.00    +0.000 A 
ENDROOT
BRANCH   1  11
ATOM     10  C   UNL     1      26.487  13.490  40.417  0.00  0.00    +0.000 C 
ATOM     11  C   UNL     1      25.549  13.864  39.590  0.00  0.00    +0.000 C 
BRANCH  10  13
ATOM     12  N   UNL     1      27.459  11.476  41.427  0.00  0.00    +0.000 NA
ATOM     13  C   UNL     1      26.414  12.341  41.308  0.00  0.00    +0.000 C 
ATOM     14  O   UNL     1      25.386  12.106  42.001  0.00  0.00    +0.000 OA
BRANCH  12  21
ATOM     15  C   UNL     1      29.279   9.133  41.014  0.00  0.00    +0.000 C 
ATOM     16  C   UNL     1      29.077  10.004  42.350  0.00  0.00    +0.000 C 
ATOM     17  C   UNL     1      29.100   8.742  43.358  0.00  0.00    +0.000 C 
ATOM     18  C   UNL     1      27.937   7.905  43.243  0.00  0.00    +0.000 C 
ATOM     19  C   UNL     1      27.197   7.810  41.987  0.00  0.00    +0.000 C 
ATOM     20  C   UNL     1      26.905   9.103  41.308  0.00  0.00    +0.000 C 
ATOM     21  C   UNL     1      27.385  10.230  42.385  0.00  0.00    +0.000 C 
ENDBRANCH  12  21
ENDBRANCH  10  13
BRANCH  10  22
ATOM     22  C   UNL     1      27.730  14.238  40.448  0.00  0.00    +0.000 C 
ATOM     23  N   UNL     1      28.735  14.829  40.446  0.00  0.00    +0.000 NA
ENDBRANCH  10  22
ENDBRANCH   1  11
BRANCH   3  24
ATOM     24  C   UNL     1      26.764  16.856  35.805  0.00  0.00    +0.000 C 
BRANCH  24  25
ATOM     25  C   UNL     1      26.076  16.385  34.578  0.00  0.00    +0.000 A 
ATOM     26  C   UNL     1      25.300  17.244  33.833  0.00  0.00    +0.000 A 
ATOM     27  C   UNL     1      24.678  16.745  32.698  0.00  0.00    +0.000 A 
ATOM     28  C   UNL     1      24.828  15.434  32.322  0.00  0.00    +0.000 A 
ATOM     29  C   UNL     1      25.609  14.562  33.069  0.00  0.00    +0.000 A 
ATOM     30  C   UNL     1      26.206  15.084  34.178  0.00  0.00    +0.000 A 
ENDBRANCH  24  25
ENDBRANCH   3  24
TORSDOF 6
ENDMDL
MODEL 7
REMARK VINA RESULT:      -7.3      3.148      8.996
REMARK  Name = 
REMARK  6 active torsions:
REMARK  status: ('A' for Active; 'I' for Inactive)
REMARK    1  A    between atoms: C_7  and  N_8
REMARK    2  A    between atoms: C_9  and  C_11
REMARK    3  A    between atoms: C_11  and  C_12
REMARK    4  A    between atoms: C_14  and  C_15
REMARK    5  A    between atoms: N_17  and  C_18
REMARK    6  A    between atoms: C_18  and  C_19
REMARK                            x       y       z     vdW  Elec       q    Type
REMARK                         _______ _______ _______ _____ _____    ______ ____
ROOT
ATOM      1  C   UNL     1      37.806   3.433  15.068  0.00  0.00    +0.000 A 
ATOM      2  C   UNL     1      39.003   4.035  15.472  0.00  0.00    +0.000 A 
ATOM      3  N   UNL     1      38.842   5.364  15.403  0.00  0.00    +0.000 N 
ATOM      4  C   UNL     1      37.596   5.665  14.970  0.00  0.00    +0.000 A 
ATOM      5  C   UNL     1      36.935   6.848  14.721  0.00  0.00    +0.000 A 
ATOM      6  C   UNL     1      35.636   6.798  14.264  0.00  0.00    +0.000 A 
ATOM      7  C   UNL     1      34.967   5.612  14.045  0.00  0.00    +0.000 A 
ATOM      8  C   UNL     1      35.639   4.458  14.299  0.00  0.00    +0.000 A 
ATOM      9  C   UNL     1      36.934   4.454  14.755  0.00  0.00    +0.000 A 
ENDROOT
BRANCH   1  11
ATOM     10  C   UNL     1      37.657   1.288  13.886  0.00  0.00    +0.000 C 
ATOM     11  C   UNL     1      37.563   2.003  14.974  0.00  0.00    +0.000 C 
BRANCH  10  13
ATOM     12  N   UNL     1      36.880  -0.834  14.840  0.00  0.00    +0.000 NA
ATOM     13  C   UNL     1      37.417  -0.144  13.797  0.00  0.00    +0.000 C 
ATOM     14  O   UNL     1      37.698  -0.797  12.754  0.00  0.00    +0.000 OA
BRANCH  12  21
ATOM     15  C   UNL     1      35.914  -2.353  17.234  0.00  0.00    +0.000 C 
ATOM     16  C   UNL     1      35.254  -2.296  15.769  0.00  0.00    +0.000 C 
ATOM     17  C   UNL     1      34.893  -3.868  15.703  0.00  0.00    +0.000 C 
ATOM     18  C   UNL     1      36.052  -4.712  15.591  0.00  0.00    +0.000 C 
ATOM     19  C   UNL     1      37.345  -4.291  16.126  0.00  0.00    +0.000 C 
ATOM     20  C   UNL     1      37.755  -2.896  15.807  0.00  0.00    +0.000 C 
ATOM     21  C   UNL     1      36.622  -2.385  14.751  0.00  0.00    +0.000 C 
ENDBRANCH  12  21
ENDBRANCH  10  13
BRANCH  10  22
ATOM     22  C   UNL     1      37.989   1.955  12.641  0.00  0.00    +0.000 C 
ATOM     23  N   UNL     1      38.267   2.513  11.655  0.00  0.00    +0.000 NA
ENDBRANCH  10  22
ENDBRANCH   1  11
BRANCH   3  24
ATOM     24  C   UNL     1      39.795   6.384  15.732  0.00  0.00    +0.000 C 
BRANCH  24  25
ATOM     25  C   UNL     1      40.107   6.403  17.182  0.00  0.00    +0.000 A 
ATOM     26  C   UNL     1      41.410   6.352  17.621  0.00  0.00    +0.000 A 
ATOM     27  C   UNL     1      41.640   6.369  18.989  0.00  0.00    +0.000 A 
ATOM     28  C   UNL     1      40.603   6.436  19.885  0.00  0.00    +0.000 A 
ATOM     29  C   UNL     1      39.285   6.488  19.448  0.00  0.00    +0.000 A 
ATOM     30  C   UNL     1      39.095   6.470  18.098  0.00  0.00    +0.000 A 
ENDBRANCH  24  25
ENDBRANCH   3  24
TORSDOF 6
ENDMDL
MODEL 8
REMARK VINA RESULT:      -7.2      2.844      5.115
REMARK  Name = 
REMARK  6 active torsions:
REMARK  status: ('A' for Active; 'I' for Inactive)
REMARK    1  A    between atoms: C_7  and  N_8
REMARK    2  A    between atoms: C_9  and  C_11
REMARK    3  A    between atoms: C_11  and  C_12
REMARK    4  A    between atoms: C_14  and  C_15
REMARK    5  A    between atoms: N_17  and  C_18
REMARK    6  A    between atoms: C_18  and  C_19
REMARK                            x       y       z     vdW  Elec       q    Type
REMARK                         _______ _______ _______ _____ _____    ______ ____
ROOT
ATOM      1  C   UNL     1      37.598   1.763  15.355  0.00  0.00    +0.000 A 
ATOM      2  C   UNL     1      38.044   1.009  14.263  0.00  0.00    +0.000 A 
ATOM      3  N   UNL     1      37.400  -0.166  14.281  0.00  0.00    +0.000 N 
ATOM      4  C   UNL     1      36.552  -0.222  15.334  0.00  0.00    +0.000 A 
ATOM      5  C   UNL     1      35.683  -1.181  15.806  0.00  0.00    +0.000 A 
ATOM      6  C   UNL     1      34.954  -0.913  16.944  0.00  0.00    +0.000 A 
ATOM      7  C   UNL     1      35.057   0.277  17.633  0.00  0.00    +0.000 A 
ATOM      8  C   UNL     1      35.921   1.209  17.149  0.00  0.00    +0.000 A 
ATOM      9  C   UNL     1      36.669   0.990  16.019  0.00  0.00    +0.000 A 
ENDROOT
BRANCH   1  11
ATOM     10  C   UNL     1      37.409   4.204  15.511  0.00  0.00    +0.000 C 
ATOM     11  C   UNL     1      38.062   3.092  15.717  0.00  0.00    +0.000 C 
BRANCH  10  13
ATOM     12  N   UNL     1      38.673   5.724  16.964  0.00  0.00    +0.000 NA
ATOM     13  C   UNL     1      37.873   5.533  15.879  0.00  0.00    +0.000 C 
ATOM     14  O   UNL     1      37.553   6.554  15.209  0.00  0.00    +0.000 OA
BRANCH  12  21
ATOM     15  C   UNL     1      40.070   6.162  19.578  0.00  0.00    +0.000 C 
ATOM     16  C   UNL     1      40.588   6.544  18.105  0.00  0.00    +0.000 C 
ATOM     17  C   UNL     1      41.198   7.979  18.525  0.00  0.00    +0.000 C 
ATOM     18  C   UNL     1      40.189   8.947  18.860  0.00  0.00    +0.000 C 
ATOM     19  C   UNL     1      38.893   8.531  19.391  0.00  0.00    +0.000 C 
ATOM     20  C   UNL     1      38.233   7.403  18.678  0.00  0.00    +0.000 C 
ATOM     21  C   UNL     1      39.176   7.159  17.369  0.00  0.00    +0.000 C 
ENDBRANCH  12  21
ENDBRANCH  10  13
BRANCH  10  22
ATOM     22  C   UNL     1      36.129   4.145  14.829  0.00  0.00    +0.000 C 
ATOM     23  N   UNL     1      35.090   4.082  14.304  0.00  0.00    +0.000 NA
ENDBRANCH  10  22
ENDBRANCH   1  11
BRANCH   3  24
ATOM     24  C   UNL     1      37.525  -1.252  13.353  0.00  0.00    +0.000 C 
BRANCH  24  25
ATOM     25  C   UNL     1      38.877  -1.862  13.393  0.00  0.00    +0.000 A 
ATOM     26  C   UNL     1      39.563  -2.127  12.230  0.00  0.00    +0.000 A 
ATOM     27  C   UNL     1      40.822  -2.702  12.331  0.00  0.00    +0.000 A 
ATOM     28  C   UNL     1      41.374  -2.999  13.551  0.00  0.00    +0.000 A 
ATOM     29  C   UNL     1      40.686  -2.734  14.728  0.00  0.00    +0.000 A 
ATOM     30  C   UNL     1      39.452  -2.169  14.594  0.00  0.00    +0.000 A 
ENDBRANCH  24  25
ENDBRANCH   3  24
TORSDOF 6
ENDMDL
MODEL 9
REMARK VINA RESULT:      -7.1      5.449      7.979
REMARK  Name = 
REMARK  6 active torsions:
REMARK  status: ('A' for Active; 'I' for Inactive)
REMARK    1  A    between atoms: C_7  and  N_8
REMARK    2  A    between atoms: C_9  and  C_11
REMARK    3  A    between atoms: C_11  and  C_12
REMARK    4  A    between atoms: C_14  and  C_15
REMARK    5  A    between atoms: N_17  and  C_18
REMARK    6  A    between atoms: C_18  and  C_19
REMARK                            x       y       z     vdW  Elec       q    Type
REMARK                         _______ _______ _______ _____ _____    ______ ____
ROOT
ATOM      1  C   UNL     1      36.391   0.950  13.953  0.00  0.00    +0.000 A 
ATOM      2  C   UNL     1      37.022  -0.151  13.362  0.00  0.00    +0.000 A 
ATOM      3  N   UNL     1      36.924  -1.186  14.207  0.00  0.00    +0.000 N 
ATOM      4  C   UNL     1      36.259  -0.818  15.327  0.00  0.00    +0.000 A 
ATOM      5  C   UNL     1      35.903  -1.479  16.482  0.00  0.00    +0.000 A 
ATOM      6  C   UNL     1      35.220  -0.787  17.458  0.00  0.00    +0.000 A 
ATOM      7  C   UNL     1      34.876   0.542  17.328  0.00  0.00    +0.000 A 
ATOM      8  C   UNL     1      35.237   1.173  16.179  0.00  0.00    +0.000 A 
ATOM      9  C   UNL     1      35.919   0.528  15.178  0.00  0.00    +0.000 A 
ENDROOT
BRANCH   1  11
ATOM     10  C   UNL     1      37.075   3.288  13.657  0.00  0.00    +0.000 C 
ATOM     11  C   UNL     1      36.291   2.282  13.379  0.00  0.00    +0.000 C 
BRANCH  10  13
ATOM     12  N   UNL     1      36.092   5.533  13.563  0.00  0.00    +0.000 NA
ATOM     13  C   UNL     1      36.975   4.618  13.077  0.00  0.00    +0.000 C 
ATOM     14  O   UNL     1      37.700   4.972  12.106  0.00  0.00    +0.000 OA
BRANCH  12  21
ATOM     15  C   UNL     1      33.591   7.144  13.911  0.00  0.00    +0.000 C 
ATOM     16  C   UNL     1      35.098   7.569  14.275  0.00  0.00    +0.000 C 
ATOM     17  C   UNL     1      34.965   9.083  13.727  0.00  0.00    +0.000 C 
ATOM     18  C   UNL     1      34.859   9.160  12.296  0.00  0.00    +0.000 C 
ATOM     19  C   UNL     1      34.286   8.061  11.522  0.00  0.00    +0.000 C 
ATOM     20  C   UNL     1      34.768   6.698  11.877  0.00  0.00    +0.000 C 
ATOM     21  C   UNL     1      35.977   6.973  12.938  0.00  0.00    +0.000 C 
ENDBRANCH  12  21
ENDBRANCH  10  13
BRANCH  10  22
ATOM     22  C   UNL     1      38.118   3.105  14.649  0.00  0.00    +0.000 C 
ATOM     23  N   UNL     1      38.951   2.985  15.457  0.00  0.00    +0.000 NA
ENDBRANCH  10  22
ENDBRANCH   1  11
BRANCH   3  24
ATOM     24  C   UNL     1      37.414  -2.522  14.023  0.00  0.00    +0.000 C 
BRANCH  24  25
ATOM     25  C   UNL     1      38.889  -2.554  13.870  0.00  0.00    +0.000 A 
ATOM     26  C   UNL     1      39.713  -2.367  14.956  0.00  0.00    +0.000 A 
ATOM     27  C   UNL     1      41.085  -2.404  14.751  0.00  0.00    +0.000 A 
ATOM     28  C   UNL     1      41.612  -2.621  13.503  0.00  0.00    +0.000 A 
ATOM     29  C   UNL     1      40.786  -2.811  12.403  0.00  0.00    +0.000 A 
ATOM     30  C   UNL     1      39.444  -2.768  12.639  0.00  0.00    +0.000 A 
ENDBRANCH  24  25
ENDBRANCH   3  24
TORSDOF 6
ENDMDL
MODEL 10
REMARK VINA RESULT:      -7.1      5.208     10.240
REMARK  Name = 
REMARK  6 active torsions:
REMARK  status: ('A' for Active; 'I' for Inactive)
REMARK    1  A    between atoms: C_7  and  N_8
REMARK    2  A    between atoms: C_9  and  C_11
REMARK    3  A    between atoms: C_11  and  C_12
REMARK    4  A    between atoms: C_14  and  C_15
REMARK    5  A    between atoms: N_17  and  C_18
REMARK    6  A    between atoms: C_18  and  C_19
REMARK                            x       y       z     vdW  Elec       q    Type
REMARK                         _______ _______ _______ _____ _____    ______ ____
ROOT
ATOM      1  C   UNL     1      36.358   5.864  14.013  0.00  0.00    +0.000 A 
ATOM      2  C   UNL     1      37.631   6.229  14.468  0.00  0.00    +0.000 A 
ATOM      3  N   UNL     1      38.011   5.338  15.394  0.00  0.00    +0.000 N 
ATOM      4  C   UNL     1      37.048   4.404  15.571  0.00  0.00    +0.000 A 
ATOM      5  C   UNL     1      36.931   3.301  16.388  0.00  0.00    +0.000 A 
ATOM      6  C   UNL     1      35.780   2.548  16.325  0.00  0.00    +0.000 A 
ATOM      7  C   UNL     1      34.735   2.851  15.477  0.00  0.00    +0.000 A 
ATOM      8  C   UNL     1      34.873   3.944  14.680  0.00  0.00    +0.000 A 
ATOM      9  C   UNL     1      36.000   4.726  14.705  0.00  0.00    +0.000 A 
ENDROOT
BRANCH   1  11
ATOM     10  C   UNL     1      35.540   6.312  11.744  0.00  0.00    +0.000 C 
ATOM     11  C   UNL     1      35.572   6.579  13.021  0.00  0.00    +0.000 C 
BRANCH  10  13
ATOM     12  N   UNL     1      34.981   6.872   9.422  0.00  0.00    +0.000 NA
ATOM     13  C   UNL     1      34.748   7.026  10.754  0.00  0.00    +0.000 C 
ATOM     14  O   UNL     1      33.819   7.811  11.092  0.00  0.00    +0.000 OA
BRANCH  12  21
ATOM     15  C   UNL     1      34.999   5.996   6.557  0.00  0.00    +0.000 C 
ATOM     16  C   UNL     1      33.727   6.207   7.518  0.00  0.00    +0.000 C 
ATOM     17  C   UNL     1      32.804   6.913   6.396  0.00  0.00    +0.000 C 
ATOM     18  C   UNL     1      33.259   8.228   6.034  0.00  0.00    +0.000 C 
ATOM     19  C   UNL     1      34.669   8.594   6.142  0.00  0.00    +0.000 C 
ATOM     20  C   UNL     1      35.345   8.204   7.410  0.00  0.00    +0.000 C 
ATOM     21  C   UNL     1      34.131   7.644   8.346  0.00  0.00    +0.000 C 
ENDBRANCH  12  21
ENDBRANCH  10  13
BRANCH  10  22
ATOM     22  C   UNL     1      36.380   5.244  11.233  0.00  0.00    +0.000 C 
ATOM     23  N   UNL     1      37.072   4.389  10.847  0.00  0.00    +0.000 NA
ENDBRANCH  10  22
ENDBRANCH   1  11
BRANCH   3  24
ATOM     24  C   UNL     1      39.243   5.302  16.126  0.00  0.00    +0.000 C 
BRANCH  24  25
ATOM     25  C   UNL     1      39.147   6.042  17.408  0.00  0.00    +0.000 A 
ATOM     26  C   UNL     1      39.913   5.675  18.491  0.00  0.00    +0.000 A 
ATOM     27  C   UNL     1      39.777   6.402  19.665  0.00  0.00    +0.000 A 
ATOM     28  C   UNL     1      38.906   7.458  19.751  0.00  0.00    +0.000 A 
ATOM     29  C   UNL     1      38.130   7.834  18.662  0.00  0.00    +0.000 A 
ATOM     30  C   UNL     1      38.289   7.099  17.524  0.00  0.00    +0.000 A 
ENDBRANCH  24  25
ENDBRANCH   3  24
TORSDOF 6
ENDMDL
