MODEL 1
REMARK VINA RESULT:      -7.7      0.000      0.000
REMARK  Name = 
REMARK  4 active torsions:
REMARK  status: ('A' for Active; 'I' for Inactive)
REMARK    1  A    between atoms: C_2  and  C_3
REMARK    2  A    between atoms: C_3  and  N_4
REMARK    3  A    between atoms: C_8  and  C_9
REMARK    4  A    between atoms: C_11  and  C_12
REMARK                            x       y       z     vdW  Elec       q    Type
REMARK                         _______ _______ _______ _____ _____    ______ ____
ROOT
ATOM      1  N   UNL     1      33.817  -2.740  34.230  0.00  0.00    +0.000 NA
ATOM      2  C   UNL     1      32.484  -3.124  34.275  0.00  0.00    +0.000 C 
ATOM      3  C   UNL     1      32.307  -3.791  35.589  0.00  0.00    +0.000 C 
ATOM      4  C   UNL     1      33.639  -4.009  36.164  0.00  0.00    +0.000 C 
ATOM      5  C   UNL     1      34.642  -3.884  34.887  0.00  0.00    +0.000 C 
ENDROOT
BRANCH   5   6
ATOM      6  C   UNL     1      34.052  -5.073  34.032  0.00  0.00    +0.000 A 
ATOM      7  N   UNL     1      34.160  -4.962  32.702  0.00  0.00    +0.000 NA
ATOM      8  C   UNL     1      33.604  -6.063  32.157  0.00  0.00    +0.000 A 
ATOM      9  N   UNL     1      33.190  -6.778  33.217  0.00  0.00    +0.000 NA
ATOM     10  O   UNL     1      33.484  -6.139  34.302  0.00  0.00    +0.000 OA
BRANCH   8  11
ATOM     11  C   UNL     1      33.445  -6.461  30.793  0.00  0.00    +0.000 A 
ATOM     12  C   UNL     1      33.837  -5.631  29.777  0.00  0.00    +0.000 A 
ATOM     13  C   UNL     1      33.685  -6.003  28.458  0.00  0.00    +0.000 A 
ATOM     14  N   UNL     1      33.141  -7.200  28.176  0.00  0.00    +0.000 NA
ATOM     15  C   UNL     1      32.743  -8.046  29.121  0.00  0.00    +0.000 A 
ATOM     16  C   UNL     1      32.898  -7.666  30.460  0.00  0.00    +0.000 A 
ENDBRANCH   8  11
ENDBRANCH   5   6
BRANCH   1  17
ATOM     17  C   UNL     1      34.115  -1.642  35.104  0.00  0.00    +0.000 C 
BRANCH  17  19
ATOM     18  O   UNL     1      34.036  -0.209  33.216  0.00  0.00    +0.000 OA
ATOM     19  C   UNL     1      33.999  -0.327  34.492  0.00  0.00    +0.000 C 
ATOM     20  N   UNL     1      33.847   0.816  35.301  0.00  0.00    +0.000 N 
ATOM     21  C   UNL     1      33.791   0.839  36.745  0.00  0.00    +0.000 C 
ATOM     22  C   UNL     1      34.197   2.263  37.131  0.00  0.00    +0.000 C 
ATOM     23  C   UNL     1      33.927   3.013  35.890  0.00  0.00    +0.000 A 
ATOM     24  C   UNL     1      33.854   4.360  35.653  0.00  0.00    +0.000 A 
ATOM     25  C   UNL     1      33.581   4.832  34.368  0.00  0.00    +0.000 A 
ATOM     26  C   UNL     1      33.383   3.967  33.328  0.00  0.00    +0.000 A 
ATOM     27  C   UNL     1      33.452   2.627  33.550  0.00  0.00    +0.000 A 
ATOM     28  C   UNL     1      33.726   2.153  34.839  0.00  0.00    +0.000 A 
ENDBRANCH  17  19
ENDBRANCH   1  17
TORSDOF 4
ENDMDL
MODEL 2
REMARK VINA RESULT:      -7.3     27.075     30.192
REMARK  Name = 
REMARK  4 active torsions:
REMARK  status: ('A' for Active; 'I' for Inactive)
REMARK    1  A    between atoms: C_2  and  C_3
REMARK    2  A    between atoms: C_3  and  N_4
REMARK    3  A    between atoms: C_8  and  C_9
REMARK    4  A    between atoms: C_11  and  C_12
REMARK                            x       y       z     vdW  Elec       q    Type
REMARK                         _______ _______ _______ _____ _____    ______ ____
ROOT
ATOM      1  N   UNL     1      27.579  23.355  23.799  0.00  0.00    +0.000 NA
ATOM      2  C   UNL     1      28.454  24.333  24.251  0.00  0.00    +0.000 C 
ATOM      3  C   UNL     1      27.710  25.612  24.145  0.00  0.00    +0.000 C 
ATOM      4  C   UNL     1      26.491  25.358  23.368  0.00  0.00    +0.000 C 
ATOM      5  C   UNL     1      26.804  23.961  22.594  0.00  0.00    +0.000 C 
ENDROOT
BRANCH   5   6
ATOM      6  C   UNL     1      28.061  24.447  21.771  0.00  0.00    +0.000 A 
ATOM      7  N   UNL     1      28.029  25.707  21.322  0.00  0.00    +0.000 NA
ATOM      8  C   UNL     1      29.179  25.928  20.652  0.00  0.00    +0.000 A 
ATOM      9  N   UNL     1      29.839  24.762  20.744  0.00  0.00    +0.000 NA
ATOM     10  O   UNL     1      29.125  23.921  21.420  0.00  0.00    +0.000 OA
BRANCH   8  11
ATOM     11  C   UNL     1      29.665  27.089  19.973  0.00  0.00    +0.000 A 
ATOM     12  C   UNL     1      30.335  26.969  18.785  0.00  0.00    +0.000 A 
ATOM     13  C   UNL     1      30.812  28.080  18.124  0.00  0.00    +0.000 A 
ATOM     14  N   UNL     1      30.609  29.296  18.661  0.00  0.00    +0.000 NA
ATOM     15  C   UNL     1      29.965  29.473  19.810  0.00  0.00    +0.000 A 
ATOM     16  C   UNL     1      29.483  28.342  20.481  0.00  0.00    +0.000 A 
ENDBRANCH   8  11
ENDBRANCH   5   6
BRANCH   1  17
ATOM     17  C   UNL     1      26.508  23.092  24.716  0.00  0.00    +0.000 C 
BRANCH  17  19
ATOM     18  O   UNL     1      27.748  22.070  26.460  0.00  0.00    +0.000 OA
ATOM     19  C   UNL     1      26.913  22.977  26.109  0.00  0.00    +0.000 C 
ATOM     20  N   UNL     1      26.387  23.861  27.072  0.00  0.00    +0.000 N 
ATOM     21  C   UNL     1      25.442  24.925  26.828  0.00  0.00    +0.000 C 
ATOM     22  C   UNL     1      24.778  25.181  28.183  0.00  0.00    +0.000 C 
ATOM     23  C   UNL     1      25.767  24.622  29.125  0.00  0.00    +0.000 A 
ATOM     24  C   UNL     1      25.883  24.749  30.484  0.00  0.00    +0.000 A 
ATOM     25  C   UNL     1      26.923  24.111  31.162  0.00  0.00    +0.000 A 
ATOM     26  C   UNL     1      27.840  23.352  30.488  0.00  0.00    +0.000 A 
ATOM     27  C   UNL     1      27.737  23.219  29.139  0.00  0.00    +0.000 A 
ATOM     28  C   UNL     1      26.693  23.859  28.459  0.00  0.00    +0.000 A 
ENDBRANCH  17  19
ENDBRANCH   1  17
TORSDOF 4
ENDMDL
MODEL 3
REMARK VINA RESULT:      -7.3     16.818     19.654
REMARK  Name = 
REMARK  4 active torsions:
REMARK  status: ('A' for Active; 'I' for Inactive)
REMARK    1  A    between atoms: C_2  and  C_3
REMARK    2  A    between atoms: C_3  and  N_4
REMARK    3  A    between atoms: C_8  and  C_9
REMARK    4  A    between atoms: C_11  and  C_12
REMARK                            x       y       z     vdW  Elec       q    Type
REMARK                         _______ _______ _______ _____ _____    ______ ____
ROOT
ATOM      1  N   UNL     1      19.035   8.668  39.743  0.00  0.00    +0.000 NA
ATOM      2  C   UNL     1      17.858   7.951  39.908  0.00  0.00    +0.000 C 
ATOM      3  C   UNL     1      17.173   8.571  41.068  0.00  0.00    +0.000 C 
ATOM      4  C   UNL     1      18.124   9.480  41.717  0.00  0.00    +0.000 C 
ATOM      5  C   UNL     1      19.575   8.986  41.168  0.00  0.00    +0.000 C 
ENDROOT
BRANCH   5   6
ATOM      6  C   UNL     1      19.529   7.511  41.733  0.00  0.00    +0.000 A 
ATOM      7  N   UNL     1      20.195   6.584  41.033  0.00  0.00    +0.000 NA
ATOM      8  C   UNL     1      20.036   5.406  41.670  0.00  0.00    +0.000 A 
ATOM      9  N   UNL     1      19.270   5.709  42.731  0.00  0.00    +0.000 NA
ATOM     10  O   UNL     1      19.001   6.974  42.714  0.00  0.00    +0.000 OA
BRANCH   8  11
ATOM     11  C   UNL     1      20.524   4.097  41.364  0.00  0.00    +0.000 A 
ATOM     12  C   UNL     1      21.738   3.680  41.840  0.00  0.00    +0.000 A 
ATOM     13  C   UNL     1      22.220   2.422  41.548  0.00  0.00    +0.000 A 
ATOM     14  N   UNL     1      21.480   1.600  40.783  0.00  0.00    +0.000 NA
ATOM     15  C   UNL     1      20.295   1.952  40.294  0.00  0.00    +0.000 A 
ATOM     16  C   UNL     1      19.807   3.230  40.591  0.00  0.00    +0.000 A 
ENDBRANCH   8  11
ENDBRANCH   5   6
BRANCH   1  17
ATOM     17  C   UNL     1      18.820   9.989  39.225  0.00  0.00    +0.000 C 
BRANCH  17  19
ATOM     18  O   UNL     1      19.608   9.748  37.002  0.00  0.00    +0.000 OA
ATOM     19  C   UNL     1      18.639  10.056  37.783  0.00  0.00    +0.000 C 
ATOM     20  N   UNL     1      17.401  10.458  37.245  0.00  0.00    +0.000 N 
ATOM     21  C   UNL     1      16.226  10.834  37.996  0.00  0.00    +0.000 C 
ATOM     22  C   UNL     1      15.407  11.700  37.037  0.00  0.00    +0.000 C 
ATOM     23  C   UNL     1      15.931  11.290  35.720  0.00  0.00    +0.000 A 
ATOM     24  C   UNL     1      15.455  11.514  34.456  0.00  0.00    +0.000 A 
ATOM     25  C   UNL     1      16.144  11.015  33.349  0.00  0.00    +0.000 A 
ATOM     26  C   UNL     1      17.298  10.298  33.503  0.00  0.00    +0.000 A 
ATOM     27  C   UNL     1      17.781  10.068  34.753  0.00  0.00    +0.000 A 
ATOM     28  C   UNL     1      17.090  10.569  35.864  0.00  0.00    +0.000 A 
ENDBRANCH  17  19
ENDBRANCH   1  17
TORSDOF 4
ENDMDL
MODEL 4
REMARK VINA RESULT:      -7.1     26.159     30.631
REMARK  Name = 
REMARK  4 active torsions:
REMARK  status: ('A' for Active; 'I' for Inactive)
REMARK    1  A    between atoms: C_2  and  C_3
REMARK    2  A    between atoms: C_3  and  N_4
REMARK    3  A    between atoms: C_8  and  C_9
REMARK    4  A    between atoms: C_11  and  C_12
REMARK                            x       y       z     vdW  Elec       q    Type
REMARK                         _______ _______ _______ _____ _____    ______ ____
ROOT
ATOM      1  N   UNL     1      28.505  24.642  22.963  0.00  0.00    +0.000 NA
ATOM      2  C   UNL     1      28.102  23.347  23.259  0.00  0.00    +0.000 C 
ATOM      3  C   UNL     1      26.666  23.450  23.616  0.00  0.00    +0.000 C 
ATOM      4  C   UNL     1      26.344  24.874  23.773  0.00  0.00    +0.000 C 
ATOM      5  C   UNL     1      27.795  25.582  23.979  0.00  0.00    +0.000 C 
ENDROOT
BRANCH   5   6
ATOM      6  C   UNL     1      28.225  24.819  25.293  0.00  0.00    +0.000 A 
ATOM      7  N   UNL     1      27.280  24.663  26.228  0.00  0.00    +0.000 NA
ATOM      8  C   UNL     1      27.836  23.996  27.260  0.00  0.00    +0.000 A 
ATOM      9  N   UNL     1      29.106  23.791  26.868  0.00  0.00    +0.000 NA
ATOM     10  O   UNL     1      29.276  24.303  25.693  0.00  0.00    +0.000 OA
BRANCH   8  11
ATOM     11  C   UNL     1      27.289  23.568  28.509  0.00  0.00    +0.000 A 
ATOM     12  C   UNL     1      26.624  24.452  29.315  0.00  0.00    +0.000 A 
ATOM     13  C   UNL     1      26.095  24.051  30.524  0.00  0.00    +0.000 A 
ATOM     14  N   UNL     1      26.242  22.770  30.907  0.00  0.00    +0.000 NA
ATOM     15  C   UNL     1      26.877  21.869  30.166  0.00  0.00    +0.000 A 
ATOM     16  C   UNL     1      27.414  22.278  28.938  0.00  0.00    +0.000 A 
ENDBRANCH   8  11
ENDBRANCH   5   6
BRANCH   1  17
ATOM     17  C   UNL     1      27.978  25.124  21.719  0.00  0.00    +0.000 C 
BRANCH  17  19
ATOM     18  O   UNL     1      29.818  24.924  20.237  0.00  0.00    +0.000 OA
ATOM     19  C   UNL     1      28.968  25.689  20.815  0.00  0.00    +0.000 C 
ATOM     20  N   UNL     1      28.992  27.077  20.575  0.00  0.00    +0.000 N 
ATOM     21  C   UNL     1      28.105  28.060  21.153  0.00  0.00    +0.000 C 
ATOM     22  C   UNL     1      28.867  29.383  21.057  0.00  0.00    +0.000 C 
ATOM     23  C   UNL     1      29.844  29.105  19.988  0.00  0.00    +0.000 A 
ATOM     24  C   UNL     1      30.651  29.945  19.268  0.00  0.00    +0.000 A 
ATOM     25  C   UNL     1      31.507  29.431  18.293  0.00  0.00    +0.000 A 
ATOM     26  C   UNL     1      31.556  28.089  18.037  0.00  0.00    +0.000 A 
ATOM     27  C   UNL     1      30.760  27.243  18.744  0.00  0.00    +0.000 A 
ATOM     28  C   UNL     1      29.901  27.759  19.723  0.00  0.00    +0.000 A 
ENDBRANCH  17  19
ENDBRANCH   1  17
TORSDOF 4
ENDMDL
MODEL 5
REMARK VINA RESULT:      -7.1     16.894     19.487
REMARK  Name = 
REMARK  4 active torsions:
REMARK  status: ('A' for Active; 'I' for Inactive)
REMARK    1  A    between atoms: C_2  and  C_3
REMARK    2  A    between atoms: C_3  and  N_4
REMARK    3  A    between atoms: C_8  and  C_9
REMARK    4  A    between atoms: C_11  and  C_12
REMARK                            x       y       z     vdW  Elec       q    Type
REMARK                         _______ _______ _______ _____ _____    ______ ____
ROOT
ATOM      1  N   UNL     1      17.827   7.766  40.484  0.00  0.00    +0.000 NA
ATOM      2  C   UNL     1      17.473   6.939  41.541  0.00  0.00    +0.000 C 
ATOM      3  C   UNL     1      18.491   7.181  42.593  0.00  0.00    +0.000 C 
ATOM      4  C   UNL     1      19.578   7.964  41.994  0.00  0.00    +0.000 C 
ATOM      5  C   UNL     1      19.380   7.746  40.393  0.00  0.00    +0.000 C 
ENDROOT
BRANCH   5   6
ATOM      6  C   UNL     1      19.559   6.176  40.365  0.00  0.00    +0.000 A 
ATOM      7  N   UNL     1      20.784   5.711  40.635  0.00  0.00    +0.000 NA
ATOM      8  C   UNL     1      20.732   4.365  40.562  0.00  0.00    +0.000 A 
ATOM      9  N   UNL     1      19.452   4.106  40.246  0.00  0.00    +0.000 NA
ATOM     10  O   UNL     1      18.805   5.221  40.142  0.00  0.00    +0.000 OA
BRANCH   8  11
ATOM     11  C   UNL     1      21.741   3.372  40.755  0.00  0.00    +0.000 A 
ATOM     12  C   UNL     1      23.067   3.706  40.686  0.00  0.00    +0.000 A 
ATOM     13  C   UNL     1      24.049   2.755  40.867  0.00  0.00    +0.000 A 
ATOM     14  N   UNL     1      23.689   1.484  41.113  0.00  0.00    +0.000 NA
ATOM     15  C   UNL     1      22.418   1.102  41.191  0.00  0.00    +0.000 A 
ATOM     16  C   UNL     1      21.422   2.069  41.007  0.00  0.00    +0.000 A 
ENDBRANCH   8  11
ENDBRANCH   5   6
BRANCH   1  17
ATOM     17  C   UNL     1      17.581   9.154  40.750  0.00  0.00    +0.000 C 
BRANCH  17  19
ATOM     18  O   UNL     1      15.316   9.757  40.390  0.00  0.00    +0.000 OA
ATOM     19  C   UNL     1      16.520   9.749  39.951  0.00  0.00    +0.000 C 
ATOM     20  N   UNL     1      16.816  10.316  38.696  0.00  0.00    +0.000 N 
ATOM     21  C   UNL     1      18.118  10.379  38.073  0.00  0.00    +0.000 C 
ATOM     22  C   UNL     1      17.831  10.532  36.578  0.00  0.00    +0.000 C 
ATOM     23  C   UNL     1      16.454  11.059  36.575  0.00  0.00    +0.000 A 
ATOM     24  C   UNL     1      15.711  11.627  35.574  0.00  0.00    +0.000 A 
ATOM     25  C   UNL     1      14.406  12.054  35.824  0.00  0.00    +0.000 A 
ATOM     26  C   UNL     1      13.846  11.915  37.064  0.00  0.00    +0.000 A 
ATOM     27  C   UNL     1      14.572  11.353  38.067  0.00  0.00    +0.000 A 
ATOM     28  C   UNL     1      15.882  10.925  37.817  0.00  0.00    +0.000 A 
ENDBRANCH  17  19
ENDBRANCH   1  17
TORSDOF 4
ENDMDL
MODEL 6
REMARK VINA RESULT:      -7.0     16.081     19.591
REMARK  Name = 
REMARK  4 active torsions:
REMARK  status: ('A' for Active; 'I' for Inactive)
REMARK    1  A    between atoms: C_2  and  C_3
REMARK    2  A    between atoms: C_3  and  N_4
REMARK    3  A    between atoms: C_8  and  C_9
REMARK    4  A    between atoms: C_11  and  C_12
REMARK                            x       y       z     vdW  Elec       q    Type
REMARK                         _______ _______ _______ _____ _____    ______ ____
ROOT
ATOM      1  N   UNL     1      18.509  -7.932  25.606  0.00  0.00    +0.000 NA
ATOM      2  C   UNL     1      17.747  -6.846  26.012  0.00  0.00    +0.000 C 
ATOM      3  C   UNL     1      17.236  -7.200  27.359  0.00  0.00    +0.000 C 
ATOM      4  C   UNL     1      17.512  -8.624  27.583  0.00  0.00    +0.000 C 
ATOM      5  C   UNL     1      17.768  -9.213  26.086  0.00  0.00    +0.000 C 
ENDROOT
BRANCH   5   6
ATOM      6  C   UNL     1      16.353  -8.867  25.473  0.00  0.00    +0.000 A 
ATOM      7  N   UNL     1      15.286  -9.224  26.198  0.00  0.00    +0.000 NA
ATOM      8  C   UNL     1      14.187  -8.847  25.513  0.00  0.00    +0.000 A 
ATOM      9  N   UNL     1      14.677  -8.277  24.398  0.00  0.00    +0.000 NA
ATOM     10  O   UNL     1      15.969  -8.320  24.432  0.00  0.00    +0.000 OA
BRANCH   8  11
ATOM     11  C   UNL     1      12.797  -8.981  25.816  0.00  0.00    +0.000 A 
ATOM     12  C   UNL     1      12.379  -9.119  27.113  0.00  0.00    +0.000 A 
ATOM     13  C   UNL     1      11.041  -9.252  27.417  0.00  0.00    +0.000 A 
ATOM     14  N   UNL     1      10.141  -9.246  26.418  0.00  0.00    +0.000 NA
ATOM     15  C   UNL     1      10.489  -9.115  25.142  0.00  0.00    +0.000 A 
ATOM     16  C   UNL     1      11.848  -8.980  24.835  0.00  0.00    +0.000 A 
ENDBRANCH   8  11
ENDBRANCH   5   6
BRANCH   1  17
ATOM     17  C   UNL     1      19.750  -8.044  26.316  0.00  0.00    +0.000 C 
BRANCH  17  19
ATOM     18  O   UNL     1      20.913  -6.313  25.187  0.00  0.00    +0.000 OA
ATOM     19  C   UNL     1      20.909  -7.525  25.606  0.00  0.00    +0.000 C 
ATOM     20  N   UNL     1      22.026  -8.352  25.379  0.00  0.00    +0.000 N 
ATOM     21  C   UNL     1      22.165  -9.730  25.788  0.00  0.00    +0.000 C 
ATOM     22  C   UNL     1      23.223 -10.315  24.849  0.00  0.00    +0.000 C 
ATOM     23  C   UNL     1      23.929  -9.106  24.382  0.00  0.00    +0.000 A 
ATOM     24  C   UNL     1      25.117  -8.960  23.718  0.00  0.00    +0.000 A 
ATOM     25  C   UNL     1      25.581  -7.688  23.379  0.00  0.00    +0.000 A 
ATOM     26  C   UNL     1      24.863  -6.570  23.701  0.00  0.00    +0.000 A 
ATOM     27  C   UNL     1      23.681  -6.700  24.361  0.00  0.00    +0.000 A 
ATOM     28  C   UNL     1      23.216  -7.976  24.701  0.00  0.00    +0.000 A 
ENDBRANCH  17  19
ENDBRANCH   1  17
TORSDOF 4
ENDMDL
MODEL 7
REMARK VINA RESULT:      -7.0     25.483     30.030
REMARK  Name = 
REMARK  4 active torsions:
REMARK  status: ('A' for Active; 'I' for Inactive)
REMARK    1  A    between atoms: C_2  and  C_3
REMARK    2  A    between atoms: C_3  and  N_4
REMARK    3  A    between atoms: C_8  and  C_9
REMARK    4  A    between atoms: C_11  and  C_12
REMARK                            x       y       z     vdW  Elec       q    Type
REMARK                         _______ _______ _______ _____ _____    ______ ____
ROOT
ATOM      1  N   UNL     1      29.138  23.597  23.473  0.00  0.00    +0.000 NA
ATOM      2  C   UNL     1      29.961  24.688  23.713  0.00  0.00    +0.000 C 
ATOM      3  C   UNL     1      29.048  25.809  24.049  0.00  0.00    +0.000 C 
ATOM      4  C   UNL     1      27.681  25.385  23.728  0.00  0.00    +0.000 C 
ATOM      5  C   UNL     1      27.889  24.129  22.712  0.00  0.00    +0.000 C 
ENDROOT
BRANCH   5   6
ATOM      6  C   UNL     1      28.663  24.900  21.571  0.00  0.00    +0.000 A 
ATOM      7  N   UNL     1      28.292  26.168  21.351  0.00  0.00    +0.000 NA
ATOM      8  C   UNL     1      29.061  26.647  20.352  0.00  0.00    +0.000 A 
ATOM      9  N   UNL     1      29.859  25.614  20.030  0.00  0.00    +0.000 NA
ATOM     10  O   UNL     1      29.575  24.605  20.788  0.00  0.00    +0.000 OA
BRANCH   8  11
ATOM     11  C   UNL     1      29.092  27.928  19.719  0.00  0.00    +0.000 A 
ATOM     12  C   UNL     1      30.162  28.297  18.948  0.00  0.00    +0.000 A 
ATOM     13  C   UNL     1      30.203  29.531  18.336  0.00  0.00    +0.000 A 
ATOM     14  N   UNL     1      29.173  30.379  18.505  0.00  0.00    +0.000 NA
ATOM     15  C   UNL     1      28.109  30.074  19.242  0.00  0.00    +0.000 A 
ATOM     16  C   UNL     1      28.069  28.820  19.863  0.00  0.00    +0.000 A 
ENDBRANCH   8  11
ENDBRANCH   5   6
BRANCH   1  17
ATOM     17  C   UNL     1      28.536  23.074  24.665  0.00  0.00    +0.000 C 
BRANCH  17  19
ATOM     18  O   UNL     1      30.481  21.909  25.361  0.00  0.00    +0.000 OA
ATOM     19  C   UNL     1      29.480  22.642  25.685  0.00  0.00    +0.000 C 
ATOM     20  N   UNL     1      29.295  23.027  27.027  0.00  0.00    +0.000 N 
ATOM     21  C   UNL     1      28.219  23.844  27.539  0.00  0.00    +0.000 C 
ATOM     22  C   UNL     1      28.136  23.497  29.027  0.00  0.00    +0.000 C 
ATOM     23  C   UNL     1      29.477  22.942  29.294  0.00  0.00    +0.000 A 
ATOM     24  C   UNL     1      30.118  22.671  30.473  0.00  0.00    +0.000 A 
ATOM     25  C   UNL     1      31.407  22.136  30.464  0.00  0.00    +0.000 A 
ATOM     26  C   UNL     1      32.052  21.875  29.287  0.00  0.00    +0.000 A 
ATOM     27  C   UNL     1      31.427  22.140  28.108  0.00  0.00    +0.000 A 
ATOM     28  C   UNL     1      30.133  22.677  28.117  0.00  0.00    +0.000 A 
ENDBRANCH  17  19
ENDBRANCH   1  17
TORSDOF 4
ENDMDL
MODEL 8
REMARK VINA RESULT:      -6.9     20.366     22.753
REMARK  Name = 
REMARK  4 active torsions:
REMARK  status: ('A' for Active; 'I' for Inactive)
REMARK    1  A    between atoms: C_2  and  C_3
REMARK    2  A    between atoms: C_3  and  N_4
REMARK    3  A    between atoms: C_8  and  C_9
REMARK    4  A    between atoms: C_11  and  C_12
REMARK                            x       y       z     vdW  Elec       q    Type
REMARK                         _______ _______ _______ _____ _____    ______ ____
ROOT
ATOM      1  N   UNL     1      17.332   9.574  40.730  0.00  0.00    +0.000 NA
ATOM      2  C   UNL     1      18.350   9.477  41.669  0.00  0.00    +0.000 C 
ATOM      3  C   UNL     1      18.775   8.056  41.651  0.00  0.00    +0.000 C 
ATOM      4  C   UNL     1      17.786   7.303  40.871  0.00  0.00    +0.000 C 
ATOM      5  C   UNL     1      16.482   8.276  40.848  0.00  0.00    +0.000 C 
ENDROOT
BRANCH   5   6
ATOM      6  C   UNL     1      16.233   8.341  42.407  0.00  0.00    +0.000 A 
ATOM      7  N   UNL     1      15.884   7.194  43.002  0.00  0.00    +0.000 NA
ATOM      8  C   UNL     1      15.719   7.454  44.316  0.00  0.00    +0.000 A 
ATOM      9  N   UNL     1      15.984   8.767  44.424  0.00  0.00    +0.000 NA
ATOM     10  O   UNL     1      16.283   9.238  43.257  0.00  0.00    +0.000 OA
BRANCH   8  11
ATOM     11  C   UNL     1      15.350   6.604  45.405  0.00  0.00    +0.000 A 
ATOM     12  C   UNL     1      14.230   5.820  45.325  0.00  0.00    +0.000 A 
ATOM     13  C   UNL     1      13.863   5.000  46.370  0.00  0.00    +0.000 A 
ATOM     14  N   UNL     1      14.621   4.977  47.480  0.00  0.00    +0.000 NA
ATOM     15  C   UNL     1      15.718   5.716  47.612  0.00  0.00    +0.000 A 
ATOM     16  C   UNL     1      16.090   6.549  46.550  0.00  0.00    +0.000 A 
ENDBRANCH   8  11
ENDBRANCH   5   6
BRANCH   1  17
ATOM     17  C   UNL     1      17.804   9.477  39.379  0.00  0.00    +0.000 C 
BRANCH  17  19
ATOM     18  O   UNL     1      15.929  10.794  38.768  0.00  0.00    +0.000 OA
ATOM     19  C   UNL     1      16.970  10.146  38.393  0.00  0.00    +0.000 C 
ATOM     20  N   UNL     1      17.305  10.083  37.026  0.00  0.00    +0.000 N 
ATOM     21  C   UNL     1      18.440   9.394  36.456  0.00  0.00    +0.000 C 
ATOM     22  C   UNL     1      18.052   9.136  34.999  0.00  0.00    +0.000 C 
ATOM     23  C   UNL     1      17.001  10.147  34.771  0.00  0.00    +0.000 A 
ATOM     24  C   UNL     1      16.422  10.594  33.614  0.00  0.00    +0.000 A 
ATOM     25  C   UNL     1      15.429  11.574  33.660  0.00  0.00    +0.000 A 
ATOM     26  C   UNL     1      15.018  12.103  34.852  0.00  0.00    +0.000 A 
ATOM     27  C   UNL     1      15.585  11.668  36.009  0.00  0.00    +0.000 A 
ATOM     28  C   UNL     1      16.582  10.685  35.963  0.00  0.00    +0.000 A 
ENDBRANCH  17  19
ENDBRANCH   1  17
TORSDOF 4
ENDMDL
MODEL 9
REMARK VINA RESULT:      -6.9     26.143     30.228
REMARK  Name = 
REMARK  4 active torsions:
REMARK  status: ('A' for Active; 'I' for Inactive)
REMARK    1  A    between atoms: C_2  and  C_3
REMARK    2  A    between atoms: C_3  and  N_4
REMARK    3  A    between atoms: C_8  and  C_9
REMARK    4  A    between atoms: C_11  and  C_12
REMARK                            x       y       z     vdW  Elec       q    Type
REMARK                         _______ _______ _______ _____ _____    ______ ____
ROOT
ATOM      1  N   UNL     1      29.573  24.256  22.931  0.00  0.00    +0.000 NA
ATOM      2  C   UNL     1      29.167  25.398  23.608  0.00  0.00    +0.000 C 
ATOM      3  C   UNL     1      27.691  25.292  23.716  0.00  0.00    +0.000 C 
ATOM      4  C   UNL     1      27.256  24.194  22.845  0.00  0.00    +0.000 C 
ATOM      5  C   UNL     1      28.510  23.979  21.829  0.00  0.00    +0.000 C 
ENDROOT
BRANCH   5   6
ATOM      6  C   UNL     1      28.512  25.420  21.181  0.00  0.00    +0.000 A 
ATOM      7  N   UNL     1      29.622  25.774  20.522  0.00  0.00    +0.000 NA
ATOM      8  C   UNL     1      29.430  27.023  20.048  0.00  0.00    +0.000 A 
ATOM      9  N   UNL     1      28.192  27.342  20.463  0.00  0.00    +0.000 NA
ATOM     10  O   UNL     1      27.699  26.350  21.131  0.00  0.00    +0.000 OA
BRANCH   8  11
ATOM     11  C   UNL     1      30.279  27.881  19.282  0.00  0.00    +0.000 A 
ATOM     12  C   UNL     1      31.054  27.371  18.274  0.00  0.00    +0.000 A 
ATOM     13  C   UNL     1      31.880  28.189  17.532  0.00  0.00    +0.000 A 
ATOM     14  N   UNL     1      31.918  29.503  17.810  0.00  0.00    +0.000 NA
ATOM     15  C   UNL     1      31.188  30.053  18.776  0.00  0.00    +0.000 A 
ATOM     16  C   UNL     1      30.350  29.221  19.529  0.00  0.00    +0.000 A 
ENDBRANCH   8  11
ENDBRANCH   5   6
BRANCH   1  17
ATOM     17  C   UNL     1      29.471  23.066  23.724  0.00  0.00    +0.000 C 
BRANCH  17  19
ATOM     18  O   UNL     1      31.634  22.975  24.692  0.00  0.00    +0.000 OA
ATOM     19  C   UNL     1      30.365  23.019  24.871  0.00  0.00    +0.000 C 
ATOM     20  N   UNL     1      29.838  23.021  26.177  0.00  0.00    +0.000 N 
ATOM     21  C   UNL     1      28.439  23.066  26.534  0.00  0.00    +0.000 C 
ATOM     22  C   UNL     1      28.374  22.482  27.946  0.00  0.00    +0.000 C 
ATOM     23  C   UNL     1      29.758  22.662  28.424  0.00  0.00    +0.000 A 
ATOM     24  C   UNL     1      30.294  22.567  29.680  0.00  0.00    +0.000 A 
ATOM     25  C   UNL     1      31.658  22.785  29.879  0.00  0.00    +0.000 A 
ATOM     26  C   UNL     1      32.481  23.096  28.833  0.00  0.00    +0.000 A 
ATOM     27  C   UNL     1      31.962  23.195  27.580  0.00  0.00    +0.000 A 
ATOM     28  C   UNL     1      30.593  22.976  27.379  0.00  0.00    +0.000 A 
ENDBRANCH  17  19
ENDBRANCH   1  17
TORSDOF 4
ENDMDL
MODEL 10
REMARK VINA RESULT:      -6.8     26.636     30.297
REMARK  Name = 
REMARK  4 active torsions:
REMARK  status: ('A' for Active; 'I' for Inactive)
REMARK    1  A    between atoms: C_2  and  C_3
REMARK    2  A    between atoms: C_3  and  N_4
REMARK    3  A    between atoms: C_8  and  C_9
REMARK    4  A    between atoms: C_11  and  C_12
REMARK                            x       y       z     vdW  Elec       q    Type
REMARK                         _______ _______ _______ _____ _____    ______ ____
ROOT
ATOM      1  N   UNL     1      26.849  24.228  23.462  0.00  0.00    +0.000 NA
ATOM      2  C   UNL     1      26.898  23.922  22.109  0.00  0.00    +0.000 C 
ATOM      3  C   UNL     1      28.309  23.558  21.834  0.00  0.00    +0.000 C 
ATOM      4  C   UNL     1      29.105  23.930  23.011  0.00  0.00    +0.000 C 
ATOM      5  C   UNL     1      28.160  24.993  23.802  0.00  0.00    +0.000 C 
ENDROOT
BRANCH   5   6
ATOM      6  C   UNL     1      28.058  26.082  22.662  0.00  0.00    +0.000 A 
ATOM      7  N   UNL     1      29.175  26.321  21.964  0.00  0.00    +0.000 NA
ATOM      8  C   UNL     1      28.886  27.269  21.050  0.00  0.00    +0.000 A 
ATOM      9  N   UNL     1      27.588  27.543  21.263  0.00  0.00    +0.000 NA
ATOM     10  O   UNL     1      27.151  26.807  22.233  0.00  0.00    +0.000 OA
BRANCH   8  11
ATOM     11  C   UNL     1      29.698  27.896  20.054  0.00  0.00    +0.000 A 
ATOM     12  C   UNL     1      30.255  27.156  19.045  0.00  0.00    +0.000 A 
ATOM     13  C   UNL     1      31.043  27.750  18.083  0.00  0.00    +0.000 A 
ATOM     14  N   UNL     1      31.263  29.074  18.144  0.00  0.00    +0.000 NA
ATOM     15  C   UNL     1      30.748  29.842  19.099  0.00  0.00    +0.000 A 
ATOM     16  C   UNL     1      29.948  29.237  20.077  0.00  0.00    +0.000 A 
ENDBRANCH   8  11
ENDBRANCH   5   6
BRANCH   1  17
ATOM     17  C   UNL     1      26.973  23.073  24.304  0.00  0.00    +0.000 C 
BRANCH  17  19
ATOM     18  O   UNL     1      25.545  23.850  26.031  0.00  0.00    +0.000 OA
ATOM     19  C   UNL     1      26.659  23.304  25.706  0.00  0.00    +0.000 C 
ATOM     20  N   UNL     1      27.577  22.928  26.706  0.00  0.00    +0.000 N 
ATOM     21  C   UNL     1      28.864  22.308  26.494  0.00  0.00    +0.000 C 
ATOM     22  C   UNL     1      29.669  22.630  27.754  0.00  0.00    +0.000 C 
ATOM     23  C   UNL     1      28.608  22.927  28.735  0.00  0.00    +0.000 A 
ATOM     24  C   UNL     1      28.654  23.051  30.098  0.00  0.00    +0.000 A 
ATOM     25  C   UNL     1      27.493  23.343  30.816  0.00  0.00    +0.000 A 
ATOM     26  C   UNL     1      26.295  23.510  30.178  0.00  0.00    +0.000 A 
ATOM     27  C   UNL     1      26.235  23.389  28.825  0.00  0.00    +0.000 A 
ATOM     28  C   UNL     1      27.400  23.096  28.105  0.00  0.00    +0.000 A 
ENDBRANCH  17  19
ENDBRANCH   1  17
TORSDOF 4
ENDMDL
