MODEL 1
REMARK VINA RESULT:      -6.0      0.000      0.000
REMARK  Name = 
REMARK  4 active torsions:
REMARK  status: ('A' for Active; 'I' for Inactive)
REMARK    1  A    between atoms: C_2  and  O_3
REMARK    2  A    between atoms: O_3  and  C_4
REMARK    3  A    between atoms: C_4  and  C_6
REMARK    4  A    between atoms: C_9  and  C_10
REMARK                            x       y       z     vdW  Elec       q    Type
REMARK                         _______ _______ _______ _____ _____    ______ ____
ROOT
ATOM      1  C   UNL     1      28.070  24.882  22.190  0.00  0.00    +0.000 C 
ATOM      2  C   UNL     1      28.395  25.018  23.418  0.00  0.00    +0.000 C 
ATOM      3  C   UNL     1      29.678  25.711  23.771  0.00  0.00    +0.000 C 
ATOM      4  C   UNL     1      27.453  24.682  24.600  0.00  0.00    +0.000 C 
ATOM      5  N   UNL     1      26.633  23.516  24.148  0.00  0.00    +0.000 NA
ATOM      6  C   UNL     1      26.261  23.401  22.812  0.00  0.00    +0.000 C 
ATOM      7  O   UNL     1      25.275  22.698  22.406  0.00  0.00    +0.000 OA
ATOM      8  N   UNL     1      26.968  24.073  21.783  0.00  0.00    +0.000 NA
ENDROOT
BRANCH   4   9
ATOM      9  C   UNL     1      28.504  23.937  25.572  0.00  0.00    +0.000 A 
ATOM     10  C   UNL     1      29.134  22.854  24.969  0.00  0.00    +0.000 A 
ATOM     11  C   UNL     1      30.044  22.169  25.736  0.00  0.00    +0.000 A 
ATOM     12  C   UNL     1      30.310  22.549  27.040  0.00  0.00    +0.000 A 
ATOM     13  C   UNL     1      29.644  23.634  27.570  0.00  0.00    +0.000 A 
ATOM     14  C   UNL     1      28.706  24.362  26.818  0.00  0.00    +0.000 A 
ATOM     15 CL   UNL     1      27.881  25.733  27.523  0.00  0.00    +0.000 Cl
ENDBRANCH   4   9
BRANCH   1  16
ATOM     16  C   UNL     1      28.961  25.431  21.128  0.00  0.00    +0.000 C 
ATOM     17  O   UNL     1      29.742  24.647  20.562  0.00  0.00    +0.000 OA
BRANCH  16  18
ATOM     18  O   UNL     1      28.920  26.766  20.785  0.00  0.00    +0.000 OA
BRANCH  18  20
ATOM     19  C   UNL     1      27.878  28.587  21.884  0.00  0.00    +0.000 C 
ATOM     20  C   UNL     1      27.714  27.521  20.803  0.00  0.00    +0.000 C 
ENDBRANCH  18  20
ENDBRANCH  16  18
ENDBRANCH   1  16
TORSDOF 4
ENDMDL
MODEL 2
REMARK VINA RESULT:      -5.7     32.153     34.006
REMARK  Name = 
REMARK  4 active torsions:
REMARK  status: ('A' for Active; 'I' for Inactive)
REMARK    1  A    between atoms: C_2  and  O_3
REMARK    2  A    between atoms: O_3  and  C_4
REMARK    3  A    between atoms: C_4  and  C_6
REMARK    4  A    between atoms: C_9  and  C_10
REMARK                            x       y       z     vdW  Elec       q    Type
REMARK                         _______ _______ _______ _____ _____    ______ ____
ROOT
ATOM      1  C   UNL     1      20.296  -7.094  25.782  0.00  0.00    +0.000 C 
ATOM      2  C   UNL     1      19.589  -7.945  26.420  0.00  0.00    +0.000 C 
ATOM      3  C   UNL     1      19.887  -9.408  26.281  0.00  0.00    +0.000 C 
ATOM      4  C   UNL     1      18.545  -7.560  27.498  0.00  0.00    +0.000 C 
ATOM      5  N   UNL     1      17.963  -6.256  27.053  0.00  0.00    +0.000 NA
ATOM      6  C   UNL     1      18.757  -5.328  26.386  0.00  0.00    +0.000 C 
ATOM      7  O   UNL     1      18.489  -4.081  26.317  0.00  0.00    +0.000 OA
ATOM      8  N   UNL     1      19.949  -5.712  25.720  0.00  0.00    +0.000 NA
ENDROOT
BRANCH   4   9
ATOM      9  C   UNL     1      17.353  -8.566  27.083  0.00  0.00    +0.000 A 
ATOM     10  C   UNL     1      16.694  -8.183  25.920  0.00  0.00    +0.000 A 
ATOM     11  C   UNL     1      15.666  -8.992  25.504  0.00  0.00    +0.000 A 
ATOM     12  C   UNL     1      15.315 -10.127  26.215  0.00  0.00    +0.000 A 
ATOM     13  C   UNL     1      16.016 -10.441  27.360  0.00  0.00    +0.000 A 
ATOM     14  C   UNL     1      17.075  -9.640  27.820  0.00  0.00    +0.000 A 
ATOM     15 CL   UNL     1      17.940 -10.069  29.277  0.00  0.00    +0.000 Cl
ENDBRANCH   4   9
BRANCH   1  16
ATOM     16  C   UNL     1      21.420  -7.569  24.923  0.00  0.00    +0.000 C 
ATOM     17  O   UNL     1      21.138  -8.246  23.919  0.00  0.00    +0.000 OA
BRANCH  16  18
ATOM     18  O   UNL     1      22.728  -7.267  25.234  0.00  0.00    +0.000 OA
BRANCH  18  20
ATOM     19  C   UNL     1      24.576  -7.077  23.764  0.00  0.00    +0.000 C 
ATOM     20  C   UNL     1      23.484  -6.307  24.503  0.00  0.00    +0.000 C 
ENDBRANCH  18  20
ENDBRANCH  16  18
ENDBRANCH   1  16
TORSDOF 4
ENDMDL
MODEL 3
REMARK VINA RESULT:      -5.7      1.908      2.223
REMARK  Name = 
REMARK  4 active torsions:
REMARK  status: ('A' for Active; 'I' for Inactive)
REMARK    1  A    between atoms: C_2  and  O_3
REMARK    2  A    between atoms: O_3  and  C_4
REMARK    3  A    between atoms: C_4  and  C_6
REMARK    4  A    between atoms: C_9  and  C_10
REMARK                            x       y       z     vdW  Elec       q    Type
REMARK                         _______ _______ _______ _____ _____    ______ ____
ROOT
ATOM      1  C   UNL     1      27.976  24.581  23.528  0.00  0.00    +0.000 C 
ATOM      2  C   UNL     1      27.677  24.737  24.760  0.00  0.00    +0.000 C 
ATOM      3  C   UNL     1      28.688  25.329  25.697  0.00  0.00    +0.000 C 
ATOM      4  C   UNL     1      26.253  24.532  25.332  0.00  0.00    +0.000 C 
ATOM      5  N   UNL     1      25.648  23.425  24.530  0.00  0.00    +0.000 NA
ATOM      6  C   UNL     1      25.960  23.289  23.180  0.00  0.00    +0.000 C 
ATOM      7  O   UNL     1      25.232  22.659  22.341  0.00  0.00    +0.000 OA
ATOM      8  N   UNL     1      27.137  23.855  22.630  0.00  0.00    +0.000 NA
ENDROOT
BRANCH   4   9
ATOM      9  C   UNL     1      26.624  23.736  26.687  0.00  0.00    +0.000 A 
ATOM     10  C   UNL     1      27.556  22.725  26.489  0.00  0.00    +0.000 A 
ATOM     11  C   UNL     1      27.923  22.003  27.599  0.00  0.00    +0.000 A 
ATOM     12  C   UNL     1      27.383  22.281  28.843  0.00  0.00    +0.000 A 
ATOM     13  C   UNL     1      26.462  23.301  28.960  0.00  0.00    +0.000 A 
ATOM     14  C   UNL     1      26.062  24.062  27.850  0.00  0.00    +0.000 A 
ATOM     15 CL   UNL     1      24.891  25.348  28.036  0.00  0.00    +0.000 Cl
ENDBRANCH   4   9
BRANCH   1  16
ATOM     16  C   UNL     1      29.318  25.008  23.037  0.00  0.00    +0.000 C 
ATOM     17  O   UNL     1      30.197  24.137  22.920  0.00  0.00    +0.000 OA
BRANCH  16  18
ATOM     18  O   UNL     1      29.575  26.326  22.725  0.00  0.00    +0.000 OA
BRANCH  18  20
ATOM     19  C   UNL     1      29.517  26.459  20.361  0.00  0.00    +0.000 C 
ATOM     20  C   UNL     1      28.917  26.998  21.657  0.00  0.00    +0.000 C 
ENDBRANCH  18  20
ENDBRANCH  16  18
ENDBRANCH   1  16
TORSDOF 4
ENDMDL
MODEL 4
REMARK VINA RESULT:      -5.7      5.346      6.803
REMARK  Name = 
REMARK  4 active torsions:
REMARK  status: ('A' for Active; 'I' for Inactive)
REMARK    1  A    between atoms: C_2  and  O_3
REMARK    2  A    between atoms: O_3  and  C_4
REMARK    3  A    between atoms: C_4  and  C_6
REMARK    4  A    between atoms: C_9  and  C_10
REMARK                            x       y       z     vdW  Elec       q    Type
REMARK                         _______ _______ _______ _____ _____    ______ ____
ROOT
ATOM      1  C   UNL     1      26.937  24.423  30.349  0.00  0.00    +0.000 C 
ATOM      2  C   UNL     1      27.978  24.148  29.662  0.00  0.00    +0.000 C 
ATOM      3  C   UNL     1      28.742  25.257  29.000  0.00  0.00    +0.000 C 
ATOM      4  C   UNL     1      28.632  22.745  29.614  0.00  0.00    +0.000 C 
ATOM      5  N   UNL     1      27.506  21.768  29.728  0.00  0.00    +0.000 NA
ATOM      6  C   UNL     1      26.394  22.071  30.507  0.00  0.00    +0.000 C 
ATOM      7  O   UNL     1      25.594  21.193  30.978  0.00  0.00    +0.000 OA
ATOM      8  N   UNL     1      26.063  23.408  30.842  0.00  0.00    +0.000 NA
ENDROOT
BRANCH   4   9
ATOM      9  C   UNL     1      28.939  22.650  28.033  0.00  0.00    +0.000 A 
ATOM     10  C   UNL     1      27.796  22.731  27.247  0.00  0.00    +0.000 A 
ATOM     11  C   UNL     1      27.979  22.658  25.888  0.00  0.00    +0.000 A 
ATOM     12  C   UNL     1      29.242  22.510  25.344  0.00  0.00    +0.000 A 
ATOM     13  C   UNL     1      30.330  22.436  26.188  0.00  0.00    +0.000 A 
ATOM     14  C   UNL     1      30.185  22.507  27.584  0.00  0.00    +0.000 A 
ATOM     15 CL   UNL     1      31.587  22.409  28.624  0.00  0.00    +0.000 Cl
ENDBRANCH   4   9
BRANCH   1  16
ATOM     16  C   UNL     1      26.509  25.844  30.500  0.00  0.00    +0.000 C 
ATOM     17  O   UNL     1      26.787  26.424  31.564  0.00  0.00    +0.000 OA
BRANCH  16  18
ATOM     18  O   UNL     1      25.827  26.492  29.493  0.00  0.00    +0.000 OA
BRANCH  18  20
ATOM     19  C   UNL     1      24.843  25.384  27.645  0.00  0.00    +0.000 C 
ATOM     20  C   UNL     1      24.573  26.031  29.001  0.00  0.00    +0.000 C 
ENDBRANCH  18  20
ENDBRANCH  16  18
ENDBRANCH   1  16
TORSDOF 4
ENDMDL
MODEL 5
REMARK VINA RESULT:      -5.3      2.646      3.975
REMARK  Name = 
REMARK  4 active torsions:
REMARK  status: ('A' for Active; 'I' for Inactive)
REMARK    1  A    between atoms: C_2  and  O_3
REMARK    2  A    between atoms: O_3  and  C_4
REMARK    3  A    between atoms: C_4  and  C_6
REMARK    4  A    between atoms: C_9  and  C_10
REMARK                            x       y       z     vdW  Elec       q    Type
REMARK                         _______ _______ _______ _____ _____    ______ ____
ROOT
ATOM      1  C   UNL     1      27.871  25.053  23.927  0.00  0.00    +0.000 C 
ATOM      2  C   UNL     1      28.637  24.508  24.792  0.00  0.00    +0.000 C 
ATOM      3  C   UNL     1      28.378  24.727  26.253  0.00  0.00    +0.000 C 
ATOM      4  C   UNL     1      29.723  23.462  24.441  0.00  0.00    +0.000 C 
ATOM      5  N   UNL     1      30.240  23.849  23.093  0.00  0.00    +0.000 NA
ATOM      6  C   UNL     1      29.384  24.413  22.152  0.00  0.00    +0.000 C 
ATOM      7  O   UNL     1      29.609  24.413  20.895  0.00  0.00    +0.000 OA
ATOM      8  N   UNL     1      28.172  25.041  22.533  0.00  0.00    +0.000 NA
ENDROOT
BRANCH   4   9
ATOM      9  C   UNL     1      30.923  24.001  25.377  0.00  0.00    +0.000 A 
ATOM     10  C   UNL     1      31.512  25.163  24.894  0.00  0.00    +0.000 A 
ATOM     11  C   UNL     1      32.542  25.683  25.639  0.00  0.00    +0.000 A 
ATOM     12  C   UNL     1      32.960  25.070  26.808  0.00  0.00    +0.000 A 
ATOM     13  C   UNL     1      32.326  23.917  27.222  0.00  0.00    +0.000 A 
ATOM     14  C   UNL     1      31.268  23.354  26.489  0.00  0.00    +0.000 A 
ATOM     15 CL   UNL     1      30.487  21.892  27.045  0.00  0.00    +0.000 Cl
ENDBRANCH   4   9
BRANCH   1  16
ATOM     16  C   UNL     1      26.719  25.883  24.385  0.00  0.00    +0.000 C 
ATOM     17  O   UNL     1      26.892  27.110  24.486  0.00  0.00    +0.000 OA
BRANCH  16  18
ATOM     18  O   UNL     1      25.503  25.308  24.685  0.00  0.00    +0.000 OA
BRANCH  18  20
ATOM     19  C   UNL     1      24.780  25.137  26.934  0.00  0.00    +0.000 C 
ATOM     20  C   UNL     1      24.596  25.886  25.617  0.00  0.00    +0.000 C 
ENDBRANCH  18  20
ENDBRANCH  16  18
ENDBRANCH   1  16
TORSDOF 4
ENDMDL
MODEL 6
REMARK VINA RESULT:      -5.2      2.855      4.438
REMARK  Name = 
REMARK  4 active torsions:
REMARK  status: ('A' for Active; 'I' for Inactive)
REMARK    1  A    between atoms: C_2  and  O_3
REMARK    2  A    between atoms: O_3  and  C_4
REMARK    3  A    between atoms: C_4  and  C_6
REMARK    4  A    between atoms: C_9  and  C_10
REMARK                            x       y       z     vdW  Elec       q    Type
REMARK                         _______ _______ _______ _____ _____    ______ ____
ROOT
ATOM      1  C   UNL     1      25.849  24.654  25.326  0.00  0.00    +0.000 C 
ATOM      2  C   UNL     1      26.972  24.186  25.714  0.00  0.00    +0.000 C 
ATOM      3  C   UNL     1      27.701  24.851  26.844  0.00  0.00    +0.000 C 
ATOM      4  C   UNL     1      27.560  22.841  25.220  0.00  0.00    +0.000 C 
ATOM      5  N   UNL     1      27.120  22.703  23.797  0.00  0.00    +0.000 NA
ATOM      6  C   UNL     1      25.879  23.192  23.400  0.00  0.00    +0.000 C 
ATOM      7  O   UNL     1      25.259  22.794  22.356  0.00  0.00    +0.000 OA
ATOM      8  N   UNL     1      25.199  24.188  24.144  0.00  0.00    +0.000 NA
ENDROOT
BRANCH   4   9
ATOM      9  C   UNL     1      29.096  23.287  25.005  0.00  0.00    +0.000 A 
ATOM     10  C   UNL     1      29.279  24.103  23.895  0.00  0.00    +0.000 A 
ATOM     11  C   UNL     1      30.563  24.524  23.648  0.00  0.00    +0.000 A 
ATOM     12  C   UNL     1      31.610  24.147  24.471  0.00  0.00    +0.000 A 
ATOM     13  C   UNL     1      31.350  23.334  25.555  0.00  0.00    +0.000 A 
ATOM     14  C   UNL     1      30.051  22.883  25.842  0.00  0.00    +0.000 A 
ATOM     15 CL   UNL     1      29.759  21.853  27.225  0.00  0.00    +0.000 Cl
ENDBRANCH   4   9
BRANCH   1  16
ATOM     16  C   UNL     1      25.270  25.843  26.016  0.00  0.00    +0.000 C 
ATOM     17  O   UNL     1      25.584  26.969  25.594  0.00  0.00    +0.000 OA
BRANCH  16  18
ATOM     18  O   UNL     1      24.415  25.697  27.088  0.00  0.00    +0.000 OA
BRANCH  18  20
ATOM     19  C   UNL     1      25.024  25.525  29.371  0.00  0.00    +0.000 C 
ATOM     20  C   UNL     1      24.541  26.473  28.275  0.00  0.00    +0.000 C 
ENDBRANCH  18  20
ENDBRANCH  16  18
ENDBRANCH   1  16
TORSDOF 4
ENDMDL
MODEL 7
REMARK VINA RESULT:      -5.2     33.070     34.915
REMARK  Name = 
REMARK  4 active torsions:
REMARK  status: ('A' for Active; 'I' for Inactive)
REMARK    1  A    between atoms: C_2  and  O_3
REMARK    2  A    between atoms: O_3  and  C_4
REMARK    3  A    between atoms: C_4  and  C_6
REMARK    4  A    between atoms: C_9  and  C_10
REMARK                            x       y       z     vdW  Elec       q    Type
REMARK                         _______ _______ _______ _____ _____    ______ ____
ROOT
ATOM      1  C   UNL     1      20.172  -7.658  26.062  0.00  0.00    +0.000 C 
ATOM      2  C   UNL     1      19.551  -8.470  26.828  0.00  0.00    +0.000 C 
ATOM      3  C   UNL     1      19.911  -9.926  26.810  0.00  0.00    +0.000 C 
ATOM      4  C   UNL     1      18.563  -8.024  27.934  0.00  0.00    +0.000 C 
ATOM      5  N   UNL     1      17.890  -6.797  27.407  0.00  0.00    +0.000 NA
ATOM      6  C   UNL     1      18.592  -5.907  26.600  0.00  0.00    +0.000 C 
ATOM      7  O   UNL     1      18.259  -4.686  26.430  0.00  0.00    +0.000 OA
ATOM      8  N   UNL     1      19.754  -6.304  25.892  0.00  0.00    +0.000 NA
ENDROOT
BRANCH   4   9
ATOM      9  C   UNL     1      17.397  -9.116  27.702  0.00  0.00    +0.000 A 
ATOM     10  C   UNL     1      16.731  -8.957  26.493  0.00  0.00    +0.000 A 
ATOM     11  C   UNL     1      15.724  -9.851  26.225  0.00  0.00    +0.000 A 
ATOM     12  C   UNL     1      15.400 -10.854  27.123  0.00  0.00    +0.000 A 
ATOM     13  C   UNL     1      16.107 -10.948  28.304  0.00  0.00    +0.000 A 
ATOM     14  C   UNL     1      17.144 -10.053  28.615  0.00  0.00    +0.000 A 
ATOM     15 CL   UNL     1      18.018 -10.202  30.122  0.00  0.00    +0.000 Cl
ENDBRANCH   4   9
BRANCH   1  16
ATOM     16  C   UNL     1      21.259  -8.167  25.177  0.00  0.00    +0.000 C 
ATOM     17  O   UNL     1      22.389  -8.318  25.673  0.00  0.00    +0.000 OA
BRANCH  16  18
ATOM     18  O   UNL     1      21.018  -8.461  23.852  0.00  0.00    +0.000 OA
BRANCH  18  20
ATOM     19  C   UNL     1      19.439 -10.112  23.228  0.00  0.00    +0.000 C 
ATOM     20  C   UNL     1      20.926  -9.797  23.371  0.00  0.00    +0.000 C 
ENDBRANCH  18  20
ENDBRANCH  16  18
ENDBRANCH   1  16
TORSDOF 4
ENDMDL
MODEL 8
REMARK VINA RESULT:      -5.2     21.292     22.707
REMARK  Name = 
REMARK  4 active torsions:
REMARK  status: ('A' for Active; 'I' for Inactive)
REMARK    1  A    between atoms: C_2  and  O_3
REMARK    2  A    between atoms: O_3  and  C_4
REMARK    3  A    between atoms: C_4  and  C_6
REMARK    4  A    between atoms: C_9  and  C_10
REMARK                            x       y       z     vdW  Elec       q    Type
REMARK                         _______ _______ _______ _____ _____    ______ ____
ROOT
ATOM      1  C   UNL     1      18.587  11.106  37.141  0.00  0.00    +0.000 C 
ATOM      2  C   UNL     1      17.545  11.803  36.898  0.00  0.00    +0.000 C 
ATOM      3  C   UNL     1      17.262  13.024  37.723  0.00  0.00    +0.000 C 
ATOM      4  C   UNL     1      16.632  11.585  35.666  0.00  0.00    +0.000 C 
ATOM      5  N   UNL     1      16.650  10.113  35.402  0.00  0.00    +0.000 NA
ATOM      6  C   UNL     1      17.805   9.375  35.643  0.00  0.00    +0.000 C 
ATOM      7  O   UNL     1      18.052   8.244  35.103  0.00  0.00    +0.000 OA
ATOM      8  N   UNL     1      18.813   9.839  36.525  0.00  0.00    +0.000 NA
ENDROOT
BRANCH   4   9
ATOM      9  C   UNL     1      15.189  11.733  36.376  0.00  0.00    +0.000 A 
ATOM     10  C   UNL     1      15.095  11.034  37.574  0.00  0.00    +0.000 A 
ATOM     11  C   UNL     1      13.895  11.114  38.237  0.00  0.00    +0.000 A 
ATOM     12  C   UNL     1      12.844  11.855  37.727  0.00  0.00    +0.000 A 
ATOM     13  C   UNL     1      13.013  12.521  36.532  0.00  0.00    +0.000 A 
ATOM     14  C   UNL     1      14.225  12.466  35.823  0.00  0.00    +0.000 A 
ATOM     15 CL   UNL     1      14.403  13.324  34.309  0.00  0.00    +0.000 Cl
ENDBRANCH   4   9
BRANCH   1  16
ATOM     16  C   UNL     1      19.517  11.527  38.228  0.00  0.00    +0.000 C 
ATOM     17  O   UNL     1      20.443  12.302  37.933  0.00  0.00    +0.000 OA
BRANCH  16  18
ATOM     18  O   UNL     1      19.354  11.072  39.519  0.00  0.00    +0.000 OA
BRANCH  18  20
ATOM     19  C   UNL     1      17.641   9.617  40.266  0.00  0.00    +0.000 C 
ATOM     20  C   UNL     1      19.098   9.704  39.819  0.00  0.00    +0.000 C 
ENDBRANCH  18  20
ENDBRANCH  16  18
ENDBRANCH   1  16
TORSDOF 4
ENDMDL
MODEL 9
REMARK VINA RESULT:      -5.1     33.717     35.764
REMARK  Name = 
REMARK  4 active torsions:
REMARK  status: ('A' for Active; 'I' for Inactive)
REMARK    1  A    between atoms: C_2  and  O_3
REMARK    2  A    between atoms: O_3  and  C_4
REMARK    3  A    between atoms: C_4  and  C_6
REMARK    4  A    between atoms: C_9  and  C_10
REMARK                            x       y       z     vdW  Elec       q    Type
REMARK                         _______ _______ _______ _____ _____    ______ ____
ROOT
ATOM      1  C   UNL     1      17.371 -10.312  28.175  0.00  0.00    +0.000 C 
ATOM      2  C   UNL     1      18.244  -9.618  27.552  0.00  0.00    +0.000 C 
ATOM      3  C   UNL     1      19.556  -9.315  28.212  0.00  0.00    +0.000 C 
ATOM      4  C   UNL     1      18.120  -9.218  26.061  0.00  0.00    +0.000 C 
ATOM      5  N   UNL     1      16.660  -9.016  25.814  0.00  0.00    +0.000 NA
ATOM      6  C   UNL     1      15.723  -9.803  26.478  0.00  0.00    +0.000 C 
ATOM      7  O   UNL     1      14.528  -9.984  26.068  0.00  0.00    +0.000 OA
ATOM      8  N   UNL     1      16.040 -10.475  27.685  0.00  0.00    +0.000 NA
ENDROOT
BRANCH   4   9
ATOM      9  C   UNL     1      18.612  -7.683  26.158  0.00  0.00    +0.000 A 
ATOM     10  C   UNL     1      17.712  -6.862  26.827  0.00  0.00    +0.000 A 
ATOM     11  C   UNL     1      18.063  -5.540  26.950  0.00  0.00    +0.000 A 
ATOM     12  C   UNL     1      19.254  -5.065  26.429  0.00  0.00    +0.000 A 
ATOM     13  C   UNL     1      20.096  -5.941  25.777  0.00  0.00    +0.000 A 
ATOM     14  C   UNL     1      19.774  -7.301  25.631  0.00  0.00    +0.000 A 
ATOM     15 CL   UNL     1      20.865  -8.383  24.797  0.00  0.00    +0.000 Cl
ENDBRANCH   4   9
BRANCH   1  16
ATOM     16  C   UNL     1      17.678 -10.827  29.541  0.00  0.00    +0.000 C 
ATOM     17  O   UNL     1      18.299 -11.900  29.631  0.00  0.00    +0.000 OA
BRANCH  16  18
ATOM     18  O   UNL     1      17.286 -10.135  30.666  0.00  0.00    +0.000 OA
BRANCH  18  20
ATOM     19  C   UNL     1      16.765 -11.055  32.785  0.00  0.00    +0.000 C 
ATOM     20  C   UNL     1      16.184 -10.545  31.469  0.00  0.00    +0.000 C 
ENDBRANCH  18  20
ENDBRANCH  16  18
ENDBRANCH   1  16
TORSDOF 4
ENDMDL
MODEL 10
REMARK VINA RESULT:      -5.1     20.924     23.445
REMARK  Name = 
REMARK  4 active torsions:
REMARK  status: ('A' for Active; 'I' for Inactive)
REMARK    1  A    between atoms: C_2  and  O_3
REMARK    2  A    between atoms: O_3  and  C_4
REMARK    3  A    between atoms: C_4  and  C_6
REMARK    4  A    between atoms: C_9  and  C_10
REMARK                            x       y       z     vdW  Elec       q    Type
REMARK                         _______ _______ _______ _____ _____    ______ ____
ROOT
ATOM      1  C   UNL     1      17.909   9.333  39.365  0.00  0.00    +0.000 C 
ATOM      2  C   UNL     1      19.092   9.514  38.919  0.00  0.00    +0.000 C 
ATOM      3  C   UNL     1      20.263   8.978  39.689  0.00  0.00    +0.000 C 
ATOM      4  C   UNL     1      19.403  10.095  37.518  0.00  0.00    +0.000 C 
ATOM      5  N   UNL     1      18.316  11.082  37.236  0.00  0.00    +0.000 NA
ATOM      6  C   UNL     1      17.026  10.852  37.702  0.00  0.00    +0.000 C 
ATOM      7  O   UNL     1      15.982  11.396  37.207  0.00  0.00    +0.000 OA
ATOM      8  N   UNL     1      16.773   9.975  38.787  0.00  0.00    +0.000 NA
ENDROOT
BRANCH   4   9
ATOM      9  C   UNL     1      20.609  11.096  37.908  0.00  0.00    +0.000 A 
ATOM     10  C   UNL     1      20.196  12.172  38.684  0.00  0.00    +0.000 A 
ATOM     11  C   UNL     1      21.168  13.068  39.056  0.00  0.00    +0.000 A 
ATOM     12  C   UNL     1      22.486  12.895  38.670  0.00  0.00    +0.000 A 
ATOM     13  C   UNL     1      22.818  11.801  37.899  0.00  0.00    +0.000 A 
ATOM     14  C   UNL     1      21.854  10.861  37.498  0.00  0.00    +0.000 A 
ATOM     15 CL   UNL     1      22.313   9.486  36.520  0.00  0.00    +0.000 Cl
ENDBRANCH   4   9
BRANCH   1  16
ATOM     16  C   UNL     1      17.709   8.573  40.633  0.00  0.00    +0.000 C 
ATOM     17  O   UNL     1      17.852   9.186  41.706  0.00  0.00    +0.000 OA
BRANCH  16  18
ATOM     18  O   UNL     1      17.378   7.235  40.616  0.00  0.00    +0.000 OA
BRANCH  18  20
ATOM     19  C   UNL     1      19.036   5.593  40.213  0.00  0.00    +0.000 C 
ATOM     20  C   UNL     1      18.159   6.248  41.278  0.00  0.00    +0.000 C 
ENDBRANCH  18  20
ENDBRANCH  16  18
ENDBRANCH   1  16
TORSDOF 4
ENDMDL
