MODEL 1
REMARK VINA RESULT:      -7.5      0.000      0.000
REMARK  Name = 
REMARK  6 active torsions:
REMARK  status: ('A' for Active; 'I' for Inactive)
REMARK    1  A    between atoms: C_2  and  O_3
REMARK    2  A    between atoms: O_3  and  C_4
REMARK    3  A    between atoms: C_9  and  N_10
REMARK    4  A    between atoms: C_11  and  C_13
REMARK    5  A    between atoms: C_14  and  N_15
REMARK    6  A    between atoms: C_16  and  C_18
REMARK                            x       y       z     vdW  Elec       q    Type
REMARK                         _______ _______ _______ _____ _____    ______ ____
ROOT
ATOM      1  C   UNL     1      37.838   5.331  15.366  0.00  0.00    +0.000 A 
ATOM      2  C   UNL     1      38.680   6.269  15.874  0.00  0.00    +0.000 A 
ATOM      3  S   UNL     1      38.000   7.739  15.122  0.00  0.00    +0.000 S 
ATOM      4  C   UNL     1      36.741   7.055  14.265  0.00  0.00    +0.000 A 
ATOM      5  C   UNL     1      36.842   5.732  14.544  0.00  0.00    +0.000 A 
ATOM      6  C   UNL     1      35.755   4.912  13.846  0.00  0.00    +0.000 C 
ATOM      7  C   UNL     1      34.395   5.471  14.219  0.00  0.00    +0.000 C 
ATOM      8  C   UNL     1      34.288   6.939  13.862  0.00  0.00    +0.000 C 
ATOM      9  C   UNL     1      35.619   7.471  13.341  0.00  0.00    +0.000 C 
ENDROOT
BRANCH   1  11
ATOM     10  N   UNL     1      38.373   3.063  14.399  0.00  0.00    +0.000 NA
ATOM     11  C   UNL     1      38.130   3.876  15.547  0.00  0.00    +0.000 C 
ATOM     12  O   UNL     1      38.178   3.291  16.627  0.00  0.00    +0.000 OA
BRANCH  10  18
ATOM     13  C   UNL     1      37.660   0.745  14.687  0.00  0.00    +0.000 A 
ATOM     14  C   UNL     1      37.962  -0.609  14.794  0.00  0.00    +0.000 A 
ATOM     15  C   UNL     1      39.259  -1.060  14.725  0.00  0.00    +0.000 A 
ATOM     16  C   UNL     1      40.260  -0.131  14.546  0.00  0.00    +0.000 A 
ATOM     17  C   UNL     1      39.954   1.231  14.440  0.00  0.00    +0.000 A 
ATOM     18  C   UNL     1      38.652   1.675  14.509  0.00  0.00    +0.000 A 
BRANCH  13  19
ATOM     19  O   UNL     1      36.345   1.171  14.760  0.00  0.00    +0.000 OA
BRANCH  19  21
ATOM     20  C   UNL     1      34.849   2.219  16.262  0.00  0.00    +0.000 C 
ATOM     21  C   UNL     1      35.484   0.897  15.831  0.00  0.00    +0.000 C 
ENDBRANCH  19  21
ENDBRANCH  13  19
ENDBRANCH  10  18
ENDBRANCH   1  11
BRANCH   2  22
ATOM     22  N   UNL     1      39.679   6.373  16.837  0.00  0.00    +0.000 NA
ATOM     23  C   UNL     1      39.883   6.129  18.156  0.00  0.00    +0.000 C 
ATOM     24  O   UNL     1      38.926   5.693  18.846  0.00  0.00    +0.000 OA
BRANCH  23  25
ATOM     25  C   UNL     1      41.180   6.347  18.843  0.00  0.00    +0.000 A 
ATOM     26  C   UNL     1      41.334   6.284  20.203  0.00  0.00    +0.000 A 
ATOM     27  C   UNL     1      42.563   6.493  20.811  0.00  0.00    +0.000 A 
ATOM     28  C   UNL     1      43.654   6.768  20.038  0.00  0.00    +0.000 A 
ATOM     29  C   UNL     1      43.534   6.838  18.673  0.00  0.00    +0.000 A 
ATOM     30  C   UNL     1      42.278   6.623  18.076  0.00  0.00    +0.000 A 
ENDBRANCH  23  25
ENDBRANCH   2  22
TORSDOF 6
ENDMDL
MODEL 2
REMARK VINA RESULT:      -7.5      3.903      7.050
REMARK  Name = 
REMARK  6 active torsions:
REMARK  status: ('A' for Active; 'I' for Inactive)
REMARK    1  A    between atoms: C_2  and  O_3
REMARK    2  A    between atoms: O_3  and  C_4
REMARK    3  A    between atoms: C_9  and  N_10
REMARK    4  A    between atoms: C_11  and  C_13
REMARK    5  A    between atoms: C_14  and  N_15
REMARK    6  A    between atoms: C_16  and  C_18
REMARK                            x       y       z     vdW  Elec       q    Type
REMARK                         _______ _______ _______ _____ _____    ______ ____
ROOT
ATOM      1  C   UNL     1      39.861  -0.165  14.432  0.00  0.00    +0.000 A 
ATOM      2  C   UNL     1      39.922   1.124  14.008  0.00  0.00    +0.000 A 
ATOM      3  S   UNL     1      41.552   1.138  13.281  0.00  0.00    +0.000 S 
ATOM      4  C   UNL     1      41.994  -0.448  13.561  0.00  0.00    +0.000 A 
ATOM      5  C   UNL     1      40.920  -0.973  14.201  0.00  0.00    +0.000 A 
ATOM      6  C   UNL     1      41.123  -2.450  14.549  0.00  0.00    +0.000 C 
ATOM      7  C   UNL     1      41.464  -3.215  13.285  0.00  0.00    +0.000 C 
ATOM      8  C   UNL     1      42.690  -2.639  12.607  0.00  0.00    +0.000 C 
ATOM      9  C   UNL     1      43.162  -1.376  13.319  0.00  0.00    +0.000 C 
ENDROOT
BRANCH   1  11
ATOM     10  N   UNL     1      37.402  -0.588  14.808  0.00  0.00    +0.000 NA
ATOM     11  C   UNL     1      38.738  -0.621  15.309  0.00  0.00    +0.000 C 
ATOM     12  O   UNL     1      38.861  -1.033  16.460  0.00  0.00    +0.000 OA
BRANCH  10  18
ATOM     13  C   UNL     1      35.628  -0.144  16.428  0.00  0.00    +0.000 A 
ATOM     14  C   UNL     1      34.549  -0.581  17.190  0.00  0.00    +0.000 A 
ATOM     15  C   UNL     1      34.118  -1.885  17.137  0.00  0.00    +0.000 A 
ATOM     16  C   UNL     1      34.784  -2.755  16.304  0.00  0.00    +0.000 A 
ATOM     17  C   UNL     1      35.871  -2.314  15.538  0.00  0.00    +0.000 A 
ATOM     18  C   UNL     1      36.297  -1.006  15.596  0.00  0.00    +0.000 A 
BRANCH  13  19
ATOM     19  O   UNL     1      36.041   1.175  16.501  0.00  0.00    +0.000 OA
BRANCH  19  21
ATOM     20  C   UNL     1      34.774   2.485  14.995  0.00  0.00    +0.000 C 
ATOM     21  C   UNL     1      35.178   2.277  16.453  0.00  0.00    +0.000 C 
ENDBRANCH  19  21
ENDBRANCH  13  19
ENDBRANCH  10  18
ENDBRANCH   1  11
BRANCH   2  22
ATOM     22  N   UNL     1      39.079   2.223  13.860  0.00  0.00    +0.000 NA
ATOM     23  C   UNL     1      38.491   3.191  14.606  0.00  0.00    +0.000 C 
ATOM     24  O   UNL     1      38.664   3.186  15.851  0.00  0.00    +0.000 OA
BRANCH  23  25
ATOM     25  C   UNL     1      37.647   4.270  14.036  0.00  0.00    +0.000 A 
ATOM     26  C   UNL     1      37.156   4.248  12.756  0.00  0.00    +0.000 A 
ATOM     27  C   UNL     1      36.369   5.275  12.257  0.00  0.00    +0.000 A 
ATOM     28  C   UNL     1      36.071   6.340  13.057  0.00  0.00    +0.000 A 
ATOM     29  C   UNL     1      36.546   6.393  14.343  0.00  0.00    +0.000 A 
ATOM     30  C   UNL     1      37.343   5.340  14.830  0.00  0.00    +0.000 A 
ENDBRANCH  23  25
ENDBRANCH   2  22
TORSDOF 6
ENDMDL
MODEL 3
REMARK VINA RESULT:      -7.5      3.079      5.568
REMARK  Name = 
REMARK  6 active torsions:
REMARK  status: ('A' for Active; 'I' for Inactive)
REMARK    1  A    between atoms: C_2  and  O_3
REMARK    2  A    between atoms: O_3  and  C_4
REMARK    3  A    between atoms: C_9  and  N_10
REMARK    4  A    between atoms: C_11  and  C_13
REMARK    5  A    between atoms: C_14  and  N_15
REMARK    6  A    between atoms: C_16  and  C_18
REMARK                            x       y       z     vdW  Elec       q    Type
REMARK                         _______ _______ _______ _____ _____    ______ ____
ROOT
ATOM      1  C   UNL     1      36.983   0.702  15.700  0.00  0.00    +0.000 A 
ATOM      2  C   UNL     1      36.712   1.738  16.537  0.00  0.00    +0.000 A 
ATOM      3  S   UNL     1      35.327   1.059  17.436  0.00  0.00    +0.000 S 
ATOM      4  C   UNL     1      35.225  -0.437  16.699  0.00  0.00    +0.000 A 
ATOM      5  C   UNL     1      36.224  -0.414  15.784  0.00  0.00    +0.000 A 
ATOM      6  C   UNL     1      36.307  -1.720  14.989  0.00  0.00    +0.000 C 
ATOM      7  C   UNL     1      36.445  -2.880  15.956  0.00  0.00    +0.000 C 
ATOM      8  C   UNL     1      35.298  -2.912  16.944  0.00  0.00    +0.000 C 
ATOM      9  C   UNL     1      34.393  -1.697  16.767  0.00  0.00    +0.000 C 
ENDROOT
BRANCH   1  11
ATOM     10  N   UNL     1      39.358   0.764  14.850  0.00  0.00    +0.000 NA
ATOM     11  C   UNL     1      37.960   0.871  14.580  0.00  0.00    +0.000 C 
ATOM     12  O   UNL     1      37.664   1.103  13.410  0.00  0.00    +0.000 OA
BRANCH  10  18
ATOM     13  C   UNL     1      40.877  -0.159  13.174  0.00  0.00    +0.000 A 
ATOM     14  C   UNL     1      41.829   0.021  12.176  0.00  0.00    +0.000 A 
ATOM     15  C   UNL     1      42.255   1.276  11.811  0.00  0.00    +0.000 A 
ATOM     16  C   UNL     1      41.711   2.360  12.462  0.00  0.00    +0.000 A 
ATOM     17  C   UNL     1      40.753   2.178  13.467  0.00  0.00    +0.000 A 
ATOM     18  C   UNL     1      40.331   0.918  13.827  0.00  0.00    +0.000 A 
BRANCH  13  19
ATOM     19  O   UNL     1      40.467  -1.434  13.522  0.00  0.00    +0.000 OA
BRANCH  19  21
ATOM     20  C   UNL     1      40.197  -2.790  15.440  0.00  0.00    +0.000 C 
ATOM     21  C   UNL     1      41.175  -2.286  14.380  0.00  0.00    +0.000 C 
ENDBRANCH  19  21
ENDBRANCH  13  19
ENDBRANCH  10  18
ENDBRANCH   1  11
BRANCH   2  22
ATOM     22  N   UNL     1      37.280   2.945  16.933  0.00  0.00    +0.000 NA
ATOM     23  C   UNL     1      37.798   4.077  16.395  0.00  0.00    +0.000 C 
ATOM     24  O   UNL     1      37.869   4.176  15.143  0.00  0.00    +0.000 OA
BRANCH  23  25
ATOM     25  C   UNL     1      38.291   5.221  17.202  0.00  0.00    +0.000 A 
ATOM     26  C   UNL     1      38.156   6.530  16.817  0.00  0.00    +0.000 A 
ATOM     27  C   UNL     1      38.630   7.574  17.597  0.00  0.00    +0.000 A 
ATOM     28  C   UNL     1      39.248   7.298  18.783  0.00  0.00    +0.000 A 
ATOM     29  C   UNL     1      39.398   5.999  19.198  0.00  0.00    +0.000 A 
ATOM     30  C   UNL     1      38.911   4.953  18.390  0.00  0.00    +0.000 A 
ENDBRANCH  23  25
ENDBRANCH   2  22
TORSDOF 6
ENDMDL
MODEL 4
REMARK VINA RESULT:      -7.2      3.476      7.209
REMARK  Name = 
REMARK  6 active torsions:
REMARK  status: ('A' for Active; 'I' for Inactive)
REMARK    1  A    between atoms: C_2  and  O_3
REMARK    2  A    between atoms: O_3  and  C_4
REMARK    3  A    between atoms: C_9  and  N_10
REMARK    4  A    between atoms: C_11  and  C_13
REMARK    5  A    between atoms: C_14  and  N_15
REMARK    6  A    between atoms: C_16  and  C_18
REMARK                            x       y       z     vdW  Elec       q    Type
REMARK                         _______ _______ _______ _____ _____    ______ ____
ROOT
ATOM      1  C   UNL     1      38.537   2.162  14.652  0.00  0.00    +0.000 A 
ATOM      2  C   UNL     1      39.450   1.796  13.715  0.00  0.00    +0.000 A 
ATOM      3  S   UNL     1      40.378   3.315  13.574  0.00  0.00    +0.000 S 
ATOM      4  C   UNL     1      39.556   4.247  14.690  0.00  0.00    +0.000 A 
ATOM      5  C   UNL     1      38.591   3.416  15.155  0.00  0.00    +0.000 A 
ATOM      6  C   UNL     1      37.713   4.089  16.213  0.00  0.00    +0.000 C 
ATOM      7  C   UNL     1      38.596   4.618  17.327  0.00  0.00    +0.000 C 
ATOM      8  C   UNL     1      39.641   5.575  16.793  0.00  0.00    +0.000 C 
ATOM      9  C   UNL     1      39.590   5.642  15.270  0.00  0.00    +0.000 C 
ENDROOT
BRANCH   1  11
ATOM     10  N   UNL     1      37.402   0.490  16.164  0.00  0.00    +0.000 NA
ATOM     11  C   UNL     1      37.378   1.270  14.968  0.00  0.00    +0.000 C 
ATOM     12  O   UNL     1      36.375   1.137  14.271  0.00  0.00    +0.000 OA
BRANCH  10  18
ATOM     13  C   UNL     1      36.397  -1.731  16.315  0.00  0.00    +0.000 A 
ATOM     14  C   UNL     1      35.334  -2.556  16.666  0.00  0.00    +0.000 A 
ATOM     15  C   UNL     1      34.185  -2.044  17.222  0.00  0.00    +0.000 A 
ATOM     16  C   UNL     1      34.113  -0.684  17.424  0.00  0.00    +0.000 A 
ATOM     17  C   UNL     1      35.184   0.145  17.070  0.00  0.00    +0.000 A 
ATOM     18  C   UNL     1      36.332  -0.375  16.514  0.00  0.00    +0.000 A 
BRANCH  13  19
ATOM     19  O   UNL     1      37.542  -2.274  15.756  0.00  0.00    +0.000 OA
BRANCH  19  21
ATOM     20  C   UNL     1      37.591  -3.271  13.613  0.00  0.00    +0.000 C 
ATOM     21  C   UNL     1      37.596  -3.521  15.120  0.00  0.00    +0.000 C 
ENDBRANCH  19  21
ENDBRANCH  13  19
ENDBRANCH  10  18
ENDBRANCH   1  11
BRANCH   2  22
ATOM     22  N   UNL     1      39.890   0.644  13.070  0.00  0.00    +0.000 NA
ATOM     23  C   UNL     1      40.283  -0.622  13.354  0.00  0.00    +0.000 C 
ATOM     24  O   UNL     1      40.337  -0.985  14.557  0.00  0.00    +0.000 OA
BRANCH  23  25
ATOM     25  C   UNL     1      40.657  -1.620  12.320  0.00  0.00    +0.000 A 
ATOM     26  C   UNL     1      41.536  -2.648  12.546  0.00  0.00    +0.000 A 
ATOM     27  C   UNL     1      41.862  -3.562  11.556  0.00  0.00    +0.000 A 
ATOM     28  C   UNL     1      41.295  -3.441  10.320  0.00  0.00    +0.000 A 
ATOM     29  C   UNL     1      40.411  -2.424  10.061  0.00  0.00    +0.000 A 
ATOM     30  C   UNL     1      40.094  -1.506  11.080  0.00  0.00    +0.000 A 
ENDBRANCH  23  25
ENDBRANCH   2  22
TORSDOF 6
ENDMDL
MODEL 5
REMARK VINA RESULT:      -7.0      3.052      5.497
REMARK  Name = 
REMARK  6 active torsions:
REMARK  status: ('A' for Active; 'I' for Inactive)
REMARK    1  A    between atoms: C_2  and  O_3
REMARK    2  A    between atoms: O_3  and  C_4
REMARK    3  A    between atoms: C_9  and  N_10
REMARK    4  A    between atoms: C_11  and  C_13
REMARK    5  A    between atoms: C_14  and  N_15
REMARK    6  A    between atoms: C_16  and  C_18
REMARK                            x       y       z     vdW  Elec       q    Type
REMARK                         _______ _______ _______ _____ _____    ______ ____
ROOT
ATOM      1  C   UNL     1      37.017   0.807  15.697  0.00  0.00    +0.000 A 
ATOM      2  C   UNL     1      36.762   1.823  16.563  0.00  0.00    +0.000 A 
ATOM      3  S   UNL     1      35.397   1.123  17.474  0.00  0.00    +0.000 S 
ATOM      4  C   UNL     1      35.281  -0.356  16.707  0.00  0.00    +0.000 A 
ATOM      5  C   UNL     1      36.261  -0.311  15.772  0.00  0.00    +0.000 A 
ATOM      6  C   UNL     1      36.328  -1.599  14.946  0.00  0.00    +0.000 C 
ATOM      7  C   UNL     1      36.487  -2.781  15.883  0.00  0.00    +0.000 C 
ATOM      8  C   UNL     1      35.361  -2.836  16.894  0.00  0.00    +0.000 C 
ATOM      9  C   UNL     1      34.452  -1.619  16.764  0.00  0.00    +0.000 C 
ENDROOT
BRANCH   1  11
ATOM     10  N   UNL     1      39.374   1.026  14.822  0.00  0.00    +0.000 NA
ATOM     11  C   UNL     1      37.970   1.002  14.561  0.00  0.00    +0.000 C 
ATOM     12  O   UNL     1      37.649   1.151  13.384  0.00  0.00    +0.000 OA
BRANCH  10  18
ATOM     13  C   UNL     1      40.710   2.457  13.362  0.00  0.00    +0.000 A 
ATOM     14  C   UNL     1      41.644   2.608  12.342  0.00  0.00    +0.000 A 
ATOM     15  C   UNL     1      42.210   1.518  11.723  0.00  0.00    +0.000 A 
ATOM     16  C   UNL     1      41.827   0.264  12.142  0.00  0.00    +0.000 A 
ATOM     17  C   UNL     1      40.887   0.113  13.169  0.00  0.00    +0.000 A 
ATOM     18  C   UNL     1      40.325   1.210  13.784  0.00  0.00    +0.000 A 
BRANCH  13  19
ATOM     19  O   UNL     1      40.157   3.572  13.967  0.00  0.00    +0.000 OA
BRANCH  19  21
ATOM     20  C   UNL     1      40.886   5.680  14.753  0.00  0.00    +0.000 C 
ATOM     21  C   UNL     1      40.377   4.891  13.548  0.00  0.00    +0.000 C 
ENDBRANCH  19  21
ENDBRANCH  13  19
ENDBRANCH  10  18
ENDBRANCH   1  11
BRANCH   2  22
ATOM     22  N   UNL     1      37.337   3.023  16.973  0.00  0.00    +0.000 NA
ATOM     23  C   UNL     1      37.605   4.264  16.499  0.00  0.00    +0.000 C 
ATOM     24  O   UNL     1      37.312   4.534  15.306  0.00  0.00    +0.000 OA
BRANCH  23  25
ATOM     25  C   UNL     1      38.230   5.339  17.310  0.00  0.00    +0.000 A 
ATOM     26  C   UNL     1      38.113   6.672  17.015  0.00  0.00    +0.000 A 
ATOM     27  C   UNL     1      38.710   7.649  17.797  0.00  0.00    +0.000 A 
ATOM     28  C   UNL     1      39.436   7.280  18.892  0.00  0.00    +0.000 A 
ATOM     29  C   UNL     1      39.572   5.953  19.216  0.00  0.00    +0.000 A 
ATOM     30  C   UNL     1      38.958   4.977  18.409  0.00  0.00    +0.000 A 
ENDBRANCH  23  25
ENDBRANCH   2  22
TORSDOF 6
ENDMDL
MODEL 6
REMARK VINA RESULT:      -7.0      4.668      7.178
REMARK  Name = 
REMARK  6 active torsions:
REMARK  status: ('A' for Active; 'I' for Inactive)
REMARK    1  A    between atoms: C_2  and  O_3
REMARK    2  A    between atoms: O_3  and  C_4
REMARK    3  A    between atoms: C_9  and  N_10
REMARK    4  A    between atoms: C_11  and  C_13
REMARK    5  A    between atoms: C_14  and  N_15
REMARK    6  A    between atoms: C_16  and  C_18
REMARK                            x       y       z     vdW  Elec       q    Type
REMARK                         _______ _______ _______ _____ _____    ______ ____
ROOT
ATOM      1  C   UNL     1      36.762   0.555  15.316  0.00  0.00    +0.000 A 
ATOM      2  C   UNL     1      35.783   1.496  15.302  0.00  0.00    +0.000 A 
ATOM      3  S   UNL     1      34.761   0.904  16.641  0.00  0.00    +0.000 S 
ATOM      4  C   UNL     1      35.646  -0.439  17.092  0.00  0.00    +0.000 A 
ATOM      5  C   UNL     1      36.695  -0.436  16.234  0.00  0.00    +0.000 A 
ATOM      6  C   UNL     1      37.648  -1.607  16.487  0.00  0.00    +0.000 C 
ATOM      7  C   UNL     1      38.096  -1.578  17.935  0.00  0.00    +0.000 C 
ATOM      8  C   UNL     1      36.911  -1.623  18.878  0.00  0.00    +0.000 C 
ATOM      9  C   UNL     1      35.598  -1.560  18.105  0.00  0.00    +0.000 C 
ENDROOT
BRANCH   1  11
ATOM     10  N   UNL     1      37.475  -0.234  13.027  0.00  0.00    +0.000 NA
ATOM     11  C   UNL     1      37.774   0.499  14.216  0.00  0.00    +0.000 C 
ATOM     12  O   UNL     1      38.877   1.040  14.239  0.00  0.00    +0.000 OA
BRANCH  10  18
ATOM     13  C   UNL     1      39.332  -1.325  11.875  0.00  0.00    +0.000 A 
ATOM     14  C   UNL     1      40.225  -1.389  10.811  0.00  0.00    +0.000 A 
ATOM     15  C   UNL     1      40.202  -0.454   9.802  0.00  0.00    +0.000 A 
ATOM     16  C   UNL     1      39.267   0.553   9.872  0.00  0.00    +0.000 A 
ATOM     17  C   UNL     1      38.369   0.616  10.945  0.00  0.00    +0.000 A 
ATOM     18  C   UNL     1      38.398  -0.324  11.952  0.00  0.00    +0.000 A 
BRANCH  13  19
ATOM     19  O   UNL     1      39.378  -2.279  12.877  0.00  0.00    +0.000 OA
BRANCH  19  21
ATOM     20  C   UNL     1      40.838  -1.916  14.701  0.00  0.00    +0.000 C 
ATOM     21  C   UNL     1      40.559  -2.759  13.458  0.00  0.00    +0.000 C 
ENDBRANCH  19  21
ENDBRANCH  13  19
ENDBRANCH  10  18
ENDBRANCH   1  11
BRANCH   2  22
ATOM     22  N   UNL     1      35.518   2.728  14.710  0.00  0.00    +0.000 NA
ATOM     23  C   UNL     1      36.017   3.988  14.660  0.00  0.00    +0.000 C 
ATOM     24  O   UNL     1      37.030   4.266  15.352  0.00  0.00    +0.000 OA
BRANCH  23  25
ATOM     25  C   UNL     1      35.436   5.072  13.829  0.00  0.00    +0.000 A 
ATOM     26  C   UNL     1      35.898   5.394  12.579  0.00  0.00    +0.000 A 
ATOM     27  C   UNL     1      35.330   6.413  11.831  0.00  0.00    +0.000 A 
ATOM     28  C   UNL     1      34.282   7.119  12.346  0.00  0.00    +0.000 A 
ATOM     29  C   UNL     1      33.795   6.821  13.594  0.00  0.00    +0.000 A 
ATOM     30  C   UNL     1      34.386   5.783  14.338  0.00  0.00    +0.000 A 
ENDBRANCH  23  25
ENDBRANCH   2  22
TORSDOF 6
ENDMDL
MODEL 7
REMARK VINA RESULT:      -6.8      4.764      7.554
REMARK  Name = 
REMARK  6 active torsions:
REMARK  status: ('A' for Active; 'I' for Inactive)
REMARK    1  A    between atoms: C_2  and  O_3
REMARK    2  A    between atoms: O_3  and  C_4
REMARK    3  A    between atoms: C_9  and  N_10
REMARK    4  A    between atoms: C_11  and  C_13
REMARK    5  A    between atoms: C_14  and  N_15
REMARK    6  A    between atoms: C_16  and  C_18
REMARK                            x       y       z     vdW  Elec       q    Type
REMARK                         _______ _______ _______ _____ _____    ______ ____
ROOT
ATOM      1  C   UNL     1      39.620   0.352  13.865  0.00  0.00    +0.000 A 
ATOM      2  C   UNL     1      39.681   1.593  13.315  0.00  0.00    +0.000 A 
ATOM      3  S   UNL     1      41.449   1.773  13.145  0.00  0.00    +0.000 S 
ATOM      4  C   UNL     1      41.938   0.299  13.759  0.00  0.00    +0.000 A 
ATOM      5  C   UNL     1      40.775  -0.313  14.091  0.00  0.00    +0.000 A 
ATOM      6  C   UNL     1      41.007  -1.708  14.679  0.00  0.00    +0.000 C 
ATOM      7  C   UNL     1      41.825  -2.529  13.701  0.00  0.00    +0.000 C 
ATOM      8  C   UNL     1      43.138  -1.847  13.375  0.00  0.00    +0.000 C 
ATOM      9  C   UNL     1      43.212  -0.470  14.025  0.00  0.00    +0.000 C 
ENDROOT
BRANCH   1  11
ATOM     10  N   UNL     1      38.041  -0.060  15.790  0.00  0.00    +0.000 NA
ATOM     11  C   UNL     1      38.326  -0.178  14.395  0.00  0.00    +0.000 C 
ATOM     12  O   UNL     1      37.455  -0.726  13.723  0.00  0.00    +0.000 OA
BRANCH  10  18
ATOM     13  C   UNL     1      35.733   0.257  16.522  0.00  0.00    +0.000 A 
ATOM     14  C   UNL     1      34.559  -0.246  17.074  0.00  0.00    +0.000 A 
ATOM     15  C   UNL     1      34.459  -1.561  17.464  0.00  0.00    +0.000 A 
ATOM     16  C   UNL     1      35.556  -2.374  17.293  0.00  0.00    +0.000 A 
ATOM     17  C   UNL     1      36.737  -1.866  16.738  0.00  0.00    +0.000 A 
ATOM     18  C   UNL     1      36.830  -0.547  16.349  0.00  0.00    +0.000 A 
BRANCH  13  19
ATOM     19  O   UNL     1      35.806   1.585  16.139  0.00  0.00    +0.000 OA
BRANCH  19  21
ATOM     20  C   UNL     1      34.362   3.255  15.291  0.00  0.00    +0.000 C 
ATOM     21  C   UNL     1      35.289   2.092  14.940  0.00  0.00    +0.000 C 
ENDBRANCH  19  21
ENDBRANCH  13  19
ENDBRANCH  10  18
ENDBRANCH   1  11
BRANCH   2  22
ATOM     22  N   UNL     1      38.824   2.541  12.764  0.00  0.00    +0.000 NA
ATOM     23  C   UNL     1      37.867   2.649  11.808  0.00  0.00    +0.000 C 
ATOM     24  O   UNL     1      37.596   1.641  11.106  0.00  0.00    +0.000 OA
BRANCH  23  25
ATOM     25  C   UNL     1      37.110   3.896  11.538  0.00  0.00    +0.000 A 
ATOM     26  C   UNL     1      36.605   4.702  12.525  0.00  0.00    +0.000 A 
ATOM     27  C   UNL     1      35.902   5.861  12.235  0.00  0.00    +0.000 A 
ATOM     28  C   UNL     1      35.705   6.217  10.932  0.00  0.00    +0.000 A 
ATOM     29  C   UNL     1      36.199   5.433   9.920  0.00  0.00    +0.000 A 
ATOM     30  C   UNL     1      36.909   4.260  10.236  0.00  0.00    +0.000 A 
ENDBRANCH  23  25
ENDBRANCH   2  22
TORSDOF 6
ENDMDL
MODEL 8
REMARK VINA RESULT:      -6.8      4.715      7.158
REMARK  Name = 
REMARK  6 active torsions:
REMARK  status: ('A' for Active; 'I' for Inactive)
REMARK    1  A    between atoms: C_2  and  O_3
REMARK    2  A    between atoms: O_3  and  C_4
REMARK    3  A    between atoms: C_9  and  N_10
REMARK    4  A    between atoms: C_11  and  C_13
REMARK    5  A    between atoms: C_14  and  N_15
REMARK    6  A    between atoms: C_16  and  C_18
REMARK                            x       y       z     vdW  Elec       q    Type
REMARK                         _______ _______ _______ _____ _____    ______ ____
ROOT
ATOM      1  C   UNL     1      36.856  -0.075  15.638  0.00  0.00    +0.000 A 
ATOM      2  C   UNL     1      36.204   1.118  15.654  0.00  0.00    +0.000 A 
ATOM      3  S   UNL     1      35.552   1.096  17.315  0.00  0.00    +0.000 S 
ATOM      4  C   UNL     1      36.154  -0.375  17.830  0.00  0.00    +0.000 A 
ATOM      5  C   UNL     1      36.834  -0.839  16.753  0.00  0.00    +0.000 A 
ATOM      6  C   UNL     1      37.479  -2.201  17.024  0.00  0.00    +0.000 C 
ATOM      7  C   UNL     1      38.361  -2.096  18.253  0.00  0.00    +0.000 C 
ATOM      8  C   UNL     1      37.575  -1.614  19.454  0.00  0.00    +0.000 C 
ATOM      9  C   UNL     1      36.147  -1.252  19.061  0.00  0.00    +0.000 C 
ENDROOT
BRANCH   1  11
ATOM     10  N   UNL     1      38.804  -0.492  14.089  0.00  0.00    +0.000 NA
ATOM     11  C   UNL     1      37.407  -0.619  14.359  0.00  0.00    +0.000 C 
ATOM     12  O   UNL     1      36.751  -1.182  13.486  0.00  0.00    +0.000 OA
BRANCH  10  18
ATOM     13  C   UNL     1      39.509  -0.209  11.768  0.00  0.00    +0.000 A 
ATOM     14  C   UNL     1      40.079  -0.720  10.607  0.00  0.00    +0.000 A 
ATOM     15  C   UNL     1      40.534  -2.016  10.544  0.00  0.00    +0.000 A 
ATOM     16  C   UNL     1      40.411  -2.802  11.668  0.00  0.00    +0.000 A 
ATOM     17  C   UNL     1      39.836  -2.286  12.836  0.00  0.00    +0.000 A 
ATOM     18  C   UNL     1      39.383  -0.987  12.891  0.00  0.00    +0.000 A 
BRANCH  13  19
ATOM     19  O   UNL     1      39.059   1.099  11.803  0.00  0.00    +0.000 OA
BRANCH  19  21
ATOM     20  C   UNL     1      36.888   1.046  10.867  0.00  0.00    +0.000 C 
ATOM     21  C   UNL     1      38.272   1.691  10.806  0.00  0.00    +0.000 C 
ENDBRANCH  19  21
ENDBRANCH  13  19
ENDBRANCH  10  18
ENDBRANCH   1  11
BRANCH   2  22
ATOM     22  N   UNL     1      36.092   2.263  14.872  0.00  0.00    +0.000 NA
ATOM     23  C   UNL     1      36.873   3.153  14.210  0.00  0.00    +0.000 C 
ATOM     24  O   UNL     1      38.122   3.024  14.269  0.00  0.00    +0.000 OA
BRANCH  23  25
ATOM     25  C   UNL     1      36.338   4.282  13.409  0.00  0.00    +0.000 A 
ATOM     26  C   UNL     1      36.789   4.597  12.153  0.00  0.00    +0.000 A 
ATOM     27  C   UNL     1      36.265   5.660  11.434  0.00  0.00    +0.000 A 
ATOM     28  C   UNL     1      35.273   6.418  11.985  0.00  0.00    +0.000 A 
ATOM     29  C   UNL     1      34.798   6.129  13.239  0.00  0.00    +0.000 A 
ATOM     30  C   UNL     1      35.344   5.045  13.953  0.00  0.00    +0.000 A 
ENDBRANCH  23  25
ENDBRANCH   2  22
TORSDOF 6
ENDMDL
MODEL 9
REMARK VINA RESULT:      -6.8      3.402      6.393
REMARK  Name = 
REMARK  6 active torsions:
REMARK  status: ('A' for Active; 'I' for Inactive)
REMARK    1  A    between atoms: C_2  and  O_3
REMARK    2  A    between atoms: O_3  and  C_4
REMARK    3  A    between atoms: C_9  and  N_10
REMARK    4  A    between atoms: C_11  and  C_13
REMARK    5  A    between atoms: C_14  and  N_15
REMARK    6  A    between atoms: C_16  and  C_18
REMARK                            x       y       z     vdW  Elec       q    Type
REMARK                         _______ _______ _______ _____ _____    ______ ____
ROOT
ATOM      1  C   UNL     1      37.324  -0.397  15.004  0.00  0.00    +0.000 A 
ATOM      2  C   UNL     1      36.941   0.645  15.788  0.00  0.00    +0.000 A 
ATOM      3  S   UNL     1      35.550  -0.092  16.629  0.00  0.00    +0.000 S 
ATOM      4  C   UNL     1      35.583  -1.613  15.940  0.00  0.00    +0.000 A 
ATOM      5  C   UNL     1      36.631  -1.555  15.083  0.00  0.00    +0.000 A 
ATOM      6  C   UNL     1      36.840  -2.878  14.340  0.00  0.00    +0.000 C 
ATOM      7  C   UNL     1      36.992  -3.996  15.353  0.00  0.00    +0.000 C 
ATOM      8  C   UNL     1      35.793  -4.070  16.275  0.00  0.00    +0.000 C 
ATOM      9  C   UNL     1      34.828  -2.921  16.005  0.00  0.00    +0.000 C 
ENDROOT
BRANCH   1  11
ATOM     10  N   UNL     1      38.016  -0.494  12.579  0.00  0.00    +0.000 NA
ATOM     11  C   UNL     1      38.353  -0.203  13.936  0.00  0.00    +0.000 C 
ATOM     12  O   UNL     1      39.501   0.195  14.121  0.00  0.00    +0.000 OA
BRANCH  10  18
ATOM     13  C   UNL     1      39.822  -1.328  11.161  0.00  0.00    +0.000 A 
ATOM     14  C   UNL     1      40.730  -1.141  10.124  0.00  0.00    +0.000 A 
ATOM     15  C   UNL     1      40.788   0.045   9.430  0.00  0.00    +0.000 A 
ATOM     16  C   UNL     1      39.919   1.050   9.789  0.00  0.00    +0.000 A 
ATOM     17  C   UNL     1      39.006   0.860  10.834  0.00  0.00    +0.000 A 
ATOM     18  C   UNL     1      38.953  -0.331  11.524  0.00  0.00    +0.000 A 
BRANCH  13  19
ATOM     19  O   UNL     1      39.785  -2.532  11.843  0.00  0.00    +0.000 OA
BRANCH  19  21
ATOM     20  C   UNL     1      41.023  -2.845  13.833  0.00  0.00    +0.000 C 
ATOM     21  C   UNL     1      40.915  -3.189  12.349  0.00  0.00    +0.000 C 
ENDBRANCH  19  21
ENDBRANCH  13  19
ENDBRANCH  10  18
ENDBRANCH   1  11
BRANCH   2  22
ATOM     22  N   UNL     1      37.410   1.898  16.172  0.00  0.00    +0.000 NA
ATOM     23  C   UNL     1      37.102   3.211  16.035  0.00  0.00    +0.000 C 
ATOM     24  O   UNL     1      36.109   3.531  15.333  0.00  0.00    +0.000 OA
BRANCH  23  25
ATOM     25  C   UNL     1      37.873   4.308  16.672  0.00  0.00    +0.000 A 
ATOM     26  C   UNL     1      38.324   4.262  17.966  0.00  0.00    +0.000 A 
ATOM     27  C   UNL     1      39.042   5.306  18.528  0.00  0.00    +0.000 A 
ATOM     28  C   UNL     1      39.311   6.414  17.777  0.00  0.00    +0.000 A 
ATOM     29  C   UNL     1      38.874   6.493  16.479  0.00  0.00    +0.000 A 
ATOM     30  C   UNL     1      38.146   5.421  15.927  0.00  0.00    +0.000 A 
ENDBRANCH  23  25
ENDBRANCH   2  22
TORSDOF 6
ENDMDL
MODEL 10
REMARK VINA RESULT:      -6.8      3.528      6.458
REMARK  Name = 
REMARK  6 active torsions:
REMARK  status: ('A' for Active; 'I' for Inactive)
REMARK    1  A    between atoms: C_2  and  O_3
REMARK    2  A    between atoms: O_3  and  C_4
REMARK    3  A    between atoms: C_9  and  N_10
REMARK    4  A    between atoms: C_11  and  C_13
REMARK    5  A    between atoms: C_14  and  N_15
REMARK    6  A    between atoms: C_16  and  C_18
REMARK                            x       y       z     vdW  Elec       q    Type
REMARK                         _______ _______ _______ _____ _____    ______ ____
ROOT
ATOM      1  C   UNL     1      37.523  -0.836  14.783  0.00  0.00    +0.000 A 
ATOM      2  C   UNL     1      37.160   0.281  15.465  0.00  0.00    +0.000 A 
ATOM      3  S   UNL     1      35.652  -0.295  16.227  0.00  0.00    +0.000 S 
ATOM      4  C   UNL     1      35.623  -1.858  15.639  0.00  0.00    +0.000 A 
ATOM      5  C   UNL     1      36.739  -1.934  14.873  0.00  0.00    +0.000 A 
ATOM      6  C   UNL     1      36.905  -3.315  14.234  0.00  0.00    +0.000 C 
ATOM      7  C   UNL     1      36.886  -4.371  15.323  0.00  0.00    +0.000 C 
ATOM      8  C   UNL     1      35.614  -4.295  16.141  0.00  0.00    +0.000 C 
ATOM      9  C   UNL     1      34.766  -3.100  15.718  0.00  0.00    +0.000 C 
ENDROOT
BRANCH   1  11
ATOM     10  N   UNL     1      38.353  -0.730  12.402  0.00  0.00    +0.000 NA
ATOM     11  C   UNL     1      38.648  -0.789  13.798  0.00  0.00    +0.000 C 
ATOM     12  O   UNL     1      39.843  -0.800  14.085  0.00  0.00    +0.000 OA
BRANCH  10  18
ATOM     13  C   UNL     1      39.852   0.498  10.916  0.00  0.00    +0.000 A 
ATOM     14  C   UNL     1      40.858   0.512   9.955  0.00  0.00    +0.000 A 
ATOM     15  C   UNL     1      41.410  -0.655   9.481  0.00  0.00    +0.000 A 
ATOM     16  C   UNL     1      40.940  -1.846   9.985  0.00  0.00    +0.000 A 
ATOM     17  C   UNL     1      39.927  -1.859  10.952  0.00  0.00    +0.000 A 
ATOM     18  C   UNL     1      39.379  -0.686  11.422  0.00  0.00    +0.000 A 
BRANCH  13  19
ATOM     19  O   UNL     1      39.314   1.688  11.375  0.00  0.00    +0.000 OA
BRANCH  19  21
ATOM     20  C   UNL     1      40.805   2.376  13.076  0.00  0.00    +0.000 C 
ATOM     21  C   UNL     1      40.072   2.786  11.800  0.00  0.00    +0.000 C 
ENDBRANCH  19  21
ENDBRANCH  13  19
ENDBRANCH  10  18
ENDBRANCH   1  11
BRANCH   2  22
ATOM     22  N   UNL     1      37.691   1.520  15.811  0.00  0.00    +0.000 NA
ATOM     23  C   UNL     1      37.786   2.784  15.328  0.00  0.00    +0.000 C 
ATOM     24  O   UNL     1      37.299   3.038  14.196  0.00  0.00    +0.000 OA
BRANCH  23  25
ATOM     25  C   UNL     1      38.435   3.899  16.060  0.00  0.00    +0.000 A 
ATOM     26  C   UNL     1      38.152   4.211  17.365  0.00  0.00    +0.000 A 
ATOM     27  C   UNL     1      38.779   5.261  18.018  0.00  0.00    +0.000 A 
ATOM     28  C   UNL     1      39.706   6.008  17.350  0.00  0.00    +0.000 A 
ATOM     29  C   UNL     1      40.013   5.722  16.043  0.00  0.00    +0.000 A 
ATOM     30  C   UNL     1      39.364   4.652  15.398  0.00  0.00    +0.000 A 
ENDBRANCH  23  25
ENDBRANCH   2  22
TORSDOF 6
ENDMDL
