MODEL 1
REMARK VINA RESULT:      -7.4      0.000      0.000
REMARK  Name = 
REMARK  6 active torsions:
REMARK  status: ('A' for Active; 'I' for Inactive)
REMARK    1  A    between atoms: O_2  and  C_3
REMARK    2  A    between atoms: C_8  and  N_9
REMARK    3  A    between atoms: C_10  and  C_12
REMARK    4  A    between atoms: C_16  and  C_17
REMARK    5  A    between atoms: C_17  and  C_18
REMARK    6  A    between atoms: C_18  and  C_19
REMARK                            x       y       z     vdW  Elec       q    Type
REMARK                         _______ _______ _______ _____ _____    ______ ____
ROOT
ATOM      1  C   UNL     1      37.940   2.691  15.442  0.00  0.00    +0.000 A 
ATOM      2  S   UNL     1      37.083   3.410  16.715  0.00  0.00    +0.000 S 
ATOM      3  C   UNL     1      37.994   4.849  16.892  0.00  0.00    +0.000 A 
ATOM      4  N   UNL     1      37.904   5.928  17.724  0.00  0.00    +0.000 NA
ATOM      5  C   UNL     1      38.766   6.972  17.670  0.00  0.00    +0.000 A 
ATOM      6  C   UNL     1      39.746   6.866  16.708  0.00  0.00    +0.000 A 
ATOM      7  C   UNL     1      39.859   5.799  15.866  0.00  0.00    +0.000 A 
ATOM      8  C   UNL     1      38.958   4.716  15.929  0.00  0.00    +0.000 A 
ATOM      9  C   UNL     1      38.928   3.597  15.179  0.00  0.00    +0.000 A 
ATOM     10  N   UNL     1      39.882   3.305  14.111  0.00  0.00    +0.000 NA
ATOM     11  C   UNL     1      40.962   5.798  14.875  0.00  0.00    +0.000 C 
ATOM     12  C   UNL     1      42.192   6.288  15.651  0.00  0.00    +0.000 C 
ATOM     13  C   UNL     1      41.960   7.746  15.921  0.00  0.00    +0.000 C 
ATOM     14  C   UNL     1      40.685   8.040  16.612  0.00  0.00    +0.000 C 
ENDROOT
BRANCH   1  16
ATOM     15  N   UNL     1      38.073   0.201  15.438  0.00  0.00    +0.000 NA
ATOM     16  C   UNL     1      37.681   1.401  14.788  0.00  0.00    +0.000 C 
ATOM     17  O   UNL     1      37.127   1.321  13.681  0.00  0.00    +0.000 OA
BRANCH  15  23
ATOM     18  C   UNL     1      36.696  -1.774  15.119  0.00  0.00    +0.000 A 
ATOM     19  C   UNL     1      36.460  -3.007  14.546  0.00  0.00    +0.000 A 
ATOM     20  C   UNL     1      37.380  -3.540  13.678  0.00  0.00    +0.000 A 
ATOM     21  C   UNL     1      38.549  -2.866  13.363  0.00  0.00    +0.000 A 
ATOM     22  C   UNL     1      38.737  -1.643  13.960  0.00  0.00    +0.000 A 
ATOM     23  C   UNL     1      37.841  -1.069  14.836  0.00  0.00    +0.000 A 
BRANCH  18  25
ATOM     24  C   UNL     1      35.577  -1.741  17.300  0.00  0.00    +0.000 C 
ATOM     25  O   UNL     1      35.737  -1.261  15.997  0.00  0.00    +0.000 OA
ENDBRANCH  18  25
ENDBRANCH  15  23
ENDBRANCH   1  16
BRANCH   5  26
ATOM     26  C   UNL     1      38.584   8.048  18.633  0.00  0.00    +0.000 C 
BRANCH  26  27
ATOM     27  C   UNL     1      39.018   7.854  20.010  0.00  0.00    +0.000 C 
BRANCH  27  28
ATOM     28  C   UNL     1      40.457   7.684  20.206  0.00  0.00    +0.000 A 
ATOM     29  C   UNL     1      41.036   6.412  20.350  0.00  0.00    +0.000 A 
ATOM     30  C   UNL     1      42.396   6.260  20.513  0.00  0.00    +0.000 A 
ATOM     31  C   UNL     1      43.227   7.341  20.540  0.00  0.00    +0.000 A 
ATOM     32  C   UNL     1      42.699   8.632  20.399  0.00  0.00    +0.000 A 
ATOM     33  C   UNL     1      41.340   8.747  20.238  0.00  0.00    +0.000 A 
ENDBRANCH  27  28
ENDBRANCH  26  27
ENDBRANCH   5  26
TORSDOF 6
ENDMDL
MODEL 2
REMARK VINA RESULT:      -7.3      5.282      8.674
REMARK  Name = 
REMARK  6 active torsions:
REMARK  status: ('A' for Active; 'I' for Inactive)
REMARK    1  A    between atoms: O_2  and  C_3
REMARK    2  A    between atoms: C_8  and  N_9
REMARK    3  A    between atoms: C_10  and  C_12
REMARK    4  A    between atoms: C_16  and  C_17
REMARK    5  A    between atoms: C_17  and  C_18
REMARK    6  A    between atoms: C_18  and  C_19
REMARK                            x       y       z     vdW  Elec       q    Type
REMARK                         _______ _______ _______ _____ _____    ______ ____
ROOT
ATOM      1  C   UNL     1      37.134   0.061  14.522  0.00  0.00    +0.000 A 
ATOM      2  S   UNL     1      37.423  -0.273  12.885  0.00  0.00    +0.000 S 
ATOM      3  C   UNL     1      37.267   1.308  12.244  0.00  0.00    +0.000 A 
ATOM      4  N   UNL     1      37.366   1.830  10.986  0.00  0.00    +0.000 NA
ATOM      5  C   UNL     1      37.197   3.148  10.723  0.00  0.00    +0.000 A 
ATOM      6  C   UNL     1      36.919   3.928  11.823  0.00  0.00    +0.000 A 
ATOM      7  C   UNL     1      36.813   3.432  13.089  0.00  0.00    +0.000 A 
ATOM      8  C   UNL     1      36.989   2.058  13.354  0.00  0.00    +0.000 A 
ATOM      9  C   UNL     1      36.920   1.409  14.534  0.00  0.00    +0.000 A 
ATOM     10  N   UNL     1      36.636   2.064  15.809  0.00  0.00    +0.000 NA
ATOM     11  C   UNL     1      36.503   4.373  14.191  0.00  0.00    +0.000 C 
ATOM     12  C   UNL     1      35.398   5.281  13.637  0.00  0.00    +0.000 C 
ATOM     13  C   UNL     1      36.052   6.151  12.603  0.00  0.00    +0.000 C 
ATOM     14  C   UNL     1      36.770   5.402  11.547  0.00  0.00    +0.000 C 
ENDROOT
BRANCH   1  16
ATOM     15  N   UNL     1      38.247  -0.975  16.499  0.00  0.00    +0.000 NA
ATOM     16  C   UNL     1      37.113  -0.882  15.650  0.00  0.00    +0.000 C 
ATOM     17  O   UNL     1      36.133  -1.604  15.889  0.00  0.00    +0.000 OA
BRANCH  15  23
ATOM     18  C   UNL     1      37.771  -1.493  18.823  0.00  0.00    +0.000 A 
ATOM     19  C   UNL     1      37.787  -2.355  19.900  0.00  0.00    +0.000 A 
ATOM     20  C   UNL     1      38.302  -3.620  19.751  0.00  0.00    +0.000 A 
ATOM     21  C   UNL     1      38.811  -4.052  18.537  0.00  0.00    +0.000 A 
ATOM     22  C   UNL     1      38.774  -3.155  17.497  0.00  0.00    +0.000 A 
ATOM     23  C   UNL     1      38.266  -1.878  17.600  0.00  0.00    +0.000 A 
BRANCH  18  25
ATOM     24  C   UNL     1      35.866   0.017  19.134  0.00  0.00    +0.000 C 
ATOM     25  O   UNL     1      37.239  -0.215  19.011  0.00  0.00    +0.000 OA
ENDBRANCH  18  25
ENDBRANCH  15  23
ENDBRANCH   1  16
BRANCH   5  26
ATOM     26  C   UNL     1      37.297   3.578   9.336  0.00  0.00    +0.000 C 
BRANCH  26  27
ATOM     27  C   UNL     1      36.655   2.784   8.296  0.00  0.00    +0.000 C 
BRANCH  27  28
ATOM     28  C   UNL     1      35.918   3.538   7.283  0.00  0.00    +0.000 A 
ATOM     29  C   UNL     1      35.374   4.803   7.556  0.00  0.00    +0.000 A 
ATOM     30  C   UNL     1      34.699   5.515   6.588  0.00  0.00    +0.000 A 
ATOM     31  C   UNL     1      34.538   5.014   5.330  0.00  0.00    +0.000 A 
ATOM     32  C   UNL     1      35.063   3.756   5.006  0.00  0.00    +0.000 A 
ATOM     33  C   UNL     1      35.729   3.074   5.995  0.00  0.00    +0.000 A 
ENDBRANCH  27  28
ENDBRANCH  26  27
ENDBRANCH   5  26
TORSDOF 6
ENDMDL
MODEL 3
REMARK VINA RESULT:      -7.3      2.288      3.824
REMARK  Name = 
REMARK  6 active torsions:
REMARK  status: ('A' for Active; 'I' for Inactive)
REMARK    1  A    between atoms: O_2  and  C_3
REMARK    2  A    between atoms: C_8  and  N_9
REMARK    3  A    between atoms: C_10  and  C_12
REMARK    4  A    between atoms: C_16  and  C_17
REMARK    5  A    between atoms: C_17  and  C_18
REMARK    6  A    between atoms: C_18  and  C_19
REMARK                            x       y       z     vdW  Elec       q    Type
REMARK                         _______ _______ _______ _____ _____    ______ ____
ROOT
ATOM      1  C   UNL     1      37.643   0.477  14.645  0.00  0.00    +0.000 A 
ATOM      2  S   UNL     1      39.224   1.081  14.756  0.00  0.00    +0.000 S 
ATOM      3  C   UNL     1      38.884   2.759  14.758  0.00  0.00    +0.000 A 
ATOM      4  N   UNL     1      39.661   3.880  14.824  0.00  0.00    +0.000 NA
ATOM      5  C   UNL     1      39.147   5.133  14.809  0.00  0.00    +0.000 A 
ATOM      6  C   UNL     1      37.774   5.196  14.724  0.00  0.00    +0.000 A 
ATOM      7  C   UNL     1      36.975   4.092  14.656  0.00  0.00    +0.000 A 
ATOM      8  C   UNL     1      37.518   2.791  14.671  0.00  0.00    +0.000 A 
ATOM      9  C   UNL     1      36.877   1.607  14.612  0.00  0.00    +0.000 A 
ATOM     10  N   UNL     1      35.426   1.469  14.519  0.00  0.00    +0.000 NA
ATOM     11  C   UNL     1      35.509   4.290  14.560  0.00  0.00    +0.000 C 
ATOM     12  C   UNL     1      35.327   5.424  13.543  0.00  0.00    +0.000 C 
ATOM     13  C   UNL     1      35.809   6.674  14.222  0.00  0.00    +0.000 C 
ATOM     14  C   UNL     1      37.189   6.584  14.748  0.00  0.00    +0.000 C 
ENDROOT
BRANCH   1  16
ATOM     15  N   UNL     1      36.617  -1.516  15.738  0.00  0.00    +0.000 NA
ATOM     16  C   UNL     1      37.210  -0.927  14.591  0.00  0.00    +0.000 C 
ATOM     17  O   UNL     1      37.345  -1.620  13.572  0.00  0.00    +0.000 OA
BRANCH  15  23
ATOM     18  C   UNL     1      37.019  -3.869  16.183  0.00  0.00    +0.000 A 
ATOM     19  C   UNL     1      36.618  -5.190  16.173  0.00  0.00    +0.000 A 
ATOM     20  C   UNL     1      35.371  -5.519  15.703  0.00  0.00    +0.000 A 
ATOM     21  C   UNL     1      34.499  -4.549  15.233  0.00  0.00    +0.000 A 
ATOM     22  C   UNL     1      34.946  -3.251  15.263  0.00  0.00    +0.000 A 
ATOM     23  C   UNL     1      36.188  -2.874  15.726  0.00  0.00    +0.000 A 
BRANCH  18  25
ATOM     24  C   UNL     1      38.560  -3.412  18.033  0.00  0.00    +0.000 C 
ATOM     25  O   UNL     1      38.294  -3.571  16.669  0.00  0.00    +0.000 OA
ENDBRANCH  18  25
ENDBRANCH  15  23
ENDBRANCH   1  16
BRANCH   5  26
ATOM     26  C   UNL     1      40.083   6.247  14.853  0.00  0.00    +0.000 C 
BRANCH  26  27
ATOM     27  C   UNL     1      41.271   6.148  15.690  0.00  0.00    +0.000 C 
BRANCH  27  28
ATOM     28  C   UNL     1      41.043   6.229  17.132  0.00  0.00    +0.000 A 
ATOM     29  C   UNL     1      39.774   6.003  17.692  0.00  0.00    +0.000 A 
ATOM     30  C   UNL     1      39.573   6.061  19.054  0.00  0.00    +0.000 A 
ATOM     31  C   UNL     1      40.601   6.340  19.906  0.00  0.00    +0.000 A 
ATOM     32  C   UNL     1      41.886   6.572  19.398  0.00  0.00    +0.000 A 
ATOM     33  C   UNL     1      42.051   6.507  18.035  0.00  0.00    +0.000 A 
ENDBRANCH  27  28
ENDBRANCH  26  27
ENDBRANCH   5  26
TORSDOF 6
ENDMDL
MODEL 4
REMARK VINA RESULT:      -7.3      6.086      8.547
REMARK  Name = 
REMARK  6 active torsions:
REMARK  status: ('A' for Active; 'I' for Inactive)
REMARK    1  A    between atoms: O_2  and  C_3
REMARK    2  A    between atoms: C_8  and  N_9
REMARK    3  A    between atoms: C_10  and  C_12
REMARK    4  A    between atoms: C_16  and  C_17
REMARK    5  A    between atoms: C_17  and  C_18
REMARK    6  A    between atoms: C_18  and  C_19
REMARK                            x       y       z     vdW  Elec       q    Type
REMARK                         _______ _______ _______ _____ _____    ______ ____
ROOT
ATOM      1  C   UNL     1      37.805   2.473  13.431  0.00  0.00    +0.000 A 
ATOM      2  S   UNL     1      38.006   2.585  11.751  0.00  0.00    +0.000 S 
ATOM      3  C   UNL     1      37.134   4.030  11.459  0.00  0.00    +0.000 A 
ATOM      4  N   UNL     1      36.854   4.753  10.335  0.00  0.00    +0.000 NA
ATOM      5  C   UNL     1      36.125   5.894  10.358  0.00  0.00    +0.000 A 
ATOM      6  C   UNL     1      35.684   6.276  11.605  0.00  0.00    +0.000 A 
ATOM      7  C   UNL     1      35.947   5.571  12.743  0.00  0.00    +0.000 A 
ATOM      8  C   UNL     1      36.706   4.383  12.710  0.00  0.00    +0.000 A 
ATOM      9  C   UNL     1      37.055   3.574  13.730  0.00  0.00    +0.000 A 
ATOM     10  N   UNL     1      36.681   3.812  15.123  0.00  0.00    +0.000 NA
ATOM     11  C   UNL     1      35.410   6.080  14.027  0.00  0.00    +0.000 C 
ATOM     12  C   UNL     1      33.970   6.506  13.713  0.00  0.00    +0.000 C 
ATOM     13  C   UNL     1      34.076   7.737  12.861  0.00  0.00    +0.000 C 
ATOM     14  C   UNL     1      34.906   7.565  11.648  0.00  0.00    +0.000 C 
ENDROOT
BRANCH   1  16
ATOM     15  N   UNL     1      37.684   0.160  14.356  0.00  0.00    +0.000 NA
ATOM     16  C   UNL     1      38.312   1.434  14.337  0.00  0.00    +0.000 C 
ATOM     17  O   UNL     1      39.277   1.629  15.092  0.00  0.00    +0.000 OA
BRANCH  15  23
ATOM     18  C   UNL     1      37.521  -1.097  16.427  0.00  0.00    +0.000 A 
ATOM     19  C   UNL     1      37.959  -2.090  17.280  0.00  0.00    +0.000 A 
ATOM     20  C   UNL     1      39.032  -2.868  16.923  0.00  0.00    +0.000 A 
ATOM     21  C   UNL     1      39.692  -2.677  15.719  0.00  0.00    +0.000 A 
ATOM     22  C   UNL     1      39.219  -1.676  14.907  0.00  0.00    +0.000 A 
ATOM     23  C   UNL     1      38.145  -0.871  15.223  0.00  0.00    +0.000 A 
BRANCH  18  25
ATOM     24  C   UNL     1      35.130  -0.846  16.903  0.00  0.00    +0.000 C 
ATOM     25  O   UNL     1      36.425  -0.326  16.822  0.00  0.00    +0.000 OA
ENDBRANCH  18  25
ENDBRANCH  15  23
ENDBRANCH   1  16
BRANCH   5  26
ATOM     26  C   UNL     1      35.869   6.558   9.088  0.00  0.00    +0.000 C 
BRANCH  26  27
ATOM     27  C   UNL     1      34.771   6.094   8.249  0.00  0.00    +0.000 C 
BRANCH  27  28
ATOM     28  C   UNL     1      34.093   7.122   7.462  0.00  0.00    +0.000 A 
ATOM     29  C   UNL     1      34.467   8.474   7.536  0.00  0.00    +0.000 A 
ATOM     30  C   UNL     1      33.835   9.433   6.774  0.00  0.00    +0.000 A 
ATOM     31  C   UNL     1      32.825   9.101   5.920  0.00  0.00    +0.000 A 
ATOM     32  C   UNL     1      32.416   7.765   5.808  0.00  0.00    +0.000 A 
ATOM     33  C   UNL     1      33.066   6.835   6.582  0.00  0.00    +0.000 A 
ENDBRANCH  27  28
ENDBRANCH  26  27
ENDBRANCH   5  26
TORSDOF 6
ENDMDL
MODEL 5
REMARK VINA RESULT:      -7.3      5.492      9.719
REMARK  Name = 
REMARK  6 active torsions:
REMARK  status: ('A' for Active; 'I' for Inactive)
REMARK    1  A    between atoms: O_2  and  C_3
REMARK    2  A    between atoms: C_8  and  N_9
REMARK    3  A    between atoms: C_10  and  C_12
REMARK    4  A    between atoms: C_16  and  C_17
REMARK    5  A    between atoms: C_17  and  C_18
REMARK    6  A    between atoms: C_18  and  C_19
REMARK                            x       y       z     vdW  Elec       q    Type
REMARK                         _______ _______ _______ _____ _____    ______ ____
ROOT
ATOM      1  C   UNL     1      37.045   4.037  13.471  0.00  0.00    +0.000 A 
ATOM      2  S   UNL     1      38.412   3.072  13.199  0.00  0.00    +0.000 S 
ATOM      3  C   UNL     1      38.020   1.740  14.202  0.00  0.00    +0.000 A 
ATOM      4  N   UNL     1      38.649   0.564  14.498  0.00  0.00    +0.000 NA
ATOM      5  C   UNL     1      38.126  -0.355  15.343  0.00  0.00    +0.000 A 
ATOM      6  C   UNL     1      36.905  -0.019  15.884  0.00  0.00    +0.000 A 
ATOM      7  C   UNL     1      36.257   1.149  15.606  0.00  0.00    +0.000 A 
ATOM      8  C   UNL     1      36.809   2.102  14.726  0.00  0.00    +0.000 A 
ATOM      9  C   UNL     1      36.306   3.293  14.346  0.00  0.00    +0.000 A 
ATOM     10  N   UNL     1      35.026   3.824  14.812  0.00  0.00    +0.000 NA
ATOM     11  C   UNL     1      34.950   1.401  16.257  0.00  0.00    +0.000 C 
ATOM     12  C   UNL     1      35.144   0.969  17.717  0.00  0.00    +0.000 C 
ATOM     13  C   UNL     1      35.247  -0.529  17.698  0.00  0.00    +0.000 C 
ATOM     14  C   UNL     1      36.295  -1.053  16.794  0.00  0.00    +0.000 C 
ENDROOT
BRANCH   1  16
ATOM     15  N   UNL     1      35.872   5.450  11.784  0.00  0.00    +0.000 NA
ATOM     16  C   UNL     1      36.740   5.358  12.904  0.00  0.00    +0.000 C 
ATOM     17  O   UNL     1      37.215   6.404  13.372  0.00  0.00    +0.000 OA
BRANCH  15  23
ATOM     18  C   UNL     1      34.445   7.408  11.620  0.00  0.00    +0.000 A 
ATOM     19  C   UNL     1      34.123   8.629  11.065  0.00  0.00    +0.000 A 
ATOM     20  C   UNL     1      34.921   9.162  10.082  0.00  0.00    +0.000 A 
ATOM     21  C   UNL     1      36.050   8.496   9.632  0.00  0.00    +0.000 A 
ATOM     22  C   UNL     1      36.326   7.284  10.215  0.00  0.00    +0.000 A 
ATOM     23  C   UNL     1      35.555   6.712  11.204  0.00  0.00    +0.000 A 
BRANCH  18  25
ATOM     24  C   UNL     1      33.718   7.284  13.957  0.00  0.00    +0.000 C 
ATOM     25  O   UNL     1      33.611   6.898  12.618  0.00  0.00    +0.000 OA
ENDBRANCH  18  25
ENDBRANCH  15  23
ENDBRANCH   1  16
BRANCH   5  26
ATOM     26  C   UNL     1      38.908  -1.556  15.603  0.00  0.00    +0.000 C 
BRANCH  26  27
ATOM     27  C   UNL     1      38.721  -2.725  14.754  0.00  0.00    +0.000 C 
BRANCH  27  28
ATOM     28  C   UNL     1      37.578  -3.575  15.083  0.00  0.00    +0.000 A 
ATOM     29  C   UNL     1      36.419  -3.591  14.291  0.00  0.00    +0.000 A 
ATOM     30  C   UNL     1      35.354  -4.411  14.597  0.00  0.00    +0.000 A 
ATOM     31  C   UNL     1      35.392  -5.238  15.681  0.00  0.00    +0.000 A 
ATOM     32  C   UNL     1      36.527  -5.261  16.503  0.00  0.00    +0.000 A 
ATOM     33  C   UNL     1      37.569  -4.430  16.169  0.00  0.00    +0.000 A 
ENDBRANCH  27  28
ENDBRANCH  26  27
ENDBRANCH   5  26
TORSDOF 6
ENDMDL
MODEL 6
REMARK VINA RESULT:      -7.2     17.781     21.906
REMARK  Name = 
REMARK  6 active torsions:
REMARK  status: ('A' for Active; 'I' for Inactive)
REMARK    1  A    between atoms: O_2  and  C_3
REMARK    2  A    between atoms: C_8  and  N_9
REMARK    3  A    between atoms: C_10  and  C_12
REMARK    4  A    between atoms: C_16  and  C_17
REMARK    5  A    between atoms: C_17  and  C_18
REMARK    6  A    between atoms: C_18  and  C_19
REMARK                            x       y       z     vdW  Elec       q    Type
REMARK                         _______ _______ _______ _____ _____    ______ ____
ROOT
ATOM      1  C   UNL     1      28.496  18.012  21.675  0.00  0.00    +0.000 A 
ATOM      2  S   UNL     1      27.456  16.860  20.992  0.00  0.00    +0.000 S 
ATOM      3  C   UNL     1      25.996  17.754  21.009  0.00  0.00    +0.000 A 
ATOM      4  N   UNL     1      24.717  17.482  20.615  0.00  0.00    +0.000 NA
ATOM      5  C   UNL     1      23.706  18.375  20.732  0.00  0.00    +0.000 A 
ATOM      6  C   UNL     1      24.062  19.586  21.280  0.00  0.00    +0.000 A 
ATOM      7  C   UNL     1      25.331  19.884  21.684  0.00  0.00    +0.000 A 
ATOM      8  C   UNL     1      26.378  18.948  21.559  0.00  0.00    +0.000 A 
ATOM      9  C   UNL     1      27.675  19.079  21.904  0.00  0.00    +0.000 A 
ATOM     10  N   UNL     1      28.242  20.287  22.499  0.00  0.00    +0.000 NA
ATOM     11  C   UNL     1      25.590  21.222  22.267  0.00  0.00    +0.000 C 
ATOM     12  C   UNL     1      24.411  21.475  23.216  0.00  0.00    +0.000 C 
ATOM     13  C   UNL     1      23.211  21.696  22.342  0.00  0.00    +0.000 C 
ATOM     14  C   UNL     1      22.954  20.602  21.378  0.00  0.00    +0.000 C 
ENDROOT
BRANCH   1  16
ATOM     15  N   UNL     1      30.355  17.496  23.256  0.00  0.00    +0.000 NA
ATOM     16  C   UNL     1      29.933  17.883  21.957  0.00  0.00    +0.000 C 
ATOM     17  O   UNL     1      30.797  18.100  21.094  0.00  0.00    +0.000 OA
BRANCH  15  23
ATOM     18  C   UNL     1      32.404  18.376  24.216  0.00  0.00    +0.000 A 
ATOM     19  C   UNL     1      33.745  18.264  24.521  0.00  0.00    +0.000 A 
ATOM     20  C   UNL     1      34.428  17.123  24.177  0.00  0.00    +0.000 A 
ATOM     21  C   UNL     1      33.797  16.076  23.523  0.00  0.00    +0.000 A 
ATOM     22  C   UNL     1      32.463  16.238  23.241  0.00  0.00    +0.000 A 
ATOM     23  C   UNL     1      31.738  17.363  23.568  0.00  0.00    +0.000 A 
BRANCH  18  25
ATOM     24  C   UNL     1      32.289  20.476  25.475  0.00  0.00    +0.000 C 
ATOM     25  O   UNL     1      31.741  19.550  24.583  0.00  0.00    +0.000 OA
ENDBRANCH  18  25
ENDBRANCH  15  23
ENDBRANCH   1  16
BRANCH   5  26
ATOM     26  C   UNL     1      22.379  17.954  20.304  0.00  0.00    +0.000 C 
BRANCH  26  27
ATOM     27  C   UNL     1      22.146  17.655  18.897  0.00  0.00    +0.000 C 
BRANCH  27  28
ATOM     28  C   UNL     1      20.904  18.180  18.333  0.00  0.00    +0.000 A 
ATOM     29  C   UNL     1      20.817  18.583  16.990  0.00  0.00    +0.000 A 
ATOM     30  C   UNL     1      19.636  19.058  16.461  0.00  0.00    +0.000 A 
ATOM     31  C   UNL     1      18.510  19.151  17.225  0.00  0.00    +0.000 A 
ATOM     32  C   UNL     1      18.544  18.759  18.570  0.00  0.00    +0.000 A 
ATOM     33  C   UNL     1      19.737  18.292  19.065  0.00  0.00    +0.000 A 
ENDBRANCH  27  28
ENDBRANCH  26  27
ENDBRANCH   5  26
TORSDOF 6
ENDMDL
MODEL 7
REMARK VINA RESULT:      -7.1     28.091     30.787
REMARK  Name = 
REMARK  6 active torsions:
REMARK  status: ('A' for Active; 'I' for Inactive)
REMARK    1  A    between atoms: O_2  and  C_3
REMARK    2  A    between atoms: C_8  and  N_9
REMARK    3  A    between atoms: C_10  and  C_12
REMARK    4  A    between atoms: C_16  and  C_17
REMARK    5  A    between atoms: C_17  and  C_18
REMARK    6  A    between atoms: C_18  and  C_19
REMARK                            x       y       z     vdW  Elec       q    Type
REMARK                         _______ _______ _______ _____ _____    ______ ____
ROOT
ATOM      1  C   UNL     1      10.937   1.089   8.253  0.00  0.00    +0.000 A 
ATOM      2  S   UNL     1      10.328   1.404   9.804  0.00  0.00    +0.000 S 
ATOM      3  C   UNL     1       9.669   2.962   9.537  0.00  0.00    +0.000 A 
ATOM      4  N   UNL     1       9.011   3.857  10.331  0.00  0.00    +0.000 NA
ATOM      5  C   UNL     1       8.576   5.058   9.880  0.00  0.00    +0.000 A 
ATOM      6  C   UNL     1       8.846   5.312   8.554  0.00  0.00    +0.000 A 
ATOM      7  C   UNL     1       9.502   4.436   7.740  0.00  0.00    +0.000 A 
ATOM      8  C   UNL     1       9.953   3.188   8.218  0.00  0.00    +0.000 A 
ATOM      9  C   UNL     1      10.610   2.216   7.554  0.00  0.00    +0.000 A 
ATOM     10  N   UNL     1      10.985   2.302   6.145  0.00  0.00    +0.000 NA
ATOM     11  C   UNL     1       9.740   4.827   6.330  0.00  0.00    +0.000 C 
ATOM     12  C   UNL     1      10.195   6.291   6.396  0.00  0.00    +0.000 C 
ATOM     13  C   UNL     1       8.983   7.087   6.785  0.00  0.00    +0.000 C 
ATOM     14  C   UNL     1       8.330   6.627   8.031  0.00  0.00    +0.000 C 
ENDROOT
BRANCH   1  16
ATOM     15  N   UNL     1      13.037  -0.240   8.052  0.00  0.00    +0.000 NA
ATOM     16  C   UNL     1      11.649  -0.107   7.784  0.00  0.00    +0.000 C 
ATOM     17  O   UNL     1      11.078  -1.013   7.159  0.00  0.00    +0.000 OA
BRANCH  15  23
ATOM     18  C   UNL     1      13.797  -2.523   8.378  0.00  0.00    +0.000 A 
ATOM     19  C   UNL     1      14.499  -3.637   7.966  0.00  0.00    +0.000 A 
ATOM     20  C   UNL     1      15.174  -3.612   6.771  0.00  0.00    +0.000 A 
ATOM     21  C   UNL     1      15.168  -2.485   5.964  0.00  0.00    +0.000 A 
ATOM     22  C   UNL     1      14.456  -1.403   6.420  0.00  0.00    +0.000 A 
ATOM     23  C   UNL     1      13.763  -1.383   7.611  0.00  0.00    +0.000 A 
BRANCH  18  25
ATOM     24  C   UNL     1      13.773  -2.838  10.809  0.00  0.00    +0.000 C 
ATOM     25  O   UNL     1      13.120  -2.585   9.599  0.00  0.00    +0.000 OA
ENDBRANCH  18  25
ENDBRANCH  15  23
ENDBRANCH   1  16
BRANCH   5  26
ATOM     26  C   UNL     1       7.914   5.938  10.832  0.00  0.00    +0.000 C 
BRANCH  26  27
ATOM     27  C   UNL     1       6.763   5.445  11.577  0.00  0.00    +0.000 C 
BRANCH  27  28
ATOM     28  C   UNL     1       5.511   6.170  11.367  0.00  0.00    +0.000 A 
ATOM     29  C   UNL     1       4.993   6.388  10.080  0.00  0.00    +0.000 A 
ATOM     30  C   UNL     1       3.801   7.055   9.892  0.00  0.00    +0.000 A 
ATOM     31  C   UNL     1       3.083   7.524  10.953  0.00  0.00    +0.000 A 
ATOM     32  C   UNL     1       3.556   7.331  12.257  0.00  0.00    +0.000 A 
ATOM     33  C   UNL     1       4.747   6.663  12.408  0.00  0.00    +0.000 A 
ENDBRANCH  27  28
ENDBRANCH  26  27
ENDBRANCH   5  26
TORSDOF 6
ENDMDL
MODEL 8
REMARK VINA RESULT:      -7.1      5.522      7.106
REMARK  Name = 
REMARK  6 active torsions:
REMARK  status: ('A' for Active; 'I' for Inactive)
REMARK    1  A    between atoms: O_2  and  C_3
REMARK    2  A    between atoms: C_8  and  N_9
REMARK    3  A    between atoms: C_10  and  C_12
REMARK    4  A    between atoms: C_16  and  C_17
REMARK    5  A    between atoms: C_17  and  C_18
REMARK    6  A    between atoms: C_18  and  C_19
REMARK                            x       y       z     vdW  Elec       q    Type
REMARK                         _______ _______ _______ _____ _____    ______ ____
ROOT
ATOM      1  C   UNL     1      36.398   1.320  15.005  0.00  0.00    +0.000 A 
ATOM      2  S   UNL     1      35.297   2.524  15.466  0.00  0.00    +0.000 S 
ATOM      3  C   UNL     1      35.645   3.697  14.267  0.00  0.00    +0.000 A 
ATOM      4  N   UNL     1      35.155   4.942  13.994  0.00  0.00    +0.000 NA
ATOM      5  C   UNL     1      35.601   5.697  12.963  0.00  0.00    +0.000 A 
ATOM      6  C   UNL     1      36.592   5.115  12.203  0.00  0.00    +0.000 A 
ATOM      7  C   UNL     1      37.100   3.875  12.456  0.00  0.00    +0.000 A 
ATOM      8  C   UNL     1      36.630   3.095  13.532  0.00  0.00    +0.000 A 
ATOM      9  C   UNL     1      37.019   1.863  13.916  0.00  0.00    +0.000 A 
ATOM     10  N   UNL     1      38.054   1.086  13.238  0.00  0.00    +0.000 NA
ATOM     11  C   UNL     1      38.171   3.359  11.570  0.00  0.00    +0.000 C 
ATOM     12  C   UNL     1      39.124   4.545  11.368  0.00  0.00    +0.000 C 
ATOM     13  C   UNL     1      38.390   5.527  10.502  0.00  0.00    +0.000 C 
ATOM     14  C   UNL     1      37.068   5.931  11.029  0.00  0.00    +0.000 C 
ENDROOT
BRANCH   1  16
ATOM     15  N   UNL     1      37.886  -0.261  16.233  0.00  0.00    +0.000 NA
ATOM     16  C   UNL     1      36.628   0.012  15.634  0.00  0.00    +0.000 C 
ATOM     17  O   UNL     1      35.755  -0.870  15.663  0.00  0.00    +0.000 OA
BRANCH  15  23
ATOM     18  C   UNL     1      37.896  -1.699  18.189  0.00  0.00    +0.000 A 
ATOM     19  C   UNL     1      38.148  -2.910  18.802  0.00  0.00    +0.000 A 
ATOM     20  C   UNL     1      38.657  -3.951  18.066  0.00  0.00    +0.000 A 
ATOM     21  C   UNL     1      38.926  -3.814  16.713  0.00  0.00    +0.000 A 
ATOM     22  C   UNL     1      38.659  -2.590  16.151  0.00  0.00    +0.000 A 
ATOM     23  C   UNL     1      38.148  -1.517  16.850  0.00  0.00    +0.000 A 
BRANCH  18  25
ATOM     24  C   UNL     1      36.018  -0.565  19.282  0.00  0.00    +0.000 C 
ATOM     25  O   UNL     1      37.377  -0.662  18.968  0.00  0.00    +0.000 OA
ENDBRANCH  18  25
ENDBRANCH  15  23
ENDBRANCH   1  16
BRANCH   5  26
ATOM     26  C   UNL     1      35.020   7.021  12.794  0.00  0.00    +0.000 C 
BRANCH  26  27
ATOM     27  C   UNL     1      33.867   7.187  11.919  0.00  0.00    +0.000 C 
BRANCH  27  28
ATOM     28  C   UNL     1      34.147   7.746  10.597  0.00  0.00    +0.000 A 
ATOM     29  C   UNL     1      34.660   9.043  10.438  0.00  0.00    +0.000 A 
ATOM     30  C   UNL     1      34.939   9.554   9.189  0.00  0.00    +0.000 A 
ATOM     31  C   UNL     1      34.727   8.814   8.062  0.00  0.00    +0.000 A 
ATOM     32  C   UNL     1      34.218   7.513   8.167  0.00  0.00    +0.000 A 
ATOM     33  C   UNL     1      33.950   7.036   9.427  0.00  0.00    +0.000 A 
ENDBRANCH  27  28
ENDBRANCH  26  27
ENDBRANCH   5  26
TORSDOF 6
ENDMDL
MODEL 9
REMARK VINA RESULT:      -7.1      6.290      9.230
REMARK  Name = 
REMARK  6 active torsions:
REMARK  status: ('A' for Active; 'I' for Inactive)
REMARK    1  A    between atoms: O_2  and  C_3
REMARK    2  A    between atoms: C_8  and  N_9
REMARK    3  A    between atoms: C_10  and  C_12
REMARK    4  A    between atoms: C_16  and  C_17
REMARK    5  A    between atoms: C_17  and  C_18
REMARK    6  A    between atoms: C_18  and  C_19
REMARK                            x       y       z     vdW  Elec       q    Type
REMARK                         _______ _______ _______ _____ _____    ______ ____
ROOT
ATOM      1  C   UNL     1      37.047   2.880  13.811  0.00  0.00    +0.000 A 
ATOM      2  S   UNL     1      37.601   2.482  12.259  0.00  0.00    +0.000 S 
ATOM      3  C   UNL     1      36.989   3.825  11.390  0.00  0.00    +0.000 A 
ATOM      4  N   UNL     1      37.037   4.202  10.078  0.00  0.00    +0.000 NA
ATOM      5  C   UNL     1      36.462   5.338   9.618  0.00  0.00    +0.000 A 
ATOM      6  C   UNL     1      35.823   6.093  10.576  0.00  0.00    +0.000 A 
ATOM      7  C   UNL     1      35.759   5.739  11.892  0.00  0.00    +0.000 A 
ATOM      8  C   UNL     1      36.359   4.553  12.362  0.00  0.00    +0.000 A 
ATOM      9  C   UNL     1      36.391   4.061  13.616  0.00  0.00    +0.000 A 
ATOM     10  N   UNL     1      35.770   4.718  14.765  0.00  0.00    +0.000 NA
ATOM     11  C   UNL     1      35.035   6.633  12.827  0.00  0.00    +0.000 C 
ATOM     12  C   UNL     1      33.753   7.029  12.084  0.00  0.00    +0.000 C 
ATOM     13  C   UNL     1      34.180   7.948  10.976  0.00  0.00    +0.000 C 
ATOM     14  C   UNL     1      35.215   7.381  10.083  0.00  0.00    +0.000 C 
ENDROOT
BRANCH   1  16
ATOM     15  N   UNL     1      36.268   1.145  15.424  0.00  0.00    +0.000 NA
ATOM     16  C   UNL     1      37.228   2.125  15.059  0.00  0.00    +0.000 C 
ATOM     17  O   UNL     1      38.196   2.315  15.811  0.00  0.00    +0.000 OA
BRANCH  15  23
ATOM     18  C   UNL     1      37.112  -0.784  16.634  0.00  0.00    +0.000 A 
ATOM     19  C   UNL     1      37.252  -1.523  17.791  0.00  0.00    +0.000 A 
ATOM     20  C   UNL     1      36.679  -1.076  18.956  0.00  0.00    +0.000 A 
ATOM     21  C   UNL     1      35.959   0.108  18.998  0.00  0.00    +0.000 A 
ATOM     22  C   UNL     1      35.849   0.805  17.820  0.00  0.00    +0.000 A 
ATOM     23  C   UNL     1      36.406   0.396  16.628  0.00  0.00    +0.000 A 
BRANCH  18  25
ATOM     24  C   UNL     1      38.663  -2.290  15.479  0.00  0.00    +0.000 C 
ATOM     25  O   UNL     1      37.709  -1.268  15.467  0.00  0.00    +0.000 OA
ENDBRANCH  18  25
ENDBRANCH  15  23
ENDBRANCH   1  16
BRANCH   5  26
ATOM     26  C   UNL     1      36.555   5.613   8.192  0.00  0.00    +0.000 C 
BRANCH  26  27
ATOM     27  C   UNL     1      35.838   4.760   7.253  0.00  0.00    +0.000 C 
BRANCH  27  28
ATOM     28  C   UNL     1      34.822   5.424   6.437  0.00  0.00    +0.000 A 
ATOM     29  C   UNL     1      33.984   6.418   6.968  0.00  0.00    +0.000 A 
ATOM     30  C   UNL     1      33.043   7.052   6.187  0.00  0.00    +0.000 A 
ATOM     31  C   UNL     1      32.895   6.736   4.868  0.00  0.00    +0.000 A 
ATOM     32  C   UNL     1      33.708   5.752   4.290  0.00  0.00    +0.000 A 
ATOM     33  C   UNL     1      34.634   5.139   5.098  0.00  0.00    +0.000 A 
ENDBRANCH  27  28
ENDBRANCH  26  27
ENDBRANCH   5  26
TORSDOF 6
ENDMDL
MODEL 10
REMARK VINA RESULT:      -7.1      5.386      9.646
REMARK  Name = 
REMARK  6 active torsions:
REMARK  status: ('A' for Active; 'I' for Inactive)
REMARK    1  A    between atoms: O_2  and  C_3
REMARK    2  A    between atoms: C_8  and  N_9
REMARK    3  A    between atoms: C_10  and  C_12
REMARK    4  A    between atoms: C_16  and  C_17
REMARK    5  A    between atoms: C_17  and  C_18
REMARK    6  A    between atoms: C_18  and  C_19
REMARK                            x       y       z     vdW  Elec       q    Type
REMARK                         _______ _______ _______ _____ _____    ______ ____
ROOT
ATOM      1  C   UNL     1      36.225   3.682  14.196  0.00  0.00    +0.000 A 
ATOM      2  S   UNL     1      37.161   2.715  13.164  0.00  0.00    +0.000 S 
ATOM      3  C   UNL     1      36.862   1.182  13.867  0.00  0.00    +0.000 A 
ATOM      4  N   UNL     1      37.279  -0.086  13.579  0.00  0.00    +0.000 NA
ATOM      5  C   UNL     1      36.896  -1.166  14.300  0.00  0.00    +0.000 A 
ATOM      6  C   UNL     1      36.049  -0.893  15.351  0.00  0.00    +0.000 A 
ATOM      7  C   UNL     1      35.620   0.364  15.661  0.00  0.00    +0.000 A 
ATOM      8  C   UNL     1      36.024   1.485  14.906  0.00  0.00    +0.000 A 
ATOM      9  C   UNL     1      35.696   2.781  15.075  0.00  0.00    +0.000 A 
ATOM     10  N   UNL     1      34.812   3.267  16.132  0.00  0.00    +0.000 NA
ATOM     11  C   UNL     1      34.714   0.533  16.822  0.00  0.00    +0.000 C 
ATOM     12  C   UNL     1      35.307  -0.361  17.920  0.00  0.00    +0.000 C 
ATOM     13  C   UNL     1      35.063  -1.776  17.483  0.00  0.00    +0.000 C 
ATOM     14  C   UNL     1      35.585  -2.093  16.135  0.00  0.00    +0.000 C 
ENDROOT
BRANCH   1  16
ATOM     15  N   UNL     1      34.843   5.672  13.607  0.00  0.00    +0.000 NA
ATOM     16  C   UNL     1      36.040   5.139  14.153  0.00  0.00    +0.000 C 
ATOM     17  O   UNL     1      36.898   5.927  14.580  0.00  0.00    +0.000 OA
BRANCH  15  23
ATOM     18  C   UNL     1      34.926   7.777  12.400  0.00  0.00    +0.000 A 
ATOM     19  C   UNL     1      34.728   9.141  12.326  0.00  0.00    +0.000 A 
ATOM     20  C   UNL     1      34.223   9.814  13.411  0.00  0.00    +0.000 A 
ATOM     21  C   UNL     1      33.907   9.151  14.587  0.00  0.00    +0.000 A 
ATOM     22  C   UNL     1      34.124   7.796  14.609  0.00  0.00    +0.000 A 
ATOM     23  C   UNL     1      34.628   7.079  13.545  0.00  0.00    +0.000 A 
BRANCH  18  25
ATOM     24  C   UNL     1      34.774   7.106  10.047  0.00  0.00    +0.000 C 
ATOM     25  O   UNL     1      35.440   7.125  11.276  0.00  0.00    +0.000 OA
ENDBRANCH  18  25
ENDBRANCH  15  23
ENDBRANCH   1  16
BRANCH   5  26
ATOM     26  C   UNL     1      37.434  -2.462  13.912  0.00  0.00    +0.000 C 
BRANCH  26  27
ATOM     27  C   UNL     1      38.633  -2.963  14.571  0.00  0.00    +0.000 C 
BRANCH  27  28
ATOM     28  C   UNL     1      39.903  -2.582  13.957  0.00  0.00    +0.000 A 
ATOM     29  C   UNL     1      41.058  -2.362  14.727  0.00  0.00    +0.000 A 
ATOM     30  C   UNL     1      42.256  -2.023  14.137  0.00  0.00    +0.000 A 
ATOM     31  C   UNL     1      42.362  -1.890  12.784  0.00  0.00    +0.000 A 
ATOM     32  C   UNL     1      41.240  -2.100  11.971  0.00  0.00    +0.000 A 
ATOM     33  C   UNL     1      40.061  -2.436  12.592  0.00  0.00    +0.000 A 
ENDBRANCH  27  28
ENDBRANCH  26  27
ENDBRANCH   5  26
TORSDOF 6
ENDMDL
