MODEL 1
REMARK VINA RESULT:      -8.2      0.000      0.000
REMARK  Name = 
REMARK  7 active torsions:
REMARK  status: ('A' for Active; 'I' for Inactive)
REMARK    1  A    between atoms: C_3  and  C_4
REMARK    2  A    between atoms: N_6  and  C_7
REMARK    3  A    between atoms: C_7  and  C_9
REMARK    4  A    between atoms: C_9  and  C_10
REMARK    5  A    between atoms: C_10  and  C_11
REMARK    6  A    between atoms: N_24  and  C_25
REMARK    7  A    between atoms: C_25  and  C_26
REMARK                            x       y       z     vdW  Elec       q    Type
REMARK                         _______ _______ _______ _____ _____    ______ ____
ROOT
ATOM      1  C   UNL     1      39.974   3.865  13.897  0.00  0.00    +0.000 C 
ATOM      2  C   UNL     1      38.839   3.192  14.534  0.00  0.00    +0.000 A 
ATOM      3  C   UNL     1      38.567   1.845  14.460  0.00  0.00    +0.000 A 
ATOM      4  C   UNL     1      37.400   1.640  15.210  0.00  0.00    +0.000 A 
ATOM      5  C   UNL     1      36.681   0.493  15.477  0.00  0.00    +0.000 A 
ATOM      6  C   UNL     1      35.552   0.548  16.253  0.00  0.00    +0.000 A 
ATOM      7  O   UNL     1      34.797  -0.608  16.540  0.00  0.00    +0.000 OA
ATOM      8  C   UNL     1      35.170   1.775  16.747  0.00  0.00    +0.000 A 
ATOM      9  C   UNL     1      35.895   2.911  16.474  0.00  0.00    +0.000 A 
ATOM     10  C   UNL     1      37.048   2.876  15.687  0.00  0.00    +0.000 A 
ATOM     11  N   UNL     1      37.918   3.829  15.279  0.00  0.00    +0.000 N 
ENDROOT
BRANCH   3  12
ATOM     12  C   UNL     1      39.318   0.799  13.759  0.00  0.00    +0.000 C 
ATOM     13  O   UNL     1      38.941   0.421  12.623  0.00  0.00    +0.000 OA
ATOM     14  N   UNL     1      40.458   0.238  14.390  0.00  0.00    +0.000 NA
BRANCH  14  15
ATOM     15  C   UNL     1      41.211  -0.874  13.570  0.00  0.00    +0.000 C 
ATOM     16  C   UNL     1      42.696  -0.427  14.135  0.00  0.00    +0.000 C 
BRANCH  15  17
ATOM     17  C   UNL     1      41.020  -2.009  14.754  0.00  0.00    +0.000 C 
BRANCH  17  18
ATOM     18  C   UNL     1      39.701  -2.646  14.359  0.00  0.00    +0.000 C 
BRANCH  18  19
ATOM     19  C   UNL     1      38.777  -2.750  15.497  0.00  0.00    +0.000 A 
ATOM     20  C   UNL     1      39.033  -2.038  16.630  0.00  0.00    +0.000 A 
ATOM     21  C   UNL     1      38.194  -2.109  17.709  0.00  0.00    +0.000 A 
ATOM     22  C   UNL     1      37.077  -2.901  17.669  0.00  0.00    +0.000 A 
ATOM     23  C   UNL     1      36.822  -3.622  16.518  0.00  0.00    +0.000 A 
ATOM     24  C   UNL     1      37.659  -3.549  15.445  0.00  0.00    +0.000 A 
ENDBRANCH  18  19
ENDBRANCH  17  18
ENDBRANCH  15  17
ENDBRANCH  14  15
ENDBRANCH   3  12
BRANCH  11  25
ATOM     25  C   UNL     1      37.764   5.186  15.653  0.00  0.00    +0.000 C 
BRANCH  25  26
ATOM     26  C   UNL     1      38.251   5.655  16.908  0.00  0.00    +0.000 A 
ATOM     27  C   UNL     1      39.043   4.892  17.710  0.00  0.00    +0.000 A 
ATOM     28  C   UNL     1      39.490   5.391  18.927  0.00  0.00    +0.000 A 
ATOM     29  C   UNL     1      39.137   6.668  19.343  0.00  0.00    +0.000 A 
ATOM     30  C   UNL     1      38.336   7.447  18.537  0.00  0.00    +0.000 A 
ATOM     31  C   UNL     1      37.924   6.907  17.346  0.00  0.00    +0.000 A 
ATOM     32  O   UNL     1      38.103   8.694  19.143  0.00  0.00    +0.000 OA
ATOM     33  C   UNL     1      38.496   8.549  20.514  0.00  0.00    +0.000 C 
ATOM     34  O   UNL     1      39.411   7.440  20.473  0.00  0.00    +0.000 OA
ENDBRANCH  25  26
ENDBRANCH  11  25
TORSDOF 7
ENDMDL
MODEL 2
REMARK VINA RESULT:      -7.9      2.898      8.457
REMARK  Name = 
REMARK  7 active torsions:
REMARK  status: ('A' for Active; 'I' for Inactive)
REMARK    1  A    between atoms: C_3  and  C_4
REMARK    2  A    between atoms: N_6  and  C_7
REMARK    3  A    between atoms: C_7  and  C_9
REMARK    4  A    between atoms: C_9  and  C_10
REMARK    5  A    between atoms: C_10  and  C_11
REMARK    6  A    between atoms: N_24  and  C_25
REMARK    7  A    between atoms: C_25  and  C_26
REMARK                            x       y       z     vdW  Elec       q    Type
REMARK                         _______ _______ _______ _____ _____    ______ ____
ROOT
ATOM      1  C   UNL     1      38.874   4.485  16.174  0.00  0.00    +0.000 C 
ATOM      2  C   UNL     1      37.831   5.302  15.549  0.00  0.00    +0.000 A 
ATOM      3  C   UNL     1      37.623   6.643  15.779  0.00  0.00    +0.000 A 
ATOM      4  C   UNL     1      36.534   7.013  14.978  0.00  0.00    +0.000 A 
ATOM      5  C   UNL     1      35.898   8.227  14.813  0.00  0.00    +0.000 A 
ATOM      6  C   UNL     1      34.834   8.341  13.955  0.00  0.00    +0.000 A 
ATOM      7  O   UNL     1      34.166   9.568  13.768  0.00  0.00    +0.000 OA
ATOM      8  C   UNL     1      34.432   7.211  13.276  0.00  0.00    +0.000 A 
ATOM      9  C   UNL     1      35.074   6.008  13.450  0.00  0.00    +0.000 A 
ATOM     10  C   UNL     1      36.159   5.872  14.319  0.00  0.00    +0.000 A 
ATOM     11  N   UNL     1      36.943   4.823  14.660  0.00  0.00    +0.000 N 
ENDROOT
BRANCH   3  12
ATOM     12  C   UNL     1      38.367   7.544  16.666  0.00  0.00    +0.000 C 
ATOM     13  O   UNL     1      39.194   8.351  16.179  0.00  0.00    +0.000 OA
ATOM     14  N   UNL     1      38.128   7.476  18.063  0.00  0.00    +0.000 NA
BRANCH  14  15
ATOM     15  C   UNL     1      38.959   8.478  18.946  0.00  0.00    +0.000 C 
ATOM     16  C   UNL     1      37.617   9.134  19.647  0.00  0.00    +0.000 C 
BRANCH  15  17
ATOM     17  C   UNL     1      39.155   7.386  20.169  0.00  0.00    +0.000 C 
BRANCH  17  18
ATOM     18  C   UNL     1      39.810   6.226  19.442  0.00  0.00    +0.000 C 
BRANCH  18  19
ATOM     19  C   UNL     1      41.252   6.438  19.252  0.00  0.00    +0.000 A 
ATOM     20  C   UNL     1      42.061   6.531  20.344  0.00  0.00    +0.000 A 
ATOM     21  C   UNL     1      43.408   6.727  20.206  0.00  0.00    +0.000 A 
ATOM     22  C   UNL     1      43.969   6.834  18.961  0.00  0.00    +0.000 A 
ATOM     23  C   UNL     1      43.146   6.740  17.856  0.00  0.00    +0.000 A 
ATOM     24  C   UNL     1      41.804   6.544  17.997  0.00  0.00    +0.000 A 
ENDBRANCH  18  19
ENDBRANCH  17  18
ENDBRANCH  15  17
ENDBRANCH  14  15
ENDBRANCH   3  12
BRANCH  11  25
ATOM     25  C   UNL     1      36.750   3.537  14.101  0.00  0.00    +0.000 C 
BRANCH  25  26
ATOM     26  C   UNL     1      36.198   2.479  14.881  0.00  0.00    +0.000 A 
ATOM     27  C   UNL     1      35.373   2.712  15.939  0.00  0.00    +0.000 A 
ATOM     28  C   UNL     1      34.863   1.648  16.673  0.00  0.00    +0.000 A 
ATOM     29  C   UNL     1      35.186   0.339  16.342  0.00  0.00    +0.000 A 
ATOM     30  C   UNL     1      36.021   0.094  15.273  0.00  0.00    +0.000 A 
ATOM     31  C   UNL     1      36.495   1.180  14.583  0.00  0.00    +0.000 A 
ATOM     32  O   UNL     1      36.215  -1.289  15.115  0.00  0.00    +0.000 OA
ATOM     33  C   UNL     1      35.757  -1.897  16.330  0.00  0.00    +0.000 C 
ATOM     34  O   UNL     1      34.852  -0.913  16.862  0.00  0.00    +0.000 OA
ENDBRANCH  25  26
ENDBRANCH  11  25
TORSDOF 7
ENDMDL
MODEL 3
REMARK VINA RESULT:      -7.8      3.063      8.422
REMARK  Name = 
REMARK  7 active torsions:
REMARK  status: ('A' for Active; 'I' for Inactive)
REMARK    1  A    between atoms: C_3  and  C_4
REMARK    2  A    between atoms: N_6  and  C_7
REMARK    3  A    between atoms: C_7  and  C_9
REMARK    4  A    between atoms: C_9  and  C_10
REMARK    5  A    between atoms: C_10  and  C_11
REMARK    6  A    between atoms: N_24  and  C_25
REMARK    7  A    between atoms: C_25  and  C_26
REMARK                            x       y       z     vdW  Elec       q    Type
REMARK                         _______ _______ _______ _____ _____    ______ ____
ROOT
ATOM      1  C   UNL     1      41.335   1.441  12.870  0.00  0.00    +0.000 C 
ATOM      2  C   UNL     1      40.727   0.417  13.723  0.00  0.00    +0.000 A 
ATOM      3  C   UNL     1      39.539   0.549  14.405  0.00  0.00    +0.000 A 
ATOM      4  C   UNL     1      39.341  -0.662  15.084  0.00  0.00    +0.000 A 
ATOM      5  C   UNL     1      38.323  -1.081  15.916  0.00  0.00    +0.000 A 
ATOM      6  C   UNL     1      38.354  -2.335  16.471  0.00  0.00    +0.000 A 
ATOM      7  O   UNL     1      37.327  -2.789  17.324  0.00  0.00    +0.000 OA
ATOM      8  C   UNL     1      39.426  -3.145  16.170  0.00  0.00    +0.000 A 
ATOM      9  C   UNL     1      40.435  -2.715  15.340  0.00  0.00    +0.000 A 
ATOM     10  C   UNL     1      40.422  -1.442  14.765  0.00  0.00    +0.000 A 
ATOM     11  N   UNL     1      41.272  -0.794  13.936  0.00  0.00    +0.000 N 
ENDROOT
BRANCH   3  12
ATOM     12  C   UNL     1      38.629   1.698  14.440  0.00  0.00    +0.000 C 
ATOM     13  O   UNL     1      37.869   1.918  13.466  0.00  0.00    +0.000 OA
ATOM     14  N   UNL     1      38.633   2.537  15.585  0.00  0.00    +0.000 NA
BRANCH  14  15
ATOM     15  C   UNL     1      37.624   3.744  15.548  0.00  0.00    +0.000 C 
ATOM     16  C   UNL     1      36.420   2.891  16.287  0.00  0.00    +0.000 C 
BRANCH  15  17
ATOM     17  C   UNL     1      38.166   4.362  16.980  0.00  0.00    +0.000 C 
BRANCH  17  18
ATOM     18  C   UNL     1      39.272   5.291  16.515  0.00  0.00    +0.000 C 
BRANCH  18  19
ATOM     19  C   UNL     1      40.068   5.806  17.637  0.00  0.00    +0.000 A 
ATOM     20  C   UNL     1      41.342   6.233  17.408  0.00  0.00    +0.000 A 
ATOM     21  C   UNL     1      42.114   6.720  18.428  0.00  0.00    +0.000 A 
ATOM     22  C   UNL     1      41.616   6.787  19.703  0.00  0.00    +0.000 A 
ATOM     23  C   UNL     1      40.325   6.353  19.931  0.00  0.00    +0.000 A 
ATOM     24  C   UNL     1      39.559   5.869  18.913  0.00  0.00    +0.000 A 
ENDBRANCH  18  19
ENDBRANCH  17  18
ENDBRANCH  15  17
ENDBRANCH  14  15
ENDBRANCH   3  12
BRANCH  11  25
ATOM     25  C   UNL     1      42.459  -1.404  13.464  0.00  0.00    +0.000 C 
BRANCH  25  26
ATOM     26  C   UNL     1      43.659  -1.354  14.233  0.00  0.00    +0.000 A 
ATOM     27  C   UNL     1      43.994  -0.270  14.986  0.00  0.00    +0.000 A 
ATOM     28  C   UNL     1      45.177  -0.266  15.715  0.00  0.00    +0.000 A 
ATOM     29  C   UNL     1      46.030  -1.360  15.687  0.00  0.00    +0.000 A 
ATOM     30  C   UNL     1      45.699  -2.462  14.928  0.00  0.00    +0.000 A 
ATOM     31  C   UNL     1      44.521  -2.414  14.228  0.00  0.00    +0.000 A 
ATOM     32  O   UNL     1      46.695  -3.448  15.042  0.00  0.00    +0.000 OA
ATOM     33  C   UNL     1      47.834  -2.798  15.620  0.00  0.00    +0.000 C 
ATOM     34  O   UNL     1      47.255  -1.663  16.287  0.00  0.00    +0.000 OA
ENDBRANCH  25  26
ENDBRANCH  11  25
TORSDOF 7
ENDMDL
MODEL 4
REMARK VINA RESULT:      -7.8      2.858      8.253
REMARK  Name = 
REMARK  7 active torsions:
REMARK  status: ('A' for Active; 'I' for Inactive)
REMARK    1  A    between atoms: C_3  and  C_4
REMARK    2  A    between atoms: N_6  and  C_7
REMARK    3  A    between atoms: C_7  and  C_9
REMARK    4  A    between atoms: C_9  and  C_10
REMARK    5  A    between atoms: C_10  and  C_11
REMARK    6  A    between atoms: N_24  and  C_25
REMARK    7  A    between atoms: C_25  and  C_26
REMARK                            x       y       z     vdW  Elec       q    Type
REMARK                         _______ _______ _______ _____ _____    ______ ____
ROOT
ATOM      1  C   UNL     1      39.386  -0.161  12.449  0.00  0.00    +0.000 C 
ATOM      2  C   UNL     1      39.161  -0.806  13.745  0.00  0.00    +0.000 A 
ATOM      3  C   UNL     1      38.354  -0.321  14.748  0.00  0.00    +0.000 A 
ATOM      4  C   UNL     1      38.431  -1.249  15.796  0.00  0.00    +0.000 A 
ATOM      5  C   UNL     1      37.830  -1.269  17.039  0.00  0.00    +0.000 A 
ATOM      6  C   UNL     1      38.065  -2.306  17.905  0.00  0.00    +0.000 A 
ATOM      7  O   UNL     1      37.466  -2.352  19.180  0.00  0.00    +0.000 OA
ATOM      8  C   UNL     1      38.911  -3.311  17.491  0.00  0.00    +0.000 A 
ATOM      9  C   UNL     1      39.504  -3.279  16.250  0.00  0.00    +0.000 A 
ATOM     10  C   UNL     1      39.277  -2.232  15.354  0.00  0.00    +0.000 A 
ATOM     11  N   UNL     1      39.729  -1.972  14.105  0.00  0.00    +0.000 N 
ENDROOT
BRANCH   3  12
ATOM     12  C   UNL     1      37.553   0.908  14.762  0.00  0.00    +0.000 C 
ATOM     13  O   UNL     1      36.404   0.905  14.259  0.00  0.00    +0.000 OA
ATOM     14  N   UNL     1      38.106   2.075  15.350  0.00  0.00    +0.000 NA
BRANCH  14  15
ATOM     15  C   UNL     1      37.182   3.349  15.331  0.00  0.00    +0.000 C 
ATOM     16  C   UNL     1      36.775   3.202  16.924  0.00  0.00    +0.000 C 
BRANCH  15  17
ATOM     17  C   UNL     1      38.431   4.375  15.669  0.00  0.00    +0.000 C 
BRANCH  17  18
ATOM     18  C   UNL     1      38.254   4.596  17.159  0.00  0.00    +0.000 C 
BRANCH  18  19
ATOM     19  C   UNL     1      39.364   5.365  17.739  0.00  0.00    +0.000 A 
ATOM     20  C   UNL     1      39.321   5.702  19.058  0.00  0.00    +0.000 A 
ATOM     21  C   UNL     1      40.337   6.417  19.634  0.00  0.00    +0.000 A 
ATOM     22  C   UNL     1      41.419   6.807  18.889  0.00  0.00    +0.000 A 
ATOM     23  C   UNL     1      41.458   6.464  17.551  0.00  0.00    +0.000 A 
ATOM     24  C   UNL     1      40.445   5.752  16.982  0.00  0.00    +0.000 A 
ENDBRANCH  18  19
ENDBRANCH  17  18
ENDBRANCH  15  17
ENDBRANCH  14  15
ENDBRANCH   3  12
BRANCH  11  25
ATOM     25  C   UNL     1      40.613  -2.851  13.435  0.00  0.00    +0.000 C 
BRANCH  25  26
ATOM     26  C   UNL     1      42.020  -2.625  13.460  0.00  0.00    +0.000 A 
ATOM     27  C   UNL     1      42.858  -3.163  12.531  0.00  0.00    +0.000 A 
ATOM     28  C   UNL     1      44.224  -2.919  12.600  0.00  0.00    +0.000 A 
ATOM     29  C   UNL     1      44.753  -2.127  13.610  0.00  0.00    +0.000 A 
ATOM     30  C   UNL     1      43.912  -1.578  14.554  0.00  0.00    +0.000 A 
ATOM     31  C   UNL     1      42.573  -1.851  14.440  0.00  0.00    +0.000 A 
ATOM     32  O   UNL     1      44.650  -0.817  15.479  0.00  0.00    +0.000 OA
ATOM     33  C   UNL     1      46.023  -1.187  15.292  0.00  0.00    +0.000 C 
ATOM     34  O   UNL     1      46.040  -1.702  13.949  0.00  0.00    +0.000 OA
ENDBRANCH  25  26
ENDBRANCH  11  25
TORSDOF 7
ENDMDL
MODEL 5
REMARK VINA RESULT:      -7.8      2.775      8.657
REMARK  Name = 
REMARK  7 active torsions:
REMARK  status: ('A' for Active; 'I' for Inactive)
REMARK    1  A    between atoms: C_3  and  C_4
REMARK    2  A    between atoms: N_6  and  C_7
REMARK    3  A    between atoms: C_7  and  C_9
REMARK    4  A    between atoms: C_9  and  C_10
REMARK    5  A    between atoms: C_10  and  C_11
REMARK    6  A    between atoms: N_24  and  C_25
REMARK    7  A    between atoms: C_25  and  C_26
REMARK                            x       y       z     vdW  Elec       q    Type
REMARK                         _______ _______ _______ _____ _____    ______ ____
ROOT
ATOM      1  C   UNL     1      35.560   1.265  16.050  0.00  0.00    +0.000 C 
ATOM      2  C   UNL     1      36.852   0.720  15.626  0.00  0.00    +0.000 A 
ATOM      3  C   UNL     1      37.707   1.307  14.721  0.00  0.00    +0.000 A 
ATOM      4  C   UNL     1      38.814   0.453  14.618  0.00  0.00    +0.000 A 
ATOM      5  C   UNL     1      39.964   0.543  13.860  0.00  0.00    +0.000 A 
ATOM      6  C   UNL     1      40.921  -0.436  13.933  0.00  0.00    +0.000 A 
ATOM      7  O   UNL     1      42.104  -0.370  13.170  0.00  0.00    +0.000 OA
ATOM      8  C   UNL     1      40.690  -1.498  14.779  0.00  0.00    +0.000 A 
ATOM      9  C   UNL     1      39.540  -1.577  15.528  0.00  0.00    +0.000 A 
ATOM     10  C   UNL     1      38.554  -0.589  15.468  0.00  0.00    +0.000 A 
ATOM     11  N   UNL     1      37.361  -0.437  16.088  0.00  0.00    +0.000 N 
ENDROOT
BRANCH   3  12
ATOM     12  C   UNL     1      37.539   2.569  13.992  0.00  0.00    +0.000 C 
ATOM     13  O   UNL     1      37.245   2.546  12.773  0.00  0.00    +0.000 OA
ATOM     14  N   UNL     1      37.717   3.790  14.692  0.00  0.00    +0.000 NA
BRANCH  14  15
ATOM     15  C   UNL     1      37.515   5.098  13.842  0.00  0.00    +0.000 C 
ATOM     16  C   UNL     1      35.949   5.292  14.326  0.00  0.00    +0.000 C 
BRANCH  15  17
ATOM     17  C   UNL     1      38.086   6.078  15.041  0.00  0.00    +0.000 C 
BRANCH  17  18
ATOM     18  C   UNL     1      39.387   5.389  15.408  0.00  0.00    +0.000 C 
BRANCH  18  19
ATOM     19  C   UNL     1      39.811   5.706  16.779  0.00  0.00    +0.000 A 
ATOM     20  C   UNL     1      41.067   6.191  16.991  0.00  0.00    +0.000 A 
ATOM     21  C   UNL     1      41.497   6.498  18.254  0.00  0.00    +0.000 A 
ATOM     22  C   UNL     1      40.670   6.321  19.331  0.00  0.00    +0.000 A 
ATOM     23  C   UNL     1      39.398   5.828  19.111  0.00  0.00    +0.000 A 
ATOM     24  C   UNL     1      38.972   5.524  17.853  0.00  0.00    +0.000 A 
ENDBRANCH  18  19
ENDBRANCH  17  18
ENDBRANCH  15  17
ENDBRANCH  14  15
ENDBRANCH   3  12
BRANCH  11  25
ATOM     25  C   UNL     1      36.879  -1.387  17.020  0.00  0.00    +0.000 C 
BRANCH  25  26
ATOM     26  C   UNL     1      36.413  -2.662  16.584  0.00  0.00    +0.000 A 
ATOM     27  C   UNL     1      37.069  -3.816  16.884  0.00  0.00    +0.000 A 
ATOM     28  C   UNL     1      36.578  -5.035  16.433  0.00  0.00    +0.000 A 
ATOM     29  C   UNL     1      35.418  -5.095  15.673  0.00  0.00    +0.000 A 
ATOM     30  C   UNL     1      34.747  -3.931  15.365  0.00  0.00    +0.000 A 
ATOM     31  C   UNL     1      35.274  -2.756  15.836  0.00  0.00    +0.000 A 
ATOM     32  O   UNL     1      33.607  -4.217  14.593  0.00  0.00    +0.000 OA
ATOM     33  C   UNL     1      33.768  -5.564  14.130  0.00  0.00    +0.000 C 
ATOM     34  O   UNL     1      34.685  -6.128  15.085  0.00  0.00    +0.000 OA
ENDBRANCH  25  26
ENDBRANCH  11  25
TORSDOF 7
ENDMDL
MODEL 6
REMARK VINA RESULT:      -7.7      2.870      9.116
REMARK  Name = 
REMARK  7 active torsions:
REMARK  status: ('A' for Active; 'I' for Inactive)
REMARK    1  A    between atoms: C_3  and  C_4
REMARK    2  A    between atoms: N_6  and  C_7
REMARK    3  A    between atoms: C_7  and  C_9
REMARK    4  A    between atoms: C_9  and  C_10
REMARK    5  A    between atoms: C_10  and  C_11
REMARK    6  A    between atoms: N_24  and  C_25
REMARK    7  A    between atoms: C_25  and  C_26
REMARK                            x       y       z     vdW  Elec       q    Type
REMARK                         _______ _______ _______ _____ _____    ______ ____
ROOT
ATOM      1  C   UNL     1      40.967   1.085  13.534  0.00  0.00    +0.000 C 
ATOM      2  C   UNL     1      40.258   0.066  14.312  0.00  0.00    +0.000 A 
ATOM      3  C   UNL     1      38.978   0.185  14.803  0.00  0.00    +0.000 A 
ATOM      4  C   UNL     1      38.704  -1.015  15.475  0.00  0.00    +0.000 A 
ATOM      5  C   UNL     1      37.580  -1.440  16.154  0.00  0.00    +0.000 A 
ATOM      6  C   UNL     1      37.552  -2.680  16.739  0.00  0.00    +0.000 A 
ATOM      7  O   UNL     1      36.417  -3.140  17.439  0.00  0.00    +0.000 OA
ATOM      8  C   UNL     1      38.674  -3.471  16.624  0.00  0.00    +0.000 A 
ATOM      9  C   UNL     1      39.788  -3.035  15.946  0.00  0.00    +0.000 A 
ATOM     10  C   UNL     1      39.836  -1.776  15.343  0.00  0.00    +0.000 A 
ATOM     11  N   UNL     1      40.789  -1.127  14.636  0.00  0.00    +0.000 N 
ENDROOT
BRANCH   3  12
ATOM     12  C   UNL     1      38.050   1.312  14.671  0.00  0.00    +0.000 C 
ATOM     13  O   UNL     1      37.380   1.445  13.618  0.00  0.00    +0.000 OA
ATOM     14  N   UNL     1      37.934   2.230  15.747  0.00  0.00    +0.000 NA
BRANCH  14  15
ATOM     15  C   UNL     1      36.913   3.408  15.530  0.00  0.00    +0.000 C 
ATOM     16  C   UNL     1      35.737   2.690  16.438  0.00  0.00    +0.000 C 
BRANCH  15  17
ATOM     17  C   UNL     1      37.487   4.267  16.818  0.00  0.00    +0.000 C 
BRANCH  17  18
ATOM     18  C   UNL     1      38.926   4.514  16.406  0.00  0.00    +0.000 C 
BRANCH  18  19
ATOM     19  C   UNL     1      39.647   5.338  17.386  0.00  0.00    +0.000 A 
ATOM     20  C   UNL     1      40.773   6.001  16.998  0.00  0.00    +0.000 A 
ATOM     21  C   UNL     1      41.470   6.779  17.883  0.00  0.00    +0.000 A 
ATOM     22  C   UNL     1      41.047   6.903  19.180  0.00  0.00    +0.000 A 
ATOM     23  C   UNL     1      39.906   6.228  19.570  0.00  0.00    +0.000 A 
ATOM     24  C   UNL     1      39.213   5.455  18.686  0.00  0.00    +0.000 A 
ENDBRANCH  18  19
ENDBRANCH  17  18
ENDBRANCH  15  17
ENDBRANCH  14  15
ENDBRANCH   3  12
BRANCH  11  25
ATOM     25  C   UNL     1      42.046  -1.718  14.364  0.00  0.00    +0.000 C 
BRANCH  25  26
ATOM     26  C   UNL     1      42.266  -2.435  13.151  0.00  0.00    +0.000 A 
ATOM     27  C   UNL     1      41.272  -2.649  12.245  0.00  0.00    +0.000 A 
ATOM     28  C   UNL     1      41.534  -3.358  11.079  0.00  0.00    +0.000 A 
ATOM     29  C   UNL     1      42.803  -3.856  10.821  0.00  0.00    +0.000 A 
ATOM     30  C   UNL     1      43.815  -3.643  11.733  0.00  0.00    +0.000 A 
ATOM     31  C   UNL     1      43.503  -2.937  12.866  0.00  0.00    +0.000 A 
ATOM     32  O   UNL     1      45.010  -4.227  11.278  0.00  0.00    +0.000 OA
ATOM     33  C   UNL     1      44.639  -5.115  10.215  0.00  0.00    +0.000 C 
ATOM     34  O   UNL     1      43.376  -4.586   9.777  0.00  0.00    +0.000 OA
ENDBRANCH  25  26
ENDBRANCH  11  25
TORSDOF 7
ENDMDL
MODEL 7
REMARK VINA RESULT:      -7.5      3.499      4.598
REMARK  Name = 
REMARK  7 active torsions:
REMARK  status: ('A' for Active; 'I' for Inactive)
REMARK    1  A    between atoms: C_3  and  C_4
REMARK    2  A    between atoms: N_6  and  C_7
REMARK    3  A    between atoms: C_7  and  C_9
REMARK    4  A    between atoms: C_9  and  C_10
REMARK    5  A    between atoms: C_10  and  C_11
REMARK    6  A    between atoms: N_24  and  C_25
REMARK    7  A    between atoms: C_25  and  C_26
REMARK                            x       y       z     vdW  Elec       q    Type
REMARK                         _______ _______ _______ _____ _____    ______ ____
ROOT
ATOM      1  C   UNL     1      38.696   3.497  12.410  0.00  0.00    +0.000 C 
ATOM      2  C   UNL     1      37.781   2.923  13.400  0.00  0.00    +0.000 A 
ATOM      3  C   UNL     1      37.628   1.581  13.661  0.00  0.00    +0.000 A 
ATOM      4  C   UNL     1      36.660   1.486  14.671  0.00  0.00    +0.000 A 
ATOM      5  C   UNL     1      36.120   0.390  15.313  0.00  0.00    +0.000 A 
ATOM      6  C   UNL     1      35.169   0.557  16.287  0.00  0.00    +0.000 A 
ATOM      7  O   UNL     1      34.601  -0.545  16.958  0.00  0.00    +0.000 OA
ATOM      8  C   UNL     1      34.780   1.842  16.593  0.00  0.00    +0.000 A 
ATOM      9  C   UNL     1      35.326   2.926  15.946  0.00  0.00    +0.000 A 
ATOM     10  C   UNL     1      36.296   2.777  14.952  0.00  0.00    +0.000 A 
ATOM     11  N   UNL     1      36.972   3.661  14.182  0.00  0.00    +0.000 N 
ENDROOT
BRANCH   3  12
ATOM     12  C   UNL     1      38.319   0.445  13.041  0.00  0.00    +0.000 C 
ATOM     13  O   UNL     1      37.974   0.058  11.899  0.00  0.00    +0.000 OA
ATOM     14  N   UNL     1      39.367  -0.190  13.757  0.00  0.00    +0.000 NA
BRANCH  14  15
ATOM     15  C   UNL     1      40.060  -1.395  13.022  0.00  0.00    +0.000 C 
ATOM     16  C   UNL     1      41.467  -0.568  12.777  0.00  0.00    +0.000 C 
BRANCH  15  17
ATOM     17  C   UNL     1      40.610  -2.060  14.430  0.00  0.00    +0.000 C 
BRANCH  17  18
ATOM     18  C   UNL     1      39.504  -1.685  15.399  0.00  0.00    +0.000 C 
BRANCH  18  19
ATOM     19  C   UNL     1      38.697  -2.848  15.791  0.00  0.00    +0.000 A 
ATOM     20  C   UNL     1      39.090  -3.602  16.856  0.00  0.00    +0.000 A 
ATOM     21  C   UNL     1      38.362  -4.693  17.252  0.00  0.00    +0.000 A 
ATOM     22  C   UNL     1      37.222  -5.046  16.580  0.00  0.00    +0.000 A 
ATOM     23  C   UNL     1      36.828  -4.280  15.501  0.00  0.00    +0.000 A 
ATOM     24  C   UNL     1      37.553  -3.195  15.110  0.00  0.00    +0.000 A 
ENDBRANCH  18  19
ENDBRANCH  17  18
ENDBRANCH  15  17
ENDBRANCH  14  15
ENDBRANCH   3  12
BRANCH  11  25
ATOM     25  C   UNL     1      36.768   5.057  14.297  0.00  0.00    +0.000 C 
BRANCH  25  26
ATOM     26  C   UNL     1      35.807   5.721  13.480  0.00  0.00    +0.000 A 
ATOM     27  C   UNL     1      34.620   6.169  13.974  0.00  0.00    +0.000 A 
ATOM     28  C   UNL     1      33.712   6.807  13.137  0.00  0.00    +0.000 A 
ATOM     29  C   UNL     1      34.000   6.997  11.793  0.00  0.00    +0.000 A 
ATOM     30  C   UNL     1      35.200   6.547  11.285  0.00  0.00    +0.000 A 
ATOM     31  C   UNL     1      36.059   5.925  12.154  0.00  0.00    +0.000 A 
ATOM     32  O   UNL     1      35.287   6.841   9.912  0.00  0.00    +0.000 OA
ATOM     33  C   UNL     1      33.958   7.179   9.493  0.00  0.00    +0.000 C 
ATOM     34  O   UNL     1      33.324   7.582  10.720  0.00  0.00    +0.000 OA
ENDBRANCH  25  26
ENDBRANCH  11  25
TORSDOF 7
ENDMDL
MODEL 8
REMARK VINA RESULT:      -7.3     23.807     27.769
REMARK  Name = 
REMARK  7 active torsions:
REMARK  status: ('A' for Active; 'I' for Inactive)
REMARK    1  A    between atoms: C_3  and  C_4
REMARK    2  A    between atoms: N_6  and  C_7
REMARK    3  A    between atoms: C_7  and  C_9
REMARK    4  A    between atoms: C_9  and  C_10
REMARK    5  A    between atoms: C_10  and  C_11
REMARK    6  A    between atoms: N_24  and  C_25
REMARK    7  A    between atoms: C_25  and  C_26
REMARK                            x       y       z     vdW  Elec       q    Type
REMARK                         _______ _______ _______ _____ _____    ______ ____
ROOT
ATOM      1  C   UNL     1      29.184  15.389  40.005  0.00  0.00    +0.000 C 
ATOM      2  C   UNL     1      28.849  13.988  40.270  0.00  0.00    +0.000 A 
ATOM      3  C   UNL     1      27.577  13.464  40.299  0.00  0.00    +0.000 A 
ATOM      4  C   UNL     1      27.722  12.099  40.584  0.00  0.00    +0.000 A 
ATOM      5  C   UNL     1      26.784  11.097  40.731  0.00  0.00    +0.000 A 
ATOM      6  C   UNL     1      27.180   9.814  41.013  0.00  0.00    +0.000 A 
ATOM      7  O   UNL     1      26.244   8.771  41.170  0.00  0.00    +0.000 OA
ATOM      8  C   UNL     1      28.530   9.572  41.142  0.00  0.00    +0.000 A 
ATOM      9  C   UNL     1      29.454  10.579  40.994  0.00  0.00    +0.000 A 
ATOM     10  C   UNL     1      29.071  11.891  40.706  0.00  0.00    +0.000 A 
ATOM     11  N   UNL     1      29.767  13.036  40.517  0.00  0.00    +0.000 N 
ENDROOT
BRANCH   3  12
ATOM     12  C   UNL     1      26.300  14.152  40.077  0.00  0.00    +0.000 C 
ATOM     13  O   UNL     1      25.344  13.952  40.864  0.00  0.00    +0.000 OA
ATOM     14  N   UNL     1      26.182  15.031  38.970  0.00  0.00    +0.000 NA
BRANCH  14  15
ATOM     15  C   UNL     1      24.785  15.734  38.804  0.00  0.00    +0.000 C 
ATOM     16  C   UNL     1      25.188  16.994  39.791  0.00  0.00    +0.000 C 
BRANCH  15  17
ATOM     17  C   UNL     1      25.251  16.551  37.447  0.00  0.00    +0.000 C 
BRANCH  17  18
ATOM     18  C   UNL     1      25.908  15.450  36.636  0.00  0.00    +0.000 C 
BRANCH  18  19
ATOM     19  C   UNL     1      25.632  15.584  35.199  0.00  0.00    +0.000 A 
ATOM     20  C   UNL     1      25.862  14.523  34.376  0.00  0.00    +0.000 A 
ATOM     21  C   UNL     1      25.617  14.610  33.032  0.00  0.00    +0.000 A 
ATOM     22  C   UNL     1      25.134  15.771  32.489  0.00  0.00    +0.000 A 
ATOM     23  C   UNL     1      24.904  16.845  33.327  0.00  0.00    +0.000 A 
ATOM     24  C   UNL     1      25.148  16.755  34.665  0.00  0.00    +0.000 A 
ENDBRANCH  18  19
ENDBRANCH  17  18
ENDBRANCH  15  17
ENDBRANCH  14  15
ENDBRANCH   3  12
BRANCH  11  25
ATOM     25  C   UNL     1      31.180  13.068  40.588  0.00  0.00    +0.000 C 
BRANCH  25  26
ATOM     26  C   UNL     1      31.974  12.630  39.488  0.00  0.00    +0.000 A 
ATOM     27  C   UNL     1      31.496  12.604  38.213  0.00  0.00    +0.000 A 
ATOM     28  C   UNL     1      32.306  12.165  37.173  0.00  0.00    +0.000 A 
ATOM     29  C   UNL     1      33.608  11.748  37.416  0.00  0.00    +0.000 A 
ATOM     30  C   UNL     1      34.100  11.772  38.703  0.00  0.00    +0.000 A 
ATOM     31  C   UNL     1      33.259  12.215  39.691  0.00  0.00    +0.000 A 
ATOM     32  O   UNL     1      35.429  11.312  38.724  0.00  0.00    +0.000 OA
ATOM     33  C   UNL     1      35.646  10.669  37.461  0.00  0.00    +0.000 C 
ATOM     34  O   UNL     1      34.646  11.266  36.617  0.00  0.00    +0.000 OA
ENDBRANCH  25  26
ENDBRANCH  11  25
TORSDOF 7
ENDMDL
MODEL 9
REMARK VINA RESULT:      -7.3      3.490      7.191
REMARK  Name = 
REMARK  7 active torsions:
REMARK  status: ('A' for Active; 'I' for Inactive)
REMARK    1  A    between atoms: C_3  and  C_4
REMARK    2  A    between atoms: N_6  and  C_7
REMARK    3  A    between atoms: C_7  and  C_9
REMARK    4  A    between atoms: C_9  and  C_10
REMARK    5  A    between atoms: C_10  and  C_11
REMARK    6  A    between atoms: N_24  and  C_25
REMARK    7  A    between atoms: C_25  and  C_26
REMARK                            x       y       z     vdW  Elec       q    Type
REMARK                         _______ _______ _______ _____ _____    ______ ____
ROOT
ATOM      1  C   UNL     1      41.432   1.711  12.960  0.00  0.00    +0.000 C 
ATOM      2  C   UNL     1      40.898   0.586  13.730  0.00  0.00    +0.000 A 
ATOM      3  C   UNL     1      39.774   0.624  14.524  0.00  0.00    +0.000 A 
ATOM      4  C   UNL     1      39.633  -0.662  15.064  0.00  0.00    +0.000 A 
ATOM      5  C   UNL     1      38.689  -1.188  15.923  0.00  0.00    +0.000 A 
ATOM      6  C   UNL     1      38.764  -2.500  16.316  0.00  0.00    +0.000 A 
ATOM      7  O   UNL     1      37.815  -3.063  17.192  0.00  0.00    +0.000 OA
ATOM      8  C   UNL     1      39.805  -3.258  15.827  0.00  0.00    +0.000 A 
ATOM      9  C   UNL     1      40.739  -2.722  14.972  0.00  0.00    +0.000 A 
ATOM     10  C   UNL     1      40.679  -1.389  14.560  0.00  0.00    +0.000 A 
ATOM     11  N   UNL     1      41.457  -0.638  13.746  0.00  0.00    +0.000 N 
ENDROOT
BRANCH   3  12
ATOM     12  C   UNL     1      38.874   1.753  14.778  0.00  0.00    +0.000 C 
ATOM     13  O   UNL     1      39.301   2.762  15.390  0.00  0.00    +0.000 OA
ATOM     14  N   UNL     1      37.533   1.673  14.320  0.00  0.00    +0.000 NA
BRANCH  14  15
ATOM     15  C   UNL     1      36.633   2.926  14.626  0.00  0.00    +0.000 C 
ATOM     16  C   UNL     1      36.436   3.301  13.031  0.00  0.00    +0.000 C 
BRANCH  15  17
ATOM     17  C   UNL     1      35.243   2.036  14.665  0.00  0.00    +0.000 C 
BRANCH  17  18
ATOM     18  C   UNL     1      34.754   2.291  16.078  0.00  0.00    +0.000 C 
BRANCH  18  19
ATOM     19  C   UNL     1      35.134   1.210  16.998  0.00  0.00    +0.000 A 
ATOM     20  C   UNL     1      34.575  -0.023  16.843  0.00  0.00    +0.000 A 
ATOM     21  C   UNL     1      34.906  -1.054  17.680  0.00  0.00    +0.000 A 
ATOM     22  C   UNL     1      35.808  -0.864  18.692  0.00  0.00    +0.000 A 
ATOM     23  C   UNL     1      36.373   0.388  18.846  0.00  0.00    +0.000 A 
ATOM     24  C   UNL     1      36.042   1.413  18.011  0.00  0.00    +0.000 A 
ENDBRANCH  18  19
ENDBRANCH  17  18
ENDBRANCH  15  17
ENDBRANCH  14  15
ENDBRANCH   3  12
BRANCH  11  25
ATOM     25  C   UNL     1      42.597  -1.176  13.102  0.00  0.00    +0.000 C 
BRANCH  25  26
ATOM     26  C   UNL     1      43.889  -1.056  13.691  0.00  0.00    +0.000 A 
ATOM     27  C   UNL     1      45.025  -1.414  13.029  0.00  0.00    +0.000 A 
ATOM     28  C   UNL     1      46.262  -1.284  13.647  0.00  0.00    +0.000 A 
ATOM     29  C   UNL     1      46.361  -0.790  14.941  0.00  0.00    +0.000 A 
ATOM     30  C   UNL     1      45.217  -0.425  15.618  0.00  0.00    +0.000 A 
ATOM     31  C   UNL     1      44.022  -0.573  14.962  0.00  0.00    +0.000 A 
ATOM     32  O   UNL     1      45.541   0.045  16.903  0.00  0.00    +0.000 OA
ATOM     33  C   UNL     1      46.895  -0.360  17.144  0.00  0.00    +0.000 C 
ATOM     34  O   UNL     1      47.420  -0.543  15.817  0.00  0.00    +0.000 OA
ENDBRANCH  25  26
ENDBRANCH  11  25
TORSDOF 7
ENDMDL
MODEL 10
REMARK VINA RESULT:      -7.3      3.496      8.418
REMARK  Name = 
REMARK  7 active torsions:
REMARK  status: ('A' for Active; 'I' for Inactive)
REMARK    1  A    between atoms: C_3  and  C_4
REMARK    2  A    between atoms: N_6  and  C_7
REMARK    3  A    between atoms: C_7  and  C_9
REMARK    4  A    between atoms: C_9  and  C_10
REMARK    5  A    between atoms: C_10  and  C_11
REMARK    6  A    between atoms: N_24  and  C_25
REMARK    7  A    between atoms: C_25  and  C_26
REMARK                            x       y       z     vdW  Elec       q    Type
REMARK                         _______ _______ _______ _____ _____    ______ ____
ROOT
ATOM      1  C   UNL     1      41.351   1.546  12.842  0.00  0.00    +0.000 C 
ATOM      2  C   UNL     1      40.831   0.452  13.667  0.00  0.00    +0.000 A 
ATOM      3  C   UNL     1      39.747   0.535  14.510  0.00  0.00    +0.000 A 
ATOM      4  C   UNL     1      39.605  -0.733  15.091  0.00  0.00    +0.000 A 
ATOM      5  C   UNL     1      38.692  -1.217  16.006  0.00  0.00    +0.000 A 
ATOM      6  C   UNL     1      38.759  -2.519  16.430  0.00  0.00    +0.000 A 
ATOM      7  O   UNL     1      37.840  -3.039  17.364  0.00  0.00    +0.000 OA
ATOM      8  C   UNL     1      39.760  -3.312  15.914  0.00  0.00    +0.000 A 
ATOM      9  C   UNL     1      40.664  -2.818  15.003  0.00  0.00    +0.000 A 
ATOM     10  C   UNL     1      40.612  -1.495  14.558  0.00  0.00    +0.000 A 
ATOM     11  N   UNL     1      41.365  -0.782  13.690  0.00  0.00    +0.000 N 
ENDROOT
BRANCH   3  12
ATOM     12  C   UNL     1      38.882   1.690  14.775  0.00  0.00    +0.000 C 
ATOM     13  O   UNL     1      39.342   2.681  15.390  0.00  0.00    +0.000 OA
ATOM     14  N   UNL     1      37.537   1.652  14.324  0.00  0.00    +0.000 NA
BRANCH  14  15
ATOM     15  C   UNL     1      36.676   2.930  14.642  0.00  0.00    +0.000 C 
ATOM     16  C   UNL     1      36.488   3.323  13.050  0.00  0.00    +0.000 C 
BRANCH  15  17
ATOM     17  C   UNL     1      35.259   2.083  14.677  0.00  0.00    +0.000 C 
BRANCH  17  18
ATOM     18  C   UNL     1      34.784   2.338  16.095  0.00  0.00    +0.000 C 
BRANCH  18  19
ATOM     19  C   UNL     1      35.146   1.241  17.004  0.00  0.00    +0.000 A 
ATOM     20  C   UNL     1      34.585   0.013  16.820  0.00  0.00    +0.000 A 
ATOM     21  C   UNL     1      34.899  -1.033  17.646  0.00  0.00    +0.000 A 
ATOM     22  C   UNL     1      35.785  -0.862  18.676  0.00  0.00    +0.000 A 
ATOM     23  C   UNL     1      36.351   0.385  18.859  0.00  0.00    +0.000 A 
ATOM     24  C   UNL     1      36.037   1.424  18.035  0.00  0.00    +0.000 A 
ENDBRANCH  18  19
ENDBRANCH  17  18
ENDBRANCH  15  17
ENDBRANCH  14  15
ENDBRANCH   3  12
BRANCH  11  25
ATOM     25  C   UNL     1      42.463  -1.361  13.008  0.00  0.00    +0.000 C 
BRANCH  25  26
ATOM     26  C   UNL     1      42.259  -2.146  11.836  0.00  0.00    +0.000 A 
ATOM     27  C   UNL     1      42.858  -3.356  11.660  0.00  0.00    +0.000 A 
ATOM     28  C   UNL     1      42.633  -4.083  10.497  0.00  0.00    +0.000 A 
ATOM     29  C   UNL     1      41.798  -3.591   9.504  0.00  0.00    +0.000 A 
ATOM     30  C   UNL     1      41.187  -2.367   9.674  0.00  0.00    +0.000 A 
ATOM     31  C   UNL     1      41.443  -1.692  10.840  0.00  0.00    +0.000 A 
ATOM     32  O   UNL     1      40.390  -2.062   8.556  0.00  0.00    +0.000 OA
ATOM     33  C   UNL     1      40.791  -2.971   7.522  0.00  0.00    +0.000 C 
ATOM     34  O   UNL     1      41.376  -4.060   8.258  0.00  0.00    +0.000 OA
ENDBRANCH  25  26
ENDBRANCH  11  25
TORSDOF 7
ENDMDL
