MODEL 1
REMARK VINA RESULT:      -6.3      0.000      0.000
REMARK  Name = 
REMARK  2 active torsions:
REMARK  status: ('A' for Active; 'I' for Inactive)
REMARK    1  A    between atoms: C_2  and  C_3
REMARK    2  A    between atoms: C_3  and  C_4
REMARK                            x       y       z     vdW  Elec       q    Type
REMARK                         _______ _______ _______ _____ _____    ______ ____
ROOT
ATOM      1  C   UNL     1      20.466  -9.987  26.314  0.00  0.00    +0.000 C 
ATOM      2  C   UNL     1      19.436  -9.258  27.116  0.00  0.00    +0.000 C 
ATOM      3  C   UNL     1      19.273  -7.827  26.790  0.00  0.00    +0.000 A 
ATOM      4  C   UNL     1      18.139  -7.130  27.246  0.00  0.00    +0.000 A 
ATOM      5  C   UNL     1      17.995  -5.793  26.996  0.00  0.00    +0.000 A 
ATOM      6  C   UNL     1      18.916  -5.044  26.303  0.00  0.00    +0.000 A 
ATOM      7  C   UNL     1      20.031  -5.712  25.850  0.00  0.00    +0.000 A 
ATOM      8  C   UNL     1      20.193  -7.085  26.097  0.00  0.00    +0.000 A 
ATOM      9  C   UNL     1      21.360  -7.779  25.551  0.00  0.00    +0.000 A 
ATOM     10  N   UNL     1      22.302  -7.003  24.949  0.00  0.00    +0.000 NA
ATOM     11  C   UNL     1      23.422  -7.602  24.515  0.00  0.00    +0.000 A 
ATOM     12  S   UNL     1      24.606  -6.728  23.777  0.00  0.00    +0.000 S 
ATOM     13  N   UNL     1      23.633  -8.919  24.658  0.00  0.00    +0.000 NA
ATOM     14  C   UNL     1      22.679  -9.694  25.264  0.00  0.00    +0.000 A 
ATOM     15  O   UNL     1      22.955 -10.899  25.357  0.00  0.00    +0.000 OA
ATOM     16  C   UNL     1      21.509  -9.137  25.726  0.00  0.00    +0.000 A 
ENDROOT
BRANCH   1  18
ATOM     17  C   UNL     1      21.081 -10.446  28.626  0.00  0.00    +0.000 C 
ATOM     18  C   UNL     1      21.034 -11.071  27.238  0.00  0.00    +0.000 C 
ENDBRANCH   1  18
BRANCH   1  19
ATOM     19  C   UNL     1      19.709 -10.745  25.202  0.00  0.00    +0.000 C 
ATOM     20  C   UNL     1      18.368 -11.223  25.606  0.00  0.00    +0.000 C 
ENDBRANCH   1  19
TORSDOF 2
ENDMDL
MODEL 2
REMARK VINA RESULT:      -6.1     14.693     16.976
REMARK  Name = 
REMARK  2 active torsions:
REMARK  status: ('A' for Active; 'I' for Inactive)
REMARK    1  A    between atoms: C_2  and  C_3
REMARK    2  A    between atoms: C_3  and  C_4
REMARK                            x       y       z     vdW  Elec       q    Type
REMARK                         _______ _______ _______ _____ _____    ______ ____
ROOT
ATOM      1  C   UNL     1      27.136   5.633  17.440  0.00  0.00    +0.000 C 
ATOM      2  C   UNL     1      25.655   5.636  17.654  0.00  0.00    +0.000 C 
ATOM      3  C   UNL     1      25.028   4.306  17.778  0.00  0.00    +0.000 A 
ATOM      4  C   UNL     1      23.722   4.193  18.288  0.00  0.00    +0.000 A 
ATOM      5  C   UNL     1      23.106   2.973  18.364  0.00  0.00    +0.000 A 
ATOM      6  C   UNL     1      23.692   1.797  17.961  0.00  0.00    +0.000 A 
ATOM      7  C   UNL     1      24.970   1.892  17.460  0.00  0.00    +0.000 A 
ATOM      8  C   UNL     1      25.617   3.135  17.377  0.00  0.00    +0.000 A 
ATOM      9  C   UNL     1      26.998   3.195  16.896  0.00  0.00    +0.000 A 
ATOM     10  N   UNL     1      27.526   2.036  16.417  0.00  0.00    +0.000 NA
ATOM     11  C   UNL     1      28.760   2.080  15.890  0.00  0.00    +0.000 A 
ATOM     12  S   UNL     1      29.462   0.717  15.292  0.00  0.00    +0.000 S 
ATOM     13  N   UNL     1      29.471   3.215  15.824  0.00  0.00    +0.000 NA
ATOM     14  C   UNL     1      28.933   4.378  16.310  0.00  0.00    +0.000 A 
ATOM     15  O   UNL     1      29.657   5.380  16.208  0.00  0.00    +0.000 OA
ATOM     16  C   UNL     1      27.674   4.394  16.863  0.00  0.00    +0.000 A 
ENDROOT
BRANCH   1  18
ATOM     17  C   UNL     1      26.380   6.894  15.497  0.00  0.00    +0.000 C 
ATOM     18  C   UNL     1      27.444   6.868  16.587  0.00  0.00    +0.000 C 
ENDBRANCH   1  18
BRANCH   1  19
ATOM     19  C   UNL     1      27.784   5.905  18.815  0.00  0.00    +0.000 C 
ATOM     20  C   UNL     1      27.971   7.342  19.117  0.00  0.00    +0.000 C 
ENDBRANCH   1  19
TORSDOF 2
ENDMDL
MODEL 3
REMARK VINA RESULT:      -5.9     31.390     32.714
REMARK  Name = 
REMARK  2 active torsions:
REMARK  status: ('A' for Active; 'I' for Inactive)
REMARK    1  A    between atoms: C_2  and  C_3
REMARK    2  A    between atoms: C_3  and  C_4
REMARK                            x       y       z     vdW  Elec       q    Type
REMARK                         _______ _______ _______ _____ _____    ______ ____
ROOT
ATOM      1  C   UNL     1      27.961  22.956  29.101  0.00  0.00    +0.000 C 
ATOM      2  C   UNL     1      27.489  23.407  27.754  0.00  0.00    +0.000 C 
ATOM      3  C   UNL     1      28.398  23.106  26.630  0.00  0.00    +0.000 A 
ATOM      4  C   UNL     1      27.927  23.195  25.307  0.00  0.00    +0.000 A 
ATOM      5  C   UNL     1      28.767  22.969  24.251  0.00  0.00    +0.000 A 
ATOM      6  C   UNL     1      30.096  22.648  24.390  0.00  0.00    +0.000 A 
ATOM      7  C   UNL     1      30.571  22.557  25.679  0.00  0.00    +0.000 A 
ATOM      8  C   UNL     1      29.722  22.785  26.774  0.00  0.00    +0.000 A 
ATOM      9  C   UNL     1      30.242  22.621  28.132  0.00  0.00    +0.000 A 
ATOM     10  N   UNL     1      31.579  22.395  28.248  0.00  0.00    +0.000 NA
ATOM     11  C   UNL     1      32.098  22.327  29.484  0.00  0.00    +0.000 A 
ATOM     12  S   UNL     1      33.707  22.055  29.701  0.00  0.00    +0.000 S 
ATOM     13  N   UNL     1      31.348  22.474  30.585  0.00  0.00    +0.000 NA
ATOM     14  C   UNL     1      30.002  22.701  30.461  0.00  0.00    +0.000 A 
ATOM     15  O   UNL     1      29.385  22.828  31.529  0.00  0.00    +0.000 OA
ATOM     16  C   UNL     1      29.413  22.779  29.220  0.00  0.00    +0.000 A 
ENDROOT
BRANCH   1  18
ATOM     17  C   UNL     1      27.449  25.318  29.405  0.00  0.00    +0.000 C 
ATOM     18  C   UNL     1      27.401  23.968  30.107  0.00  0.00    +0.000 C 
ENDBRANCH   1  18
BRANCH   1  19
ATOM     19  C   UNL     1      27.236  21.626  29.402  0.00  0.00    +0.000 C 
ATOM     20  C   UNL     1      26.271  21.707  30.522  0.00  0.00    +0.000 C 
ENDBRANCH   1  19
TORSDOF 2
ENDMDL
MODEL 4
REMARK VINA RESULT:      -5.9      3.242      5.060
REMARK  Name = 
REMARK  2 active torsions:
REMARK  status: ('A' for Active; 'I' for Inactive)
REMARK    1  A    between atoms: C_2  and  C_3
REMARK    2  A    between atoms: C_3  and  C_4
REMARK                            x       y       z     vdW  Elec       q    Type
REMARK                         _______ _______ _______ _____ _____    ______ ____
ROOT
ATOM      1  C   UNL     1      18.757  -7.863  26.568  0.00  0.00    +0.000 C 
ATOM      2  C   UNL     1      19.777  -7.133  25.753  0.00  0.00    +0.000 C 
ATOM      3  C   UNL     1      21.017  -7.882  25.467  0.00  0.00    +0.000 A 
ATOM      4  C   UNL     1      21.894  -7.428  24.465  0.00  0.00    +0.000 A 
ATOM      5  C   UNL     1      23.071  -8.081  24.221  0.00  0.00    +0.000 A 
ATOM      6  C   UNL     1      23.482  -9.196  24.911  0.00  0.00    +0.000 A 
ATOM      7  C   UNL     1      22.634  -9.652  25.894  0.00  0.00    +0.000 A 
ATOM      8  C   UNL     1      21.421  -8.995  26.157  0.00  0.00    +0.000 A 
ATOM      9  C   UNL     1      20.513  -9.540  27.168  0.00  0.00    +0.000 A 
ATOM     10  N   UNL     1      20.979 -10.587  27.901  0.00  0.00    +0.000 NA
ATOM     11  C   UNL     1      20.202 -11.052  28.893  0.00  0.00    +0.000 A 
ATOM     12  S   UNL     1      20.699 -12.317  29.821  0.00  0.00    +0.000 S 
ATOM     13  N   UNL     1      19.004 -10.520  29.174  0.00  0.00    +0.000 NA
ATOM     14  C   UNL     1      18.541  -9.465  28.430  0.00  0.00    +0.000 A 
ATOM     15  O   UNL     1      17.426  -9.034  28.758  0.00  0.00    +0.000 OA
ATOM     16  C   UNL     1      19.292  -8.948  27.399  0.00  0.00    +0.000 A 
ENDROOT
BRANCH   1  18
ATOM     17  C   UNL     1      18.603  -5.459  26.935  0.00  0.00    +0.000 C 
ATOM     18  C   UNL     1      18.023  -6.794  27.386  0.00  0.00    +0.000 C 
ENDBRANCH   1  18
BRANCH   1  19
ATOM     19  C   UNL     1      17.711  -8.418  25.576  0.00  0.00    +0.000 C 
ATOM     20  C   UNL     1      16.340  -7.907  25.800  0.00  0.00    +0.000 C 
ENDBRANCH   1  19
TORSDOF 2
ENDMDL
MODEL 5
REMARK VINA RESULT:      -5.9      2.067      2.528
REMARK  Name = 
REMARK  2 active torsions:
REMARK  status: ('A' for Active; 'I' for Inactive)
REMARK    1  A    between atoms: C_2  and  C_3
REMARK    2  A    between atoms: C_3  and  C_4
REMARK                            x       y       z     vdW  Elec       q    Type
REMARK                         _______ _______ _______ _____ _____    ______ ____
ROOT
ATOM      1  C   UNL     1      18.654  -9.962  27.987  0.00  0.00    +0.000 C 
ATOM      2  C   UNL     1      18.094  -8.594  28.215  0.00  0.00    +0.000 C 
ATOM      3  C   UNL     1      18.647  -7.530  27.354  0.00  0.00    +0.000 A 
ATOM      4  C   UNL     1      17.985  -6.292  27.259  0.00  0.00    +0.000 A 
ATOM      5  C   UNL     1      18.510  -5.277  26.506  0.00  0.00    +0.000 A 
ATOM      6  C   UNL     1      19.687  -5.378  25.804  0.00  0.00    +0.000 A 
ATOM      7  C   UNL     1      20.346  -6.584  25.887  0.00  0.00    +0.000 A 
ATOM      8  C   UNL     1      19.821  -7.636  26.655  0.00  0.00    +0.000 A 
ATOM      9  C   UNL     1      20.514  -8.925  26.675  0.00  0.00    +0.000 A 
ATOM     10  N   UNL     1      21.722  -8.976  26.050  0.00  0.00    +0.000 NA
ATOM     11  C   UNL     1      22.419 -10.120  26.126  0.00  0.00    +0.000 A 
ATOM     12  S   UNL     1      23.888 -10.255  25.395  0.00  0.00    +0.000 S 
ATOM     13  N   UNL     1      21.965 -11.193  26.789  0.00  0.00    +0.000 NA
ATOM     14  C   UNL     1      20.747 -11.135  27.415  0.00  0.00    +0.000 A 
ATOM     15  O   UNL     1      20.404 -12.170  28.006  0.00  0.00    +0.000 OA
ATOM     16  C   UNL     1      19.986  -9.990  27.370  0.00  0.00    +0.000 A 
ENDROOT
BRANCH   1  18
ATOM     17  C   UNL     1      18.936  -9.595  30.379  0.00  0.00    +0.000 C 
ATOM     18  C   UNL     1      18.615 -10.668  29.347  0.00  0.00    +0.000 C 
ENDBRANCH   1  18
BRANCH   1  19
ATOM     19  C   UNL     1      17.640 -10.715  27.099  0.00  0.00    +0.000 C 
ATOM     20  C   UNL     1      16.226 -10.484  27.473  0.00  0.00    +0.000 C 
ENDBRANCH   1  19
TORSDOF 2
ENDMDL
MODEL 6
REMARK VINA RESULT:      -5.8     32.108     33.168
REMARK  Name = 
REMARK  2 active torsions:
REMARK  status: ('A' for Active; 'I' for Inactive)
REMARK    1  A    between atoms: C_2  and  C_3
REMARK    2  A    between atoms: C_3  and  C_4
REMARK                            x       y       z     vdW  Elec       q    Type
REMARK                         _______ _______ _______ _____ _____    ______ ____
ROOT
ATOM      1  C   UNL     1      30.349  23.689  24.948  0.00  0.00    +0.000 C 
ATOM      2  C   UNL     1      29.673  23.503  23.626  0.00  0.00    +0.000 C 
ATOM      3  C   UNL     1      28.199  23.437  23.671  0.00  0.00    +0.000 A 
ATOM      4  C   UNL     1      27.455  23.581  22.485  0.00  0.00    +0.000 A 
ATOM      5  C   UNL     1      26.091  23.473  22.500  0.00  0.00    +0.000 A 
ATOM      6  C   UNL     1      25.359  23.224  23.635  0.00  0.00    +0.000 A 
ATOM      7  C   UNL     1      26.072  23.081  24.803  0.00  0.00    +0.000 A 
ATOM      8  C   UNL     1      27.472  23.190  24.806  0.00  0.00    +0.000 A 
ATOM      9  C   UNL     1      28.197  23.093  26.074  0.00  0.00    +0.000 A 
ATOM     10  N   UNL     1      27.463  22.755  27.170  0.00  0.00    +0.000 NA
ATOM     11  C   UNL     1      28.116  22.575  28.329  0.00  0.00    +0.000 A 
ATOM     12  S   UNL     1      27.294  22.165  29.695  0.00  0.00    +0.000 S 
ATOM     13  N   UNL     1      29.445  22.716  28.433  0.00  0.00    +0.000 NA
ATOM     14  C   UNL     1      30.177  23.059  27.325  0.00  0.00    +0.000 A 
ATOM     15  O   UNL     1      31.398  23.167  27.510  0.00  0.00    +0.000 OA
ATOM     16  C   UNL     1      29.563  23.259  26.111  0.00  0.00    +0.000 A 
ENDROOT
BRANCH   1  18
ATOM     17  C   UNL     1      32.731  24.055  24.587  0.00  0.00    +0.000 C 
ATOM     18  C   UNL     1      31.697  22.966  24.840  0.00  0.00    +0.000 C 
ENDBRANCH   1  18
BRANCH   1  19
ATOM     19  C   UNL     1      30.692  25.191  25.063  0.00  0.00    +0.000 C 
ATOM     20  C   UNL     1      29.835  26.068  24.235  0.00  0.00    +0.000 C 
ENDBRANCH   1  19
TORSDOF 2
ENDMDL
MODEL 7
REMARK VINA RESULT:      -5.8     32.431     33.400
REMARK  Name = 
REMARK  2 active torsions:
REMARK  status: ('A' for Active; 'I' for Inactive)
REMARK    1  A    between atoms: C_2  and  C_3
REMARK    2  A    between atoms: C_3  and  C_4
REMARK                            x       y       z     vdW  Elec       q    Type
REMARK                         _______ _______ _______ _____ _____    ______ ____
ROOT
ATOM      1  C   UNL     1      26.293  24.476  24.845  0.00  0.00    +0.000 C 
ATOM      2  C   UNL     1      27.579  24.453  24.081  0.00  0.00    +0.000 C 
ATOM      3  C   UNL     1      28.674  23.685  24.705  0.00  0.00    +0.000 A 
ATOM      4  C   UNL     1      29.804  23.334  23.944  0.00  0.00    +0.000 A 
ATOM      5  C   UNL     1      30.852  22.666  24.518  0.00  0.00    +0.000 A 
ATOM      6  C   UNL     1      30.886  22.295  25.841  0.00  0.00    +0.000 A 
ATOM      7  C   UNL     1      29.787  22.632  26.598  0.00  0.00    +0.000 A 
ATOM      8  C   UNL     1      28.703  23.316  26.024  0.00  0.00    +0.000 A 
ATOM      9  C   UNL     1      27.524  23.606  26.841  0.00  0.00    +0.000 A 
ATOM     10  N   UNL     1      27.615  23.314  28.167  0.00  0.00    +0.000 NA
ATOM     11  C   UNL     1      26.582  23.649  28.955  0.00  0.00    +0.000 A 
ATOM     12  S   UNL     1      26.622  23.326  30.569  0.00  0.00    +0.000 S 
ATOM     13  N   UNL     1      25.483  24.252  28.478  0.00  0.00    +0.000 NA
ATOM     14  C   UNL     1      25.397  24.542  27.141  0.00  0.00    +0.000 A 
ATOM     15  O   UNL     1      24.349  25.101  26.786  0.00  0.00    +0.000 OA
ATOM     16  C   UNL     1      26.424  24.221  26.284  0.00  0.00    +0.000 A 
ENDROOT
BRANCH   1  18
ATOM     17  C   UNL     1      26.749  26.697  23.954  0.00  0.00    +0.000 C 
ATOM     18  C   UNL     1      25.642  25.830  24.538  0.00  0.00    +0.000 C 
ENDBRANCH   1  18
BRANCH   1  19
ATOM     19  C   UNL     1      25.373  23.417  24.198  0.00  0.00    +0.000 C 
ATOM     20  C   UNL     1      25.685  23.136  22.779  0.00  0.00    +0.000 C 
ENDBRANCH   1  19
TORSDOF 2
ENDMDL
MODEL 8
REMARK VINA RESULT:      -5.8     21.441     23.267
REMARK  Name = 
REMARK  2 active torsions:
REMARK  status: ('A' for Active; 'I' for Inactive)
REMARK    1  A    between atoms: C_2  and  C_3
REMARK    2  A    between atoms: C_3  and  C_4
REMARK                            x       y       z     vdW  Elec       q    Type
REMARK                         _______ _______ _______ _____ _____    ______ ____
ROOT
ATOM      1  C   UNL     1      19.250  10.643  38.301  0.00  0.00    +0.000 C 
ATOM      2  C   UNL     1      18.304  11.179  37.273  0.00  0.00    +0.000 C 
ATOM      3  C   UNL     1      16.882  11.194  37.666  0.00  0.00    +0.000 A 
ATOM      4  C   UNL     1      15.959  11.954  36.924  0.00  0.00    +0.000 A 
ATOM      5  C   UNL     1      14.628  11.940  37.243  0.00  0.00    +0.000 A 
ATOM      6  C   UNL     1      14.100  11.208  38.279  0.00  0.00    +0.000 A 
ATOM      7  C   UNL     1      14.991  10.460  39.015  0.00  0.00    +0.000 A 
ATOM      8  C   UNL     1      16.360  10.464  38.702  0.00  0.00    +0.000 A 
ATOM      9  C   UNL     1      17.290   9.706  39.540  0.00  0.00    +0.000 A 
ATOM     10  N   UNL     1      16.737   8.916  40.501  0.00  0.00    +0.000 NA
ATOM     11  C   UNL     1      17.561   8.145  41.228  0.00  0.00    +0.000 A 
ATOM     12  S   UNL     1      16.964   7.165  42.408  0.00  0.00    +0.000 S 
ATOM     13  N   UNL     1      18.888   8.131  41.034  0.00  0.00    +0.000 NA
ATOM     14  C   UNL     1      19.437   8.930  40.065  0.00  0.00    +0.000 A 
ATOM     15  O   UNL     1      20.670   8.854  39.951  0.00  0.00    +0.000 OA
ATOM     16  C   UNL     1      18.643   9.744  39.290  0.00  0.00    +0.000 A 
ENDROOT
BRANCH   1  18
ATOM     17  C   UNL     1      19.806   9.601  36.170  0.00  0.00    +0.000 C 
ATOM     18  C   UNL     1      20.394   9.984  37.522  0.00  0.00    +0.000 C 
ENDBRANCH   1  18
BRANCH   1  19
ATOM     19  C   UNL     1      19.878  11.865  39.007  0.00  0.00    +0.000 C 
ATOM     20  C   UNL     1      19.916  13.087  38.173  0.00  0.00    +0.000 C 
ENDBRANCH   1  19
TORSDOF 2
ENDMDL
MODEL 9
REMARK VINA RESULT:      -5.7     31.262     32.847
REMARK  Name = 
REMARK  2 active torsions:
REMARK  status: ('A' for Active; 'I' for Inactive)
REMARK    1  A    between atoms: C_2  and  C_3
REMARK    2  A    between atoms: C_3  and  C_4
REMARK                            x       y       z     vdW  Elec       q    Type
REMARK                         _______ _______ _______ _____ _____    ______ ____
ROOT
ATOM      1  C   UNL     1      27.532  23.440  29.421  0.00  0.00    +0.000 C 
ATOM      2  C   UNL     1      28.473  22.808  30.398  0.00  0.00    +0.000 C 
ATOM      3  C   UNL     1      29.852  22.609  29.913  0.00  0.00    +0.000 A 
ATOM      4  C   UNL     1      30.882  22.323  30.829  0.00  0.00    +0.000 A 
ATOM      5  C   UNL     1      32.157  22.086  30.393  0.00  0.00    +0.000 A 
ATOM      6  C   UNL     1      32.526  22.106  29.070  0.00  0.00    +0.000 A 
ATOM      7  C   UNL     1      31.530  22.384  28.162  0.00  0.00    +0.000 A 
ATOM      8  C   UNL     1      30.216  22.631  28.592  0.00  0.00    +0.000 A 
ATOM      9  C   UNL     1      29.193  22.983  27.608  0.00  0.00    +0.000 A 
ATOM     10  N   UNL     1      29.557  22.907  26.298  0.00  0.00    +0.000 NA
ATOM     11  C   UNL     1      28.614  23.141  25.372  0.00  0.00    +0.000 A 
ATOM     12  S   UNL     1      28.981  23.066  23.769  0.00  0.00    +0.000 S 
ATOM     13  N   UNL     1      27.348  23.441  25.696  0.00  0.00    +0.000 NA
ATOM     14  C   UNL     1      26.989  23.517  27.017  0.00  0.00    +0.000 A 
ATOM     15  O   UNL     1      25.800  23.798  27.228  0.00  0.00    +0.000 OA
ATOM     16  C   UNL     1      27.913  23.290  28.011  0.00  0.00    +0.000 A 
ENDROOT
BRANCH   1  18
ATOM     17  C   UNL     1      26.403  21.550  30.465  0.00  0.00    +0.000 C 
ATOM     18  C   UNL     1      26.148  22.858  29.728  0.00  0.00    +0.000 C 
ENDBRANCH   1  18
BRANCH   1  19
ATOM     19  C   UNL     1      27.446  24.937  29.793  0.00  0.00    +0.000 C 
ATOM     20  C   UNL     1      26.168  25.325  30.430  0.00  0.00    +0.000 C 
ENDBRANCH   1  19
TORSDOF 2
ENDMDL
MODEL 10
REMARK VINA RESULT:      -5.7     22.072     23.591
REMARK  Name = 
REMARK  2 active torsions:
REMARK  status: ('A' for Active; 'I' for Inactive)
REMARK    1  A    between atoms: C_2  and  C_3
REMARK    2  A    between atoms: C_3  and  C_4
REMARK                            x       y       z     vdW  Elec       q    Type
REMARK                         _______ _______ _______ _____ _____    ______ ____
ROOT
ATOM      1  C   UNL     1      21.120  10.301  37.881  0.00  0.00    +0.000 C 
ATOM      2  C   UNL     1      19.792   9.621  37.767  0.00  0.00    +0.000 C 
ATOM      3  C   UNL     1      18.649  10.507  37.472  0.00  0.00    +0.000 A 
ATOM      4  C   UNL     1      17.430   9.955  37.036  0.00  0.00    +0.000 A 
ATOM      5  C   UNL     1      16.345  10.755  36.806  0.00  0.00    +0.000 A 
ATOM      6  C   UNL     1      16.353  12.119  36.977  0.00  0.00    +0.000 A 
ATOM      7  C   UNL     1      17.539  12.673  37.403  0.00  0.00    +0.000 A 
ATOM      8  C   UNL     1      18.663  11.867  37.642  0.00  0.00    +0.000 A 
ATOM      9  C   UNL     1      19.926  12.493  38.036  0.00  0.00    +0.000 A 
ATOM     10  N   UNL     1      19.888  13.830  38.288  0.00  0.00    +0.000 NA
ATOM     11  C   UNL     1      21.011  14.415  38.734  0.00  0.00    +0.000 A 
ATOM     12  S   UNL     1      21.041  16.028  39.060  0.00  0.00    +0.000 S 
ATOM     13  N   UNL     1      22.146  13.729  38.935  0.00  0.00    +0.000 NA
ATOM     14  C   UNL     1      22.176  12.383  38.678  0.00  0.00    +0.000 A 
ATOM     15  O   UNL     1      23.263  11.826  38.891  0.00  0.00    +0.000 OA
ATOM     16  C   UNL     1      21.057  11.729  38.216  0.00  0.00    +0.000 A 
ENDROOT
BRANCH   1  18
ATOM     17  C   UNL     1      20.924   9.031  39.951  0.00  0.00    +0.000 C 
ATOM     18  C   UNL     1      21.927   9.487  38.900  0.00  0.00    +0.000 C 
ENDBRANCH   1  18
BRANCH   1  19
ATOM     19  C   UNL     1      21.838  10.103  36.529  0.00  0.00    +0.000 C 
ATOM     20  C   UNL     1      23.017   9.211  36.599  0.00  0.00    +0.000 C 
ENDBRANCH   1  19
TORSDOF 2
ENDMDL
