MODEL 1
REMARK VINA RESULT:      -7.0      0.000      0.000
REMARK  Name = 
REMARK  2 active torsions:
REMARK  status: ('A' for Active; 'I' for Inactive)
REMARK    1  A    between atoms: O_2  and  C_3
REMARK    2  A    between atoms: C_14  and  O_15
REMARK                            x       y       z     vdW  Elec       q    Type
REMARK                         _______ _______ _______ _____ _____    ______ ____
ROOT
ATOM      1  C   UNL     1      15.196  12.177  33.740  0.00  0.00    +0.000 A 
ATOM      2  C   UNL     1      16.415  11.673  33.286  0.00  0.00    +0.000 A 
ATOM      3  C   UNL     1      17.199  11.022  34.228  0.00  0.00    +0.000 A 
ATOM      4  C   UNL     1      16.801  10.877  35.532  0.00  0.00    +0.000 A 
ATOM      5  C   UNL     1      15.598  11.376  35.975  0.00  0.00    +0.000 A 
ATOM      6  C   UNL     1      14.796  12.032  35.057  0.00  0.00    +0.000 A 
ATOM      7  N   UNL     1      15.499  11.078  37.280  0.00  0.00    +0.000 NA
ATOM      8  C   UNL     1      16.569  10.419  37.694  0.00  0.00    +0.000 A 
ATOM      9  C   UNL     1      16.917   9.913  38.923  0.00  0.00    +0.000 A 
ATOM     10  C   UNL     1      16.086  10.051  40.004  0.00  0.00    +0.000 A 
ATOM     11  C   UNL     1      16.497   9.513  41.229  0.00  0.00    +0.000 A 
ATOM     12  C   UNL     1      17.705   8.863  41.348  0.00  0.00    +0.000 A 
ATOM     13  C   UNL     1      18.498   8.754  40.229  0.00  0.00    +0.000 A 
ATOM     14  C   UNL     1      18.122   9.267  39.029  0.00  0.00    +0.000 A 
ATOM     15  O   UNL     1      18.932   9.133  37.977  0.00  0.00    +0.000 OA
ATOM     16  C   UNL     1      18.623   9.606  36.794  0.00  0.00    +0.000 A 
ATOM     17  O   UNL     1      19.379   9.486  35.793  0.00  0.00    +0.000 OA
ATOM     18  C   UNL     1      17.427  10.273  36.594  0.00  0.00    +0.000 A 
ENDROOT
BRANCH   1  20
ATOM     19  C   UNL     1      13.682  14.036  33.196  0.00  0.00    +0.000 C 
ATOM     20  O   UNL     1      14.355  12.836  32.884  0.00  0.00    +0.000 OA
ENDBRANCH   1  20
BRANCH  12  21
ATOM     21  O   UNL     1      18.135   8.324  42.537  0.00  0.00    +0.000 OA
ATOM     22  C   UNL     1      17.320   8.297  43.667  0.00  0.00    +0.000 C 
ENDBRANCH  12  21
TORSDOF 2
ENDMDL
MODEL 2
REMARK VINA RESULT:      -6.9     18.059     19.775
REMARK  Name = 
REMARK  2 active torsions:
REMARK  status: ('A' for Active; 'I' for Inactive)
REMARK    1  A    between atoms: O_2  and  C_3
REMARK    2  A    between atoms: C_14  and  O_15
REMARK                            x       y       z     vdW  Elec       q    Type
REMARK                         _______ _______ _______ _____ _____    ______ ____
ROOT
ATOM      1  C   UNL     1      33.704  -1.855  34.973  0.00  0.00    +0.000 A 
ATOM      2  C   UNL     1      33.640  -1.421  33.649  0.00  0.00    +0.000 A 
ATOM      3  C   UNL     1      33.666  -0.048  33.452  0.00  0.00    +0.000 A 
ATOM      4  C   UNL     1      33.752   0.837  34.496  0.00  0.00    +0.000 A 
ATOM      5  C   UNL     1      33.815   0.403  35.801  0.00  0.00    +0.000 A 
ATOM      6  C   UNL     1      33.790  -0.963  36.027  0.00  0.00    +0.000 A 
ATOM      7  N   UNL     1      33.891   1.493  36.580  0.00  0.00    +0.000 NA
ATOM      8  C   UNL     1      33.879   2.596  35.848  0.00  0.00    +0.000 A 
ATOM      9  C   UNL     1      33.936   3.925  36.190  0.00  0.00    +0.000 A 
ATOM     10  C   UNL     1      34.023   4.313  37.502  0.00  0.00    +0.000 A 
ATOM     11  C   UNL     1      34.077   5.682  37.786  0.00  0.00    +0.000 A 
ATOM     12  C   UNL     1      34.045   6.617  36.776  0.00  0.00    +0.000 A 
ATOM     13  C   UNL     1      33.958   6.170  35.477  0.00  0.00    +0.000 A 
ATOM     14  C   UNL     1      33.903   4.847  35.175  0.00  0.00    +0.000 A 
ATOM     15  O   UNL     1      33.818   4.469  33.899  0.00  0.00    +0.000 OA
ATOM     16  C   UNL     1      33.763   3.208  33.546  0.00  0.00    +0.000 A 
ATOM     17  O   UNL     1      33.684   2.839  32.343  0.00  0.00    +0.000 OA
ATOM     18  C   UNL     1      33.790   2.209  34.504  0.00  0.00    +0.000 A 
ENDROOT
BRANCH   1  20
ATOM     19  C   UNL     1      33.898  -4.219  34.323  0.00  0.00    +0.000 C 
ATOM     20  O   UNL     1      33.684  -3.193  35.267  0.00  0.00    +0.000 OA
ENDBRANCH   1  20
BRANCH  12  21
ATOM     21  O   UNL     1      34.098   7.969  37.023  0.00  0.00    +0.000 OA
ATOM     22  C   UNL     1      34.564   8.871  36.069  0.00  0.00    +0.000 C 
ENDBRANCH  12  21
TORSDOF 2
ENDMDL
MODEL 3
REMARK VINA RESULT:      -6.7     29.678     32.700
REMARK  Name = 
REMARK  2 active torsions:
REMARK  status: ('A' for Active; 'I' for Inactive)
REMARK    1  A    between atoms: O_2  and  C_3
REMARK    2  A    between atoms: C_14  and  O_15
REMARK                            x       y       z     vdW  Elec       q    Type
REMARK                         _______ _______ _______ _____ _____    ______ ____
ROOT
ATOM      1  C   UNL     1      28.809  23.054  13.046  0.00  0.00    +0.000 A 
ATOM      2  C   UNL     1      28.315  22.868  11.755  0.00  0.00    +0.000 A 
ATOM      3  C   UNL     1      29.168  22.247  10.854  0.00  0.00    +0.000 A 
ATOM      4  C   UNL     1      30.427  21.835  11.209  0.00  0.00    +0.000 A 
ATOM      5  C   UNL     1      30.910  22.020  12.484  0.00  0.00    +0.000 A 
ATOM      6  C   UNL     1      30.080  22.638  13.403  0.00  0.00    +0.000 A 
ATOM      7  N   UNL     1      32.154  21.517  12.516  0.00  0.00    +0.000 NA
ATOM      8  C   UNL     1      32.491  21.023  11.336  0.00  0.00    +0.000 A 
ATOM      9  C   UNL     1      33.641  20.416  10.889  0.00  0.00    +0.000 A 
ATOM     10  C   UNL     1      34.710  20.227  11.726  0.00  0.00    +0.000 A 
ATOM     11  C   UNL     1      35.852  19.603  11.211  0.00  0.00    +0.000 A 
ATOM     12  C   UNL     1      35.902  19.188   9.900  0.00  0.00    +0.000 A 
ATOM     13  C   UNL     1      34.798  19.403   9.106  0.00  0.00    +0.000 A 
ATOM     14  C   UNL     1      33.679  20.006   9.581  0.00  0.00    +0.000 A 
ATOM     15  O   UNL     1      32.638  20.191   8.767  0.00  0.00    +0.000 OA
ATOM     16  C   UNL     1      31.531  20.766   9.168  0.00  0.00    +0.000 A 
ATOM     17  O   UNL     1      30.541  20.945   8.408  0.00  0.00    +0.000 OA
ATOM     18  C   UNL     1      31.403  21.212  10.472  0.00  0.00    +0.000 A 
ENDROOT
BRANCH   1  20
ATOM     19  C   UNL     1      28.335  24.907  14.591  0.00  0.00    +0.000 C 
ATOM     20  O   UNL     1      28.040  23.658  14.004  0.00  0.00    +0.000 OA
ENDBRANCH   1  20
BRANCH  12  21
ATOM     21  O   UNL     1      37.009  18.571   9.366  0.00  0.00    +0.000 OA
ATOM     22  C   UNL     1      38.064  18.137  10.167  0.00  0.00    +0.000 C 
ENDBRANCH  12  21
TORSDOF 2
ENDMDL
MODEL 4
REMARK VINA RESULT:      -6.6     18.395     20.876
REMARK  Name = 
REMARK  2 active torsions:
REMARK  status: ('A' for Active; 'I' for Inactive)
REMARK    1  A    between atoms: O_2  and  C_3
REMARK    2  A    between atoms: C_14  and  O_15
REMARK                            x       y       z     vdW  Elec       q    Type
REMARK                         _______ _______ _______ _____ _____    ______ ____
ROOT
ATOM      1  C   UNL     1      33.695  -4.074  34.014  0.00  0.00    +0.000 A 
ATOM      2  C   UNL     1      33.975  -4.014  35.379  0.00  0.00    +0.000 A 
ATOM      3  C   UNL     1      34.072  -2.744  35.929  0.00  0.00    +0.000 A 
ATOM      4  C   UNL     1      33.901  -1.609  35.179  0.00  0.00    +0.000 A 
ATOM      5  C   UNL     1      33.624  -1.674  33.833  0.00  0.00    +0.000 A 
ATOM      6  C   UNL     1      33.522  -2.929  33.257  0.00  0.00    +0.000 A 
ATOM      7  N   UNL     1      33.515  -0.413  33.387  0.00  0.00    +0.000 NA
ATOM      8  C   UNL     1      33.706   0.451  34.371  0.00  0.00    +0.000 A 
ATOM      9  C   UNL     1      33.694   1.825  34.401  0.00  0.00    +0.000 A 
ATOM     10  C   UNL     1      33.449   2.553  33.266  0.00  0.00    +0.000 A 
ATOM     11  C   UNL     1      33.451   3.950  33.362  0.00  0.00    +0.000 A 
ATOM     12  C   UNL     1      33.690   4.577  34.564  0.00  0.00    +0.000 A 
ATOM     13  C   UNL     1      33.929   3.794  35.670  0.00  0.00    +0.000 A 
ATOM     14  C   UNL     1      33.934   2.438  35.604  0.00  0.00    +0.000 A 
ATOM     15  O   UNL     1      34.172   1.729  36.708  0.00  0.00    +0.000 OA
ATOM     16  C   UNL     1      34.189   0.418  36.706  0.00  0.00    +0.000 A 
ATOM     17  O   UNL     1      34.412  -0.263  37.743  0.00  0.00    +0.000 OA
ATOM     18  C   UNL     1      33.957  -0.286  35.537  0.00  0.00    +0.000 A 
ENDROOT
BRANCH   1  20
ATOM     19  C   UNL     1      34.135  -5.577  32.118  0.00  0.00    +0.000 C 
ATOM     20  O   UNL     1      33.580  -5.283  33.381  0.00  0.00    +0.000 OA
ENDBRANCH   1  20
BRANCH  12  21
ATOM     21  O   UNL     1      33.697   5.946  34.690  0.00  0.00    +0.000 OA
ATOM     22  C   UNL     1      34.034   6.571  35.889  0.00  0.00    +0.000 C 
ENDBRANCH  12  21
TORSDOF 2
ENDMDL
MODEL 5
REMARK VINA RESULT:      -6.5     19.259     21.373
REMARK  Name = 
REMARK  2 active torsions:
REMARK  status: ('A' for Active; 'I' for Inactive)
REMARK    1  A    between atoms: O_2  and  C_3
REMARK    2  A    between atoms: C_14  and  O_15
REMARK                            x       y       z     vdW  Elec       q    Type
REMARK                         _______ _______ _______ _____ _____    ______ ____
ROOT
ATOM      1  C   UNL     1      29.046  24.661  21.664  0.00  0.00    +0.000 A 
ATOM      2  C   UNL     1      27.687  24.373  21.790  0.00  0.00    +0.000 A 
ATOM      3  C   UNL     1      27.257  23.987  23.052  0.00  0.00    +0.000 A 
ATOM      4  C   UNL     1      28.114  23.894  24.118  0.00  0.00    +0.000 A 
ATOM      5  C   UNL     1      29.454  24.180  23.988  0.00  0.00    +0.000 A 
ATOM      6  C   UNL     1      29.911  24.567  22.740  0.00  0.00    +0.000 A 
ATOM      7  N   UNL     1      30.019  23.998  25.192  0.00  0.00    +0.000 NA
ATOM      8  C   UNL     1      29.117  23.613  26.080  0.00  0.00    +0.000 A 
ATOM      9  C   UNL     1      29.217  23.311  27.417  0.00  0.00    +0.000 A 
ATOM     10  C   UNL     1      30.421  23.383  28.069  0.00  0.00    +0.000 A 
ATOM     11  C   UNL     1      30.456  23.062  29.431  0.00  0.00    +0.000 A 
ATOM     12  C   UNL     1      29.314  22.684  30.101  0.00  0.00    +0.000 A 
ATOM     13  C   UNL     1      28.134  22.630  29.395  0.00  0.00    +0.000 A 
ATOM     14  C   UNL     1      28.072  22.936  28.073  0.00  0.00    +0.000 A 
ATOM     15  O   UNL     1      26.901  22.865  27.438  0.00  0.00    +0.000 OA
ATOM     16  C   UNL     1      26.779  23.149  26.164  0.00  0.00    +0.000 A 
ATOM     17  O   UNL     1      25.678  23.086  25.554  0.00  0.00    +0.000 OA
ATOM     18  C   UNL     1      27.882  23.536  25.422  0.00  0.00    +0.000 A 
ENDROOT
BRANCH   1  20
ATOM     19  C   UNL     1      29.697  26.393  20.044  0.00  0.00    +0.000 C 
ATOM     20  O   UNL     1      29.564  25.050  20.458  0.00  0.00    +0.000 OA
ENDBRANCH   1  20
BRANCH  12  21
ATOM     21  O   UNL     1      29.318  22.364  31.438  0.00  0.00    +0.000 OA
ATOM     22  C   UNL     1      30.455  21.861  32.067  0.00  0.00    +0.000 C 
ENDBRANCH  12  21
TORSDOF 2
ENDMDL
MODEL 6
REMARK VINA RESULT:      -6.5     19.379     20.616
REMARK  Name = 
REMARK  2 active torsions:
REMARK  status: ('A' for Active; 'I' for Inactive)
REMARK    1  A    between atoms: O_2  and  C_3
REMARK    2  A    between atoms: C_14  and  O_15
REMARK                            x       y       z     vdW  Elec       q    Type
REMARK                         _______ _______ _______ _____ _____    ______ ____
ROOT
ATOM      1  C   UNL     1      28.198  23.029  24.051  0.00  0.00    +0.000 A 
ATOM      2  C   UNL     1      27.150  23.240  24.947  0.00  0.00    +0.000 A 
ATOM      3  C   UNL     1      27.464  23.131  26.294  0.00  0.00    +0.000 A 
ATOM      4  C   UNL     1      28.732  22.835  26.726  0.00  0.00    +0.000 A 
ATOM      5  C   UNL     1      29.762  22.628  25.838  0.00  0.00    +0.000 A 
ATOM      6  C   UNL     1      29.477  22.730  24.486  0.00  0.00    +0.000 A 
ATOM      7  N   UNL     1      30.863  22.361  26.558  0.00  0.00    +0.000 NA
ATOM      8  C   UNL     1      30.592  22.386  27.854  0.00  0.00    +0.000 A 
ATOM      9  C   UNL     1      31.381  22.178  28.960  0.00  0.00    +0.000 A 
ATOM     10  C   UNL     1      32.714  21.883  28.831  0.00  0.00    +0.000 A 
ATOM     11  C   UNL     1      33.463  21.682  29.995  0.00  0.00    +0.000 A 
ATOM     12  C   UNL     1      32.880  21.778  31.239  0.00  0.00    +0.000 A 
ATOM     13  C   UNL     1      31.539  22.078  31.307  0.00  0.00    +0.000 A 
ATOM     14  C   UNL     1      30.789  22.277  30.193  0.00  0.00    +0.000 A 
ATOM     15  O   UNL     1      29.492  22.564  30.318  0.00  0.00    +0.000 OA
ATOM     16  C   UNL     1      28.719  22.767  29.279  0.00  0.00    +0.000 A 
ATOM     17  O   UNL     1      27.493  23.040  29.385  0.00  0.00    +0.000 OA
ATOM     18  C   UNL     1      29.231  22.687  27.996  0.00  0.00    +0.000 A 
ENDROOT
BRANCH   1  20
ATOM     19  C   UNL     1      28.673  23.998  21.841  0.00  0.00    +0.000 C 
ATOM     20  O   UNL     1      27.986  23.115  22.701  0.00  0.00    +0.000 OA
ENDBRANCH   1  20
BRANCH  12  21
ATOM     21  O   UNL     1      33.591  21.587  32.400  0.00  0.00    +0.000 OA
ATOM     22  C   UNL     1      34.718  20.770  32.443  0.00  0.00    +0.000 C 
ENDBRANCH  12  21
TORSDOF 2
ENDMDL
MODEL 7
REMARK VINA RESULT:      -6.3     19.044     21.528
REMARK  Name = 
REMARK  2 active torsions:
REMARK  status: ('A' for Active; 'I' for Inactive)
REMARK    1  A    between atoms: O_2  and  C_3
REMARK    2  A    between atoms: C_14  and  O_15
REMARK                            x       y       z     vdW  Elec       q    Type
REMARK                         _______ _______ _______ _____ _____    ______ ____
ROOT
ATOM      1  C   UNL     1      32.178  21.852  31.767  0.00  0.00    +0.000 A 
ATOM      2  C   UNL     1      30.886  22.103  32.229  0.00  0.00    +0.000 A 
ATOM      3  C   UNL     1      29.927  22.357  31.259  0.00  0.00    +0.000 A 
ATOM      4  C   UNL     1      30.226  22.360  29.921  0.00  0.00    +0.000 A 
ATOM      5  C   UNL     1      31.503  22.111  29.470  0.00  0.00    +0.000 A 
ATOM      6  C   UNL     1      32.480  21.855  30.417  0.00  0.00    +0.000 A 
ATOM      7  N   UNL     1      31.474  22.184  28.131  0.00  0.00    +0.000 NA
ATOM      8  C   UNL     1      30.254  22.465  27.702  0.00  0.00    +0.000 A 
ATOM      9  C   UNL     1      29.743  22.637  26.438  0.00  0.00    +0.000 A 
ATOM     10  C   UNL     1      30.544  22.522  25.331  0.00  0.00    +0.000 A 
ATOM     11  C   UNL     1      29.963  22.709  24.071  0.00  0.00    +0.000 A 
ATOM     12  C   UNL     1      28.623  23.000  23.944  0.00  0.00    +0.000 A 
ATOM     13  C   UNL     1      27.869  23.103  25.091  0.00  0.00    +0.000 A 
ATOM     14  C   UNL     1      28.407  22.927  26.324  0.00  0.00    +0.000 A 
ATOM     15  O   UNL     1      27.629  23.039  27.402  0.00  0.00    +0.000 OA
ATOM     16  C   UNL     1      28.091  22.879  28.618  0.00  0.00    +0.000 A 
ATOM     17  O   UNL     1      27.365  22.982  29.643  0.00  0.00    +0.000 OA
ATOM     18  C   UNL     1      29.428  22.584  28.827  0.00  0.00    +0.000 A 
ENDROOT
BRANCH   1  20
ATOM     19  C   UNL     1      34.358  20.863  32.330  0.00  0.00    +0.000 C 
ATOM     20  O   UNL     1      33.193  21.591  32.650  0.00  0.00    +0.000 OA
ENDBRANCH   1  20
BRANCH  12  21
ATOM     21  O   UNL     1      28.025  23.188  22.721  0.00  0.00    +0.000 OA
ATOM     22  C   UNL     1      27.771  24.463  22.218  0.00  0.00    +0.000 C 
ENDBRANCH  12  21
TORSDOF 2
ENDMDL
MODEL 8
REMARK VINA RESULT:      -6.2     22.219     23.963
REMARK  Name = 
REMARK  2 active torsions:
REMARK  status: ('A' for Active; 'I' for Inactive)
REMARK    1  A    between atoms: O_2  and  C_3
REMARK    2  A    between atoms: C_14  and  O_15
REMARK                            x       y       z     vdW  Elec       q    Type
REMARK                         _______ _______ _______ _____ _____    ______ ____
ROOT
ATOM      1  C   UNL     1      19.335  -6.939  26.260  0.00  0.00    +0.000 A 
ATOM      2  C   UNL     1      19.416  -8.281  26.633  0.00  0.00    +0.000 A 
ATOM      3  C   UNL     1      20.573  -8.951  26.262  0.00  0.00    +0.000 A 
ATOM      4  C   UNL     1      21.583  -8.334  25.569  0.00  0.00    +0.000 A 
ATOM      5  C   UNL     1      21.497  -7.010  25.203  0.00  0.00    +0.000 A 
ATOM      6  C   UNL     1      20.353  -6.316  25.561  0.00  0.00    +0.000 A 
ATOM      7  N   UNL     1      22.627  -6.704  24.546  0.00  0.00    +0.000 NA
ATOM      8  C   UNL     1      23.426  -7.756  24.472  0.00  0.00    +0.000 A 
ATOM      9  C   UNL     1      24.667  -7.928  23.906  0.00  0.00    +0.000 A 
ATOM     10  C   UNL     1      25.302  -6.892  23.270  0.00  0.00    +0.000 A 
ATOM     11  C   UNL     1      26.564  -7.131  22.714  0.00  0.00    +0.000 A 
ATOM     12  C   UNL     1      27.154  -8.372  22.802  0.00  0.00    +0.000 A 
ATOM     13  C   UNL     1      26.470  -9.373  23.452  0.00  0.00    +0.000 A 
ATOM     14  C   UNL     1      25.244  -9.168  24.000  0.00  0.00    +0.000 A 
ATOM     15  O   UNL     1      24.626 -10.176  24.618  0.00  0.00    +0.000 OA
ATOM     16  C   UNL     1      23.443 -10.038  25.166  0.00  0.00    +0.000 A 
ATOM     17  O   UNL     1      22.849 -10.982  25.753  0.00  0.00    +0.000 OA
ATOM     18  C   UNL     1      22.784  -8.821  25.119  0.00  0.00    +0.000 A 
ENDROOT
BRANCH   1  20
ATOM     19  C   UNL     1      17.038  -6.728  27.113  0.00  0.00    +0.000 C 
ATOM     20  O   UNL     1      18.231  -6.194  26.582  0.00  0.00    +0.000 OA
ENDBRANCH   1  20
BRANCH  12  21
ATOM     21  O   UNL     1      28.392  -8.636  22.266  0.00  0.00    +0.000 OA
ATOM     22  C   UNL     1      29.294  -7.616  21.968  0.00  0.00    +0.000 C 
ENDBRANCH  12  21
TORSDOF 2
ENDMDL
MODEL 9
REMARK VINA RESULT:      -6.1     20.212     23.369
REMARK  Name = 
REMARK  2 active torsions:
REMARK  status: ('A' for Active; 'I' for Inactive)
REMARK    1  A    between atoms: O_2  and  C_3
REMARK    2  A    between atoms: C_14  and  O_15
REMARK                            x       y       z     vdW  Elec       q    Type
REMARK                         _______ _______ _______ _____ _____    ______ ____
ROOT
ATOM      1  C   UNL     1      26.949  23.189  28.415  0.00  0.00    +0.000 A 
ATOM      2  C   UNL     1      27.929  22.263  28.056  0.00  0.00    +0.000 A 
ATOM      3  C   UNL     1      28.525  22.451  26.817  0.00  0.00    +0.000 A 
ATOM      4  C   UNL     1      28.177  23.489  25.991  0.00  0.00    +0.000 A 
ATOM      5  C   UNL     1      27.211  24.400  26.350  0.00  0.00    +0.000 A 
ATOM      6  C   UNL     1      26.598  24.236  27.581  0.00  0.00    +0.000 A 
ATOM      7  N   UNL     1      27.100  25.281  25.344  0.00  0.00    +0.000 NA
ATOM      8  C   UNL     1      27.939  24.984  24.365  0.00  0.00    +0.000 A 
ATOM      9  C   UNL     1      28.184  25.583  23.153  0.00  0.00    +0.000 A 
ATOM     10  C   UNL     1      27.496  26.706  22.769  0.00  0.00    +0.000 A 
ATOM     11  C   UNL     1      27.792  27.269  21.522  0.00  0.00    +0.000 A 
ATOM     12  C   UNL     1      28.747  26.713  20.701  0.00  0.00    +0.000 A 
ATOM     13  C   UNL     1      29.405  25.587  21.140  0.00  0.00    +0.000 A 
ATOM     14  C   UNL     1      29.138  25.020  22.344  0.00  0.00    +0.000 A 
ATOM     15  O   UNL     1      29.806  23.928  22.718  0.00  0.00    +0.000 OA
ATOM     16  C   UNL     1      29.592  23.338  23.869  0.00  0.00    +0.000 A 
ATOM     17  O   UNL     1      30.217  22.306  24.233  0.00  0.00    +0.000 OA
ATOM     18  C   UNL     1      28.647  23.837  24.749  0.00  0.00    +0.000 A 
ENDROOT
BRANCH   1  20
ATOM     19  C   UNL     1      26.055  24.171  30.484  0.00  0.00    +0.000 C 
ATOM     20  O   UNL     1      26.304  23.086  29.619  0.00  0.00    +0.000 OA
ENDBRANCH   1  20
BRANCH  12  21
ATOM     21  O   UNL     1      29.059  27.244  19.472  0.00  0.00    +0.000 OA
ATOM     22  C   UNL     1      30.379  27.389  19.051  0.00  0.00    +0.000 C 
ENDBRANCH  12  21
TORSDOF 2
ENDMDL
MODEL 10
REMARK VINA RESULT:      -5.9     22.069     23.753
REMARK  Name = 
REMARK  2 active torsions:
REMARK  status: ('A' for Active; 'I' for Inactive)
REMARK    1  A    between atoms: O_2  and  C_3
REMARK    2  A    between atoms: C_14  and  O_15
REMARK                            x       y       z     vdW  Elec       q    Type
REMARK                         _______ _______ _______ _____ _____    ______ ____
ROOT
ATOM      1  C   UNL     1      26.407  -9.571  23.536  0.00  0.00    +0.000 A 
ATOM      2  C   UNL     1      26.310  -8.300  22.970  0.00  0.00    +0.000 A 
ATOM      3  C   UNL     1      25.156  -7.586  23.260  0.00  0.00    +0.000 A 
ATOM      4  C   UNL     1      24.164  -8.096  24.058  0.00  0.00    +0.000 A 
ATOM      5  C   UNL     1      24.265  -9.350  24.615  0.00  0.00    +0.000 A 
ATOM      6  C   UNL     1      25.406 -10.086  24.341  0.00  0.00    +0.000 A 
ATOM      7  N   UNL     1      23.151  -9.558  25.333  0.00  0.00    +0.000 NA
ATOM      8  C   UNL     1      22.347  -8.510  25.267  0.00  0.00    +0.000 A 
ATOM      9  C   UNL     1      21.116  -8.260  25.826  0.00  0.00    +0.000 A 
ATOM     10  C   UNL     1      20.501  -9.191  26.622  0.00  0.00    +0.000 A 
ATOM     11  C   UNL     1      19.248  -8.876  27.161  0.00  0.00    +0.000 A 
ATOM     12  C   UNL     1      18.649  -7.664  26.902  0.00  0.00    +0.000 A 
ATOM     13  C   UNL     1      19.314  -6.768  26.097  0.00  0.00    +0.000 A 
ATOM     14  C   UNL     1      20.530  -7.049  25.561  0.00  0.00    +0.000 A 
ATOM     15  O   UNL     1      21.129  -6.143  24.786  0.00  0.00    +0.000 OA
ATOM     16  C   UNL     1      22.302  -6.357  24.242  0.00  0.00    +0.000 A 
ATOM     17  O   UNL     1      22.879  -5.508  23.509  0.00  0.00    +0.000 OA
ATOM     18  C   UNL     1      22.969  -7.551  24.455  0.00  0.00    +0.000 A 
ENDROOT
BRANCH   1  20
ATOM     19  C   UNL     1      27.517 -11.494  22.480  0.00  0.00    +0.000 C 
ATOM     20  O   UNL     1      27.509 -10.351  23.307  0.00  0.00    +0.000 OA
ENDBRANCH   1  20
BRANCH  12  21
ATOM     21  O   UNL     1      17.420  -7.327  27.418  0.00  0.00    +0.000 OA
ATOM     22  C   UNL     1      16.233  -7.710  26.796  0.00  0.00    +0.000 C 
ENDBRANCH  12  21
TORSDOF 2
ENDMDL
