MODEL 1
REMARK VINA RESULT:      -7.0      0.000      0.000
REMARK  Name = 
REMARK  3 active torsions:
REMARK  status: ('A' for Active; 'I' for Inactive)
REMARK    1  A    between atoms: C_2  and  C_14
REMARK    2  A    between atoms: N_3  and  C_4
REMARK    3  A    between atoms: C_17  and  N_18
REMARK                            x       y       z     vdW  Elec       q    Type
REMARK                         _______ _______ _______ _____ _____    ______ ____
ROOT
ATOM      1  O   UNL     1      19.090  10.969  38.753  0.00  0.00    +0.000 OA
ATOM      2  C   UNL     1      18.018  10.445  38.370  0.00  0.00    +0.000 C 
ATOM      3  N   UNL     1      17.268   9.724  39.329  0.00  0.00    +0.000 NA
ENDROOT
BRANCH   3   4
ATOM      4  C   UNL     1      17.624   9.543  40.703  0.00  0.00    +0.000 C 
ATOM      5  C   UNL     1      16.362   9.662  41.543  0.00  0.00    +0.000 C 
ATOM      6  C   UNL     1      16.729   9.650  43.031  0.00  0.00    +0.000 C 
ATOM      7  C   UNL     1      17.543   8.408  43.326  0.00  0.00    +0.000 C 
ATOM      8  C   UNL     1      16.628   7.217  43.042  0.00  0.00    +0.000 C 
ATOM      9  C   UNL     1      16.229   7.213  41.581  0.00  0.00    +0.000 C 
ATOM     10  C   UNL     1      15.479   8.470  41.197  0.00  0.00    +0.000 C 
ATOM     11  C   UNL     1      17.503   7.033  40.763  0.00  0.00    +0.000 C 
ATOM     12  C   UNL     1      18.357   8.266  41.005  0.00  0.00    +0.000 C 
ATOM     13  C   UNL     1      18.785   8.355  42.460  0.00  0.00    +0.000 C 
ENDBRANCH   3   4
BRANCH   2  14
ATOM     14  C   UNL     1      17.533  10.551  37.003  0.00  0.00    +0.000 A 
ATOM     15  C   UNL     1      18.068   9.830  35.960  0.00  0.00    +0.000 A 
ATOM     16  C   UNL     1      17.596   9.936  34.666  0.00  0.00    +0.000 A 
ATOM     17  C   UNL     1      16.554  10.776  34.343  0.00  0.00    +0.000 A 
ATOM     18  C   UNL     1      16.012  11.503  35.380  0.00  0.00    +0.000 A 
ATOM     19  C   UNL     1      16.482  11.400  36.680  0.00  0.00    +0.000 A 
BRANCH  17  20
ATOM     20  N   UNL     1      16.058  10.891  33.001  0.00  0.00    +0.000 N 
ATOM     21  O   UNL     1      16.665  10.320  32.076  0.00  0.00    +0.000 OA
ATOM     22  O   UNL     1      14.944  11.600  32.690  0.00  0.00    +0.000 OA
ENDBRANCH  17  20
ENDBRANCH   2  14
TORSDOF 3
ENDMDL
MODEL 2
REMARK VINA RESULT:      -7.0     21.001     22.352
REMARK  Name = 
REMARK  3 active torsions:
REMARK  status: ('A' for Active; 'I' for Inactive)
REMARK    1  A    between atoms: C_2  and  C_14
REMARK    2  A    between atoms: N_3  and  C_4
REMARK    3  A    between atoms: C_17  and  N_18
REMARK                            x       y       z     vdW  Elec       q    Type
REMARK                         _______ _______ _______ _____ _____    ______ ____
ROOT
ATOM      1  O   UNL     1      33.347  -3.524  35.032  0.00  0.00    +0.000 OA
ATOM      2  C   UNL     1      33.441  -2.982  33.907  0.00  0.00    +0.000 C 
ATOM      3  N   UNL     1      33.492  -3.833  32.777  0.00  0.00    +0.000 NA
ENDROOT
BRANCH   3   4
ATOM      4  C   UNL     1      33.442  -5.263  32.808  0.00  0.00    +0.000 C 
ATOM      5  C   UNL     1      32.682  -5.740  31.580  0.00  0.00    +0.000 C 
ATOM      6  C   UNL     1      32.457  -7.254  31.669  0.00  0.00    +0.000 C 
ATOM      7  C   UNL     1      33.792  -7.939  31.864  0.00  0.00    +0.000 C 
ATOM      8  C   UNL     1      34.615  -7.644  30.610  0.00  0.00    +0.000 C 
ATOM      9  C   UNL     1      34.836  -6.152  30.482  0.00  0.00    +0.000 C 
ATOM     10  C   UNL     1      33.532  -5.394  30.364  0.00  0.00    +0.000 C 
ATOM     11  C   UNL     1      35.650  -5.708  31.692  0.00  0.00    +0.000 C 
ATOM     12  C   UNL     1      34.780  -5.941  32.914  0.00  0.00    +0.000 C 
ATOM     13  C   UNL     1      34.492  -7.421  33.104  0.00  0.00    +0.000 C 
ENDBRANCH   3   4
BRANCH   2  14
ATOM     14  C   UNL     1      33.497  -1.540  33.728  0.00  0.00    +0.000 A 
ATOM     15  C   UNL     1      34.313  -0.930  32.802  0.00  0.00    +0.000 A 
ATOM     16  C   UNL     1      34.354   0.440  32.638  0.00  0.00    +0.000 A 
ATOM     17  C   UNL     1      33.576   1.284  33.399  0.00  0.00    +0.000 A 
ATOM     18  C   UNL     1      32.757   0.684  34.330  0.00  0.00    +0.000 A 
ATOM     19  C   UNL     1      32.710  -0.691  34.497  0.00  0.00    +0.000 A 
BRANCH  17  20
ATOM     20  N   UNL     1      33.614   2.709  33.234  0.00  0.00    +0.000 N 
ATOM     21  O   UNL     1      33.682   3.188  32.086  0.00  0.00    +0.000 OA
ATOM     22  O   UNL     1      33.577   3.569  34.282  0.00  0.00    +0.000 OA
ENDBRANCH  17  20
ENDBRANCH   2  14
TORSDOF 3
ENDMDL
MODEL 3
REMARK VINA RESULT:      -6.9      4.278      5.987
REMARK  Name = 
REMARK  3 active torsions:
REMARK  status: ('A' for Active; 'I' for Inactive)
REMARK    1  A    between atoms: C_2  and  C_14
REMARK    2  A    between atoms: N_3  and  C_4
REMARK    3  A    between atoms: C_17  and  N_18
REMARK                            x       y       z     vdW  Elec       q    Type
REMARK                         _______ _______ _______ _____ _____    ______ ____
ROOT
ATOM      1  O   UNL     1      19.599   9.156  38.681  0.00  0.00    +0.000 OA
ATOM      2  C   UNL     1      19.782   9.750  37.593  0.00  0.00    +0.000 C 
ATOM      3  N   UNL     1      21.116  10.064  37.241  0.00  0.00    +0.000 NA
ENDROOT
BRANCH   3   4
ATOM      4  C   UNL     1      22.278   9.760  38.019  0.00  0.00    +0.000 C 
ATOM      5  C   UNL     1      23.347   9.214  37.085  0.00  0.00    +0.000 C 
ATOM      6  C   UNL     1      24.541   8.714  37.905  0.00  0.00    +0.000 C 
ATOM      7  C   UNL     1      25.028   9.834  38.800  0.00  0.00    +0.000 C 
ATOM      8  C   UNL     1      25.510  10.948  37.871  0.00  0.00    +0.000 C 
ATOM      9  C   UNL     1      24.355  11.450  37.030  0.00  0.00    +0.000 C 
ATOM     10  C   UNL     1      23.766  10.355  36.167  0.00  0.00    +0.000 C 
ATOM     11  C   UNL     1      23.324  12.046  37.983  0.00  0.00    +0.000 C 
ATOM     12  C   UNL     1      22.808  10.903  38.839  0.00  0.00    +0.000 C 
ATOM     13  C   UNL     1      23.917  10.326  39.705  0.00  0.00    +0.000 C 
ENDBRANCH   3   4
BRANCH   2  14
ATOM     14  C   UNL     1      18.693  10.117  36.702  0.00  0.00    +0.000 A 
ATOM     15  C   UNL     1      17.846  11.174  36.949  0.00  0.00    +0.000 A 
ATOM     16  C   UNL     1      16.818  11.516  36.093  0.00  0.00    +0.000 A 
ATOM     17  C   UNL     1      16.578  10.814  34.933  0.00  0.00    +0.000 A 
ATOM     18  C   UNL     1      17.420   9.754  34.677  0.00  0.00    +0.000 A 
ATOM     19  C   UNL     1      18.454   9.406  35.532  0.00  0.00    +0.000 A 
BRANCH  17  20
ATOM     20  N   UNL     1      15.512  11.164  34.038  0.00  0.00    +0.000 N 
ATOM     21  O   UNL     1      14.874  12.216  34.233  0.00  0.00    +0.000 OA
ATOM     22  O   UNL     1      15.164  10.395  32.977  0.00  0.00    +0.000 OA
ENDBRANCH  17  20
ENDBRANCH   2  14
TORSDOF 3
ENDMDL
MODEL 4
REMARK VINA RESULT:      -6.6     21.169     22.677
REMARK  Name = 
REMARK  3 active torsions:
REMARK  status: ('A' for Active; 'I' for Inactive)
REMARK    1  A    between atoms: C_2  and  C_14
REMARK    2  A    between atoms: N_3  and  C_4
REMARK    3  A    between atoms: C_17  and  N_18
REMARK                            x       y       z     vdW  Elec       q    Type
REMARK                         _______ _______ _______ _____ _____    ______ ____
ROOT
ATOM      1  O   UNL     1      32.905  -4.563  34.891  0.00  0.00    +0.000 OA
ATOM      2  C   UNL     1      33.128  -3.768  33.948  0.00  0.00    +0.000 C 
ATOM      3  N   UNL     1      33.273  -4.319  32.653  0.00  0.00    +0.000 NA
ENDROOT
BRANCH   3   4
ATOM      4  C   UNL     1      33.182  -5.709  32.323  0.00  0.00    +0.000 C 
ATOM      5  C   UNL     1      32.574  -5.831  30.935  0.00  0.00    +0.000 C 
ATOM      6  C   UNL     1      32.299  -7.305  30.620  0.00  0.00    +0.000 C 
ATOM      7  C   UNL     1      33.580  -8.093  30.795  0.00  0.00    +0.000 C 
ATOM      8  C   UNL     1      34.564  -7.550  29.759  0.00  0.00    +0.000 C 
ATOM      9  C   UNL     1      34.840  -6.087  30.031  0.00  0.00    +0.000 C 
ATOM     10  C   UNL     1      33.581  -5.249  29.951  0.00  0.00    +0.000 C 
ATOM     11  C   UNL     1      35.503  -5.996  31.401  0.00  0.00    +0.000 C 
ATOM     12  C   UNL     1      34.476  -6.468  32.416  0.00  0.00    +0.000 C 
ATOM     13  C   UNL     1      34.128  -7.931  32.198  0.00  0.00    +0.000 C 
ENDBRANCH   3   4
BRANCH   2  14
ATOM     14  C   UNL     1      33.242  -2.331  34.139  0.00  0.00    +0.000 A 
ATOM     15  C   UNL     1      32.677  -1.669  35.207  0.00  0.00    +0.000 A 
ATOM     16  C   UNL     1      32.796  -0.304  35.380  0.00  0.00    +0.000 A 
ATOM     17  C   UNL     1      33.491   0.481  34.488  0.00  0.00    +0.000 A 
ATOM     18  C   UNL     1      34.059  -0.172  33.415  0.00  0.00    +0.000 A 
ATOM     19  C   UNL     1      33.944  -1.541  33.237  0.00  0.00    +0.000 A 
BRANCH  17  20
ATOM     20  N   UNL     1      33.618   1.900  34.661  0.00  0.00    +0.000 N 
ATOM     21  O   UNL     1      33.448   2.651  33.683  0.00  0.00    +0.000 OA
ATOM     22  O   UNL     1      33.916   2.467  35.857  0.00  0.00    +0.000 OA
ENDBRANCH  17  20
ENDBRANCH   2  14
TORSDOF 3
ENDMDL
MODEL 5
REMARK VINA RESULT:      -6.6     17.510     18.730
REMARK  Name = 
REMARK  3 active torsions:
REMARK  status: ('A' for Active; 'I' for Inactive)
REMARK    1  A    between atoms: C_2  and  C_14
REMARK    2  A    between atoms: N_3  and  C_4
REMARK    3  A    between atoms: C_17  and  N_18
REMARK                            x       y       z     vdW  Elec       q    Type
REMARK                         _______ _______ _______ _____ _____    ______ ____
ROOT
ATOM      1  O   UNL     1      33.673   7.141  37.842  0.00  0.00    +0.000 OA
ATOM      2  C   UNL     1      33.929   7.095  36.617  0.00  0.00    +0.000 C 
ATOM      3  N   UNL     1      34.306   8.304  35.986  0.00  0.00    +0.000 NA
ENDROOT
BRANCH   3   4
ATOM      4  C   UNL     1      34.425   9.578  36.627  0.00  0.00    +0.000 C 
ATOM      5  C   UNL     1      35.783   9.646  37.305  0.00  0.00    +0.000 C 
ATOM      6  C   UNL     1      35.876  10.923  38.148  0.00  0.00    +0.000 C 
ATOM      7  C   UNL     1      35.575  12.117  37.267  0.00  0.00    +0.000 C 
ATOM      8  C   UNL     1      36.672  12.155  36.205  0.00  0.00    +0.000 C 
ATOM      9  C   UNL     1      36.622  10.895  35.368  0.00  0.00    +0.000 C 
ATOM     10  C   UNL     1      36.836   9.651  36.204  0.00  0.00    +0.000 C 
ATOM     11  C   UNL     1      35.276  10.879  34.651  0.00  0.00    +0.000 C 
ATOM     12  C   UNL     1      34.209  10.762  35.726  0.00  0.00    +0.000 C 
ATOM     13  C   UNL     1      34.207  11.987  36.627  0.00  0.00    +0.000 C 
ENDBRANCH   3   4
BRANCH   2  14
ATOM     14  C   UNL     1      33.853   5.867  35.841  0.00  0.00    +0.000 A 
ATOM     15  C   UNL     1      34.397   4.676  36.267  0.00  0.00    +0.000 A 
ATOM     16  C   UNL     1      34.314   3.516  35.523  0.00  0.00    +0.000 A 
ATOM     17  C   UNL     1      33.678   3.482  34.303  0.00  0.00    +0.000 A 
ATOM     18  C   UNL     1      33.130   4.669  33.867  0.00  0.00    +0.000 A 
ATOM     19  C   UNL     1      33.210   5.836  34.610  0.00  0.00    +0.000 A 
BRANCH  17  20
ATOM     20  N   UNL     1      33.588   2.279  33.525  0.00  0.00    +0.000 N 
ATOM     21  O   UNL     1      33.928   2.301  32.327  0.00  0.00    +0.000 OA
ATOM     22  O   UNL     1      33.146   1.105  34.040  0.00  0.00    +0.000 OA
ENDBRANCH  17  20
ENDBRANCH   2  14
TORSDOF 3
ENDMDL
MODEL 6
REMARK VINA RESULT:      -6.3     21.053     22.187
REMARK  Name = 
REMARK  3 active torsions:
REMARK  status: ('A' for Active; 'I' for Inactive)
REMARK    1  A    between atoms: C_2  and  C_14
REMARK    2  A    between atoms: N_3  and  C_4
REMARK    3  A    between atoms: C_17  and  N_18
REMARK                            x       y       z     vdW  Elec       q    Type
REMARK                         _______ _______ _______ _____ _____    ______ ____
ROOT
ATOM      1  O   UNL     1      34.779  -4.979  34.682  0.00  0.00    +0.000 OA
ATOM      2  C   UNL     1      34.052  -4.471  33.798  0.00  0.00    +0.000 C 
ATOM      3  N   UNL     1      33.517  -3.187  34.055  0.00  0.00    +0.000 NA
ENDROOT
BRANCH   3   4
ATOM      4  C   UNL     1      33.737  -2.413  35.239  0.00  0.00    +0.000 C 
ATOM      5  C   UNL     1      34.938  -1.511  35.002  0.00  0.00    +0.000 C 
ATOM      6  C   UNL     1      35.311  -0.796  36.305  0.00  0.00    +0.000 C 
ATOM      7  C   UNL     1      34.094  -0.065  36.832  0.00  0.00    +0.000 C 
ATOM      8  C   UNL     1      33.740   0.989  35.784  0.00  0.00    +0.000 C 
ATOM      9  C   UNL     1      33.386   0.315  34.476  0.00  0.00    +0.000 C 
ATOM     10  C   UNL     1      34.538  -0.503  33.932  0.00  0.00    +0.000 C 
ATOM     11  C   UNL     1      32.146  -0.536  34.723  0.00  0.00    +0.000 C 
ATOM     12  C   UNL     1      32.548  -1.621  35.707  0.00  0.00    +0.000 C 
ATOM     13  C   UNL     1      32.939  -1.022  37.049  0.00  0.00    +0.000 C 
ENDBRANCH   3   4
BRANCH   2  14
ATOM     14  C   UNL     1      33.747  -5.144  32.545  0.00  0.00    +0.000 A 
ATOM     15  C   UNL     1      32.478  -5.555  32.204  0.00  0.00    +0.000 A 
ATOM     16  C   UNL     1      32.200  -6.188  31.009  0.00  0.00    +0.000 A 
ATOM     17  C   UNL     1      33.184  -6.449  30.082  0.00  0.00    +0.000 A 
ATOM     18  C   UNL     1      34.458  -6.043  30.414  0.00  0.00    +0.000 A 
ATOM     19  C   UNL     1      34.743  -5.406  31.611  0.00  0.00    +0.000 A 
BRANCH  17  20
ATOM     20  N   UNL     1      32.902  -7.107  28.838  0.00  0.00    +0.000 N 
ATOM     21  O   UNL     1      33.278  -6.583  27.773  0.00  0.00    +0.000 OA
ATOM     22  O   UNL     1      32.239  -8.288  28.768  0.00  0.00    +0.000 OA
ENDBRANCH  17  20
ENDBRANCH   2  14
TORSDOF 3
ENDMDL
MODEL 7
REMARK VINA RESULT:      -6.3     22.945     24.473
REMARK  Name = 
REMARK  3 active torsions:
REMARK  status: ('A' for Active; 'I' for Inactive)
REMARK    1  A    between atoms: C_2  and  C_14
REMARK    2  A    between atoms: N_3  and  C_4
REMARK    3  A    between atoms: C_17  and  N_18
REMARK                            x       y       z     vdW  Elec       q    Type
REMARK                         _______ _______ _______ _____ _____    ______ ____
ROOT
ATOM      1  O   UNL     1      25.143   3.244  14.350  0.00  0.00    +0.000 OA
ATOM      2  C   UNL     1      24.539   3.545  15.406  0.00  0.00    +0.000 C 
ATOM      3  N   UNL     1      25.185   4.439  16.293  0.00  0.00    +0.000 NA
ENDROOT
BRANCH   3   4
ATOM      4  C   UNL     1      26.471   5.034  16.088  0.00  0.00    +0.000 C 
ATOM      5  C   UNL     1      26.289   6.540  15.993  0.00  0.00    +0.000 C 
ATOM      6  C   UNL     1      27.617   7.196  15.599  0.00  0.00    +0.000 C 
ATOM      7  C   UNL     1      28.686   6.772  16.583  0.00  0.00    +0.000 C 
ATOM      8  C   UNL     1      28.259   7.320  17.944  0.00  0.00    +0.000 C 
ATOM      9  C   UNL     1      26.937   6.706  18.353  0.00  0.00    +0.000 C 
ATOM     10  C   UNL     1      25.836   7.025  17.364  0.00  0.00    +0.000 C 
ATOM     11  C   UNL     1      27.159   5.205  18.500  0.00  0.00    +0.000 C 
ATOM     12  C   UNL     1      27.505   4.677  17.119  0.00  0.00    +0.000 C 
ATOM     13  C   UNL     1      28.818   5.263  16.624  0.00  0.00    +0.000 C 
ENDBRANCH   3   4
BRANCH   2  14
ATOM     14  C   UNL     1      23.226   3.017  15.740  0.00  0.00    +0.000 A 
ATOM     15  C   UNL     1      22.231   2.835  14.806  0.00  0.00    +0.000 A 
ATOM     16  C   UNL     1      20.989   2.329  15.135  0.00  0.00    +0.000 A 
ATOM     17  C   UNL     1      20.671   1.974  16.427  0.00  0.00    +0.000 A 
ATOM     18  C   UNL     1      21.660   2.153  17.370  0.00  0.00    +0.000 A 
ATOM     19  C   UNL     1      22.908   2.659  17.045  0.00  0.00    +0.000 A 
BRANCH  17  20
ATOM     20  N   UNL     1      19.383   1.446  16.776  0.00  0.00    +0.000 N 
ATOM     21  O   UNL     1      18.750   1.959  17.717  0.00  0.00    +0.000 OA
ATOM     22  O   UNL     1      18.816   0.404  16.119  0.00  0.00    +0.000 OA
ENDBRANCH  17  20
ENDBRANCH   2  14
TORSDOF 3
ENDMDL
MODEL 8
REMARK VINA RESULT:      -6.3     20.547     22.098
REMARK  Name = 
REMARK  3 active torsions:
REMARK  status: ('A' for Active; 'I' for Inactive)
REMARK    1  A    between atoms: C_2  and  C_14
REMARK    2  A    between atoms: N_3  and  C_4
REMARK    3  A    between atoms: C_17  and  N_18
REMARK                            x       y       z     vdW  Elec       q    Type
REMARK                         _______ _______ _______ _____ _____    ______ ____
ROOT
ATOM      1  O   UNL     1      28.621  22.560  28.761  0.00  0.00    +0.000 OA
ATOM      2  C   UNL     1      29.535  22.825  27.945  0.00  0.00    +0.000 C 
ATOM      3  N   UNL     1      30.847  22.955  28.459  0.00  0.00    +0.000 NA
ENDROOT
BRANCH   3   4
ATOM      4  C   UNL     1      31.225  22.806  29.831  0.00  0.00    +0.000 C 
ATOM      5  C   UNL     1      31.843  21.429  30.009  0.00  0.00    +0.000 C 
ATOM      6  C   UNL     1      32.099  21.166  31.497  0.00  0.00    +0.000 C 
ATOM      7  C   UNL     1      32.944  22.291  32.057  0.00  0.00    +0.000 C 
ATOM      8  C   UNL     1      34.280  22.233  31.318  0.00  0.00    +0.000 C 
ATOM      9  C   UNL     1      34.059  22.468  29.838  0.00  0.00    +0.000 C 
ATOM     10  C   UNL     1      33.152  21.420  29.229  0.00  0.00    +0.000 C 
ATOM     11  C   UNL     1      33.495  23.876  29.681  0.00  0.00    +0.000 C 
ATOM     12  C   UNL     1      32.135  23.881  30.357  0.00  0.00    +0.000 C 
ATOM     13  C   UNL     1      32.269  23.631  31.851  0.00  0.00    +0.000 C 
ENDBRANCH   3   4
BRANCH   2  14
ATOM     14  C   UNL     1      29.294  22.999  26.522  0.00  0.00    +0.000 A 
ATOM     15  C   UNL     1      30.291  22.908  25.576  0.00  0.00    +0.000 A 
ATOM     16  C   UNL     1      30.050  23.071  24.227  0.00  0.00    +0.000 A 
ATOM     17  C   UNL     1      28.788  23.336  23.744  0.00  0.00    +0.000 A 
ATOM     18  C   UNL     1      27.783  23.429  24.682  0.00  0.00    +0.000 A 
ATOM     19  C   UNL     1      28.019  23.266  26.037  0.00  0.00    +0.000 A 
BRANCH  17  20
ATOM     20  N   UNL     1      28.530  23.506  22.342  0.00  0.00    +0.000 N 
ATOM     21  O   UNL     1      27.408  23.211  21.889  0.00  0.00    +0.000 OA
ATOM     22  O   UNL     1      29.463  23.979  21.478  0.00  0.00    +0.000 OA
ENDBRANCH  17  20
ENDBRANCH   2  14
TORSDOF 3
ENDMDL
MODEL 9
REMARK VINA RESULT:      -6.0     25.470     29.364
REMARK  Name = 
REMARK  3 active torsions:
REMARK  status: ('A' for Active; 'I' for Inactive)
REMARK    1  A    between atoms: C_2  and  C_14
REMARK    2  A    between atoms: N_3  and  C_4
REMARK    3  A    between atoms: C_17  and  N_18
REMARK                            x       y       z     vdW  Elec       q    Type
REMARK                         _______ _______ _______ _____ _____    ______ ____
ROOT
ATOM      1  O   UNL     1      29.563  28.824  20.902  0.00  0.00    +0.000 OA
ATOM      2  C   UNL     1      29.328  27.694  20.413  0.00  0.00    +0.000 C 
ATOM      3  N   UNL     1      29.607  27.510  19.038  0.00  0.00    +0.000 NA
ENDROOT
BRANCH   3   4
ATOM      4  C   UNL     1      30.140  28.503  18.154  0.00  0.00    +0.000 C 
ATOM      5  C   UNL     1      31.032  27.808  17.138  0.00  0.00    +0.000 C 
ATOM      6  C   UNL     1      31.757  28.855  16.287  0.00  0.00    +0.000 C 
ATOM      7  C   UNL     1      30.732  29.779  15.665  0.00  0.00    +0.000 C 
ATOM      8  C   UNL     1      29.874  28.913  14.743  0.00  0.00    +0.000 C 
ATOM      9  C   UNL     1      29.160  27.852  15.554  0.00  0.00    +0.000 C 
ATOM     10  C   UNL     1      30.131  26.938  16.270  0.00  0.00    +0.000 C 
ATOM     11  C   UNL     1      28.228  28.571  16.523  0.00  0.00    +0.000 C 
ATOM     12  C   UNL     1      29.110  29.361  17.473  0.00  0.00    +0.000 C 
ATOM     13  C   UNL     1      29.881  30.440  16.731  0.00  0.00    +0.000 C 
ENDBRANCH   3   4
BRANCH   2  14
ATOM     14  C   UNL     1      28.790  26.593  21.196  0.00  0.00    +0.000 A 
ATOM     15  C   UNL     1      29.204  25.289  21.039  0.00  0.00    +0.000 A 
ATOM     16  C   UNL     1      28.689  24.252  21.791  0.00  0.00    +0.000 A 
ATOM     17  C   UNL     1      27.724  24.464  22.750  0.00  0.00    +0.000 A 
ATOM     18  C   UNL     1      27.302  25.765  22.914  0.00  0.00    +0.000 A 
ATOM     19  C   UNL     1      27.816  26.810  22.163  0.00  0.00    +0.000 A 
BRANCH  17  20
ATOM     20  N   UNL     1      27.185  23.390  23.536  0.00  0.00    +0.000 N 
ATOM     21  O   UNL     1      26.124  22.846  23.176  0.00  0.00    +0.000 OA
ATOM     22  O   UNL     1      27.785  22.936  24.664  0.00  0.00    +0.000 OA
ENDBRANCH  17  20
ENDBRANCH   2  14
TORSDOF 3
ENDMDL
MODEL 10
REMARK VINA RESULT:      -6.0     21.327     22.983
REMARK  Name = 
REMARK  3 active torsions:
REMARK  status: ('A' for Active; 'I' for Inactive)
REMARK    1  A    between atoms: C_2  and  C_14
REMARK    2  A    between atoms: N_3  and  C_4
REMARK    3  A    between atoms: C_17  and  N_18
REMARK                            x       y       z     vdW  Elec       q    Type
REMARK                         _______ _______ _______ _____ _____    ______ ____
ROOT
ATOM      1  O   UNL     1      33.271  25.144  26.917  0.00  0.00    +0.000 OA
ATOM      2  C   UNL     1      32.291  24.363  26.893  0.00  0.00    +0.000 C 
ATOM      3  N   UNL     1      32.018  23.626  28.069  0.00  0.00    +0.000 NA
ENDROOT
BRANCH   3   4
ATOM      4  C   UNL     1      32.763  23.695  29.289  0.00  0.00    +0.000 C 
ATOM      5  C   UNL     1      31.779  23.721  30.448  0.00  0.00    +0.000 C 
ATOM      6  C   UNL     1      32.532  23.972  31.759  0.00  0.00    +0.000 C 
ATOM      7  C   UNL     1      33.621  22.932  31.907  0.00  0.00    +0.000 C 
ATOM      8  C   UNL     1      32.915  21.580  32.005  0.00  0.00    +0.000 C 
ATOM      9  C   UNL     1      32.142  21.312  30.731  0.00  0.00    +0.000 C 
ATOM     10  C   UNL     1      31.085  22.365  30.478  0.00  0.00    +0.000 C 
ATOM     11  C   UNL     1      33.155  21.231  29.594  0.00  0.00    +0.000 C 
ATOM     12  C   UNL     1      33.784  22.607  29.470  0.00  0.00    +0.000 C 
ATOM     13  C   UNL     1      34.567  22.963  30.724  0.00  0.00    +0.000 C 
ENDBRANCH   3   4
BRANCH   2  14
ATOM     14  C   UNL     1      31.445  24.196  25.721  0.00  0.00    +0.000 A 
ATOM     15  C   UNL     1      30.927  22.979  25.338  0.00  0.00    +0.000 A 
ATOM     16  C   UNL     1      30.121  22.833  24.227  0.00  0.00    +0.000 A 
ATOM     17  C   UNL     1      29.786  23.905  23.430  0.00  0.00    +0.000 A 
ATOM     18  C   UNL     1      30.299  25.127  23.805  0.00  0.00    +0.000 A 
ATOM     19  C   UNL     1      31.108  25.280  24.920  0.00  0.00    +0.000 A 
BRANCH  17  20
ATOM     20  N   UNL     1      28.948  23.760  22.273  0.00  0.00    +0.000 N 
ATOM     21  O   UNL     1      29.364  24.154  21.168  0.00  0.00    +0.000 OA
ATOM     22  O   UNL     1      27.711  23.207  22.330  0.00  0.00    +0.000 OA
ENDBRANCH  17  20
ENDBRANCH   2  14
TORSDOF 3
ENDMDL
