MODEL 1
REMARK VINA RESULT:      -6.4      0.000      0.000
REMARK  Name = 
REMARK  4 active torsions:
REMARK  status: ('A' for Active; 'I' for Inactive)
REMARK    1  A    between atoms: C_2  and  N_3
REMARK    2  A    between atoms: C_2  and  C_14
REMARK    3  A    between atoms: N_3  and  N_4
REMARK    4  A    between atoms: C_5  and  C_7
REMARK                            x       y       z     vdW  Elec       q    Type
REMARK                         _______ _______ _______ _____ _____    ______ ____
ROOT
ATOM      1  N   UNL     1      32.722  21.930  11.510  0.00  0.00    +0.000 NA
ENDROOT
BRANCH   1   2
ATOM      2  N   UNL     1      31.560  22.675  11.691  0.00  0.00    +0.000 NA
ATOM      3  C   UNL     1      30.540  22.064  12.463  0.00  0.00    +0.000 C 
ATOM      4  O   UNL     1      30.701  20.928  12.934  0.00  0.00    +0.000 OA
BRANCH   3   5
ATOM      5  C   UNL     1      29.270  22.759  12.720  0.00  0.00    +0.000 A 
ATOM      6  C   UNL     1      29.121  23.585  13.813  0.00  0.00    +0.000 A 
ATOM      7  C   UNL     1      27.959  24.268  14.083  0.00  0.00    +0.000 A 
ATOM      8  C   UNL     1      26.877  24.145  13.239  0.00  0.00    +0.000 A 
ATOM      9  C   UNL     1      27.003  23.327  12.140  0.00  0.00    +0.000 A 
ATOM     10  C   UNL     1      28.185  22.639  11.881  0.00  0.00    +0.000 A 
ATOM     11  O   UNL     1      28.300  21.810  10.762  0.00  0.00    +0.000 OA
ENDBRANCH   3   5
ENDBRANCH   1   2
BRANCH   1  13
ATOM     12  C   UNL     1      34.510  22.774  10.234  0.00  0.00    +0.000 C 
ATOM     13  C   UNL     1      33.488  21.919  10.309  0.00  0.00    +0.000 C 
BRANCH  13  14
ATOM     14  C   UNL     1      33.197  21.021   9.199  0.00  0.00    +0.000 A 
ATOM     15  C   UNL     1      33.784  19.819   8.896  0.00  0.00    +0.000 A 
ATOM     16  C   UNL     1      33.171  19.369   7.758  0.00  0.00    +0.000 A 
ATOM     17  C   UNL     1      33.441  18.095   6.998  0.00  0.00    +0.000 C 
ATOM     18  O   UNL     1      32.282  20.253   7.416  0.00  0.00    +0.000 OA
ATOM     19  C   UNL     1      32.250  21.256   8.231  0.00  0.00    +0.000 A 
ATOM     20  C   UNL     1      31.353  22.475   8.165  0.00  0.00    +0.000 C 
ENDBRANCH  13  14
ENDBRANCH   1  13
TORSDOF 4
ENDMDL
MODEL 2
REMARK VINA RESULT:      -6.1     32.343     33.418
REMARK  Name = 
REMARK  4 active torsions:
REMARK  status: ('A' for Active; 'I' for Inactive)
REMARK    1  A    between atoms: C_2  and  N_3
REMARK    2  A    between atoms: C_2  and  C_14
REMARK    3  A    between atoms: N_3  and  N_4
REMARK    4  A    between atoms: C_5  and  C_7
REMARK                            x       y       z     vdW  Elec       q    Type
REMARK                         _______ _______ _______ _____ _____    ______ ____
ROOT
ATOM      1  N   UNL     1      33.578  -4.060  33.844  0.00  0.00    +0.000 NA
ENDROOT
BRANCH   1   2
ATOM      2  N   UNL     1      33.412  -2.745  33.418  0.00  0.00    +0.000 NA
ATOM      3  C   UNL     1      34.036  -1.748  34.209  0.00  0.00    +0.000 C 
ATOM      4  O   UNL     1      34.684  -2.061  35.220  0.00  0.00    +0.000 OA
BRANCH   3   5
ATOM      5  C   UNL     1      33.929  -0.326  33.854  0.00  0.00    +0.000 A 
ATOM      6  C   UNL     1      34.396   0.142  32.645  0.00  0.00    +0.000 A 
ATOM      7  C   UNL     1      34.300   1.459  32.263  0.00  0.00    +0.000 A 
ATOM      8  C   UNL     1      33.713   2.378  33.106  0.00  0.00    +0.000 A 
ATOM      9  C   UNL     1      33.239   1.934  34.319  0.00  0.00    +0.000 A 
ATOM     10  C   UNL     1      33.345   0.597  34.692  0.00  0.00    +0.000 A 
ATOM     11  O   UNL     1      32.860   0.159  35.928  0.00  0.00    +0.000 OA
ENDBRANCH   3   5
ENDBRANCH   1   2
BRANCH   1  13
ATOM     12  C   UNL     1      32.215  -5.974  33.714  0.00  0.00    +0.000 C 
ATOM     13  C   UNL     1      33.125  -5.200  33.120  0.00  0.00    +0.000 C 
BRANCH  13  14
ATOM     14  C   UNL     1      33.612  -5.528  31.787  0.00  0.00    +0.000 A 
ATOM     15  C   UNL     1      32.935  -5.482  30.594  0.00  0.00    +0.000 A 
ATOM     16  C   UNL     1      33.821  -5.892  29.634  0.00  0.00    +0.000 A 
ATOM     17  C   UNL     1      33.587  -6.027  28.151  0.00  0.00    +0.000 C 
ATOM     18  O   UNL     1      34.945  -6.161  30.227  0.00  0.00    +0.000 OA
ATOM     19  C   UNL     1      34.884  -5.967  31.504  0.00  0.00    +0.000 A 
ATOM     20  C   UNL     1      35.984  -6.169  32.526  0.00  0.00    +0.000 C 
ENDBRANCH  13  14
ENDBRANCH   1  13
TORSDOF 4
ENDMDL
MODEL 3
REMARK VINA RESULT:      -6.1     32.428     33.925
REMARK  Name = 
REMARK  4 active torsions:
REMARK  status: ('A' for Active; 'I' for Inactive)
REMARK    1  A    between atoms: C_2  and  N_3
REMARK    2  A    between atoms: C_2  and  C_14
REMARK    3  A    between atoms: N_3  and  N_4
REMARK    4  A    between atoms: C_5  and  C_7
REMARK                            x       y       z     vdW  Elec       q    Type
REMARK                         _______ _______ _______ _____ _____    ______ ____
ROOT
ATOM      1  N   UNL     1      33.789  -2.690  33.961  0.00  0.00    +0.000 NA
ENDROOT
BRANCH   1   2
ATOM      2  N   UNL     1      33.536  -3.313  32.742  0.00  0.00    +0.000 NA
ATOM      3  C   UNL     1      33.807  -4.703  32.683  0.00  0.00    +0.000 C 
ATOM      4  O   UNL     1      34.247  -5.302  33.676  0.00  0.00    +0.000 OA
BRANCH   3   5
ATOM      5  C   UNL     1      33.575  -5.466  31.447  0.00  0.00    +0.000 A 
ATOM      6  C   UNL     1      34.506  -5.472  30.431  0.00  0.00    +0.000 A 
ATOM      7  C   UNL     1      34.341  -6.184  29.267  0.00  0.00    +0.000 A 
ATOM      8  C   UNL     1      33.204  -6.940  29.080  0.00  0.00    +0.000 A 
ATOM      9  C   UNL     1      32.260  -6.950  30.081  0.00  0.00    +0.000 A 
ATOM     10  C   UNL     1      32.441  -6.222  31.253  0.00  0.00    +0.000 A 
ATOM     11  O   UNL     1      31.475  -6.240  32.263  0.00  0.00    +0.000 OA
ENDBRANCH   3   5
ENDBRANCH   1   2
BRANCH   1  13
ATOM     12  C   UNL     1      31.855  -2.157  35.192  0.00  0.00    +0.000 C 
ATOM     13  C   UNL     1      32.940  -1.713  34.554  0.00  0.00    +0.000 C 
BRANCH  13  14
ATOM     14  C   UNL     1      33.220  -0.284  34.488  0.00  0.00    +0.000 A 
ATOM     15  C   UNL     1      33.161   0.549  33.399  0.00  0.00    +0.000 A 
ATOM     16  C   UNL     1      33.522   1.791  33.847  0.00  0.00    +0.000 A 
ATOM     17  C   UNL     1      33.625   3.070  33.057  0.00  0.00    +0.000 C 
ATOM     18  O   UNL     1      33.777   1.691  35.118  0.00  0.00    +0.000 OA
ATOM     19  C   UNL     1      33.617   0.485  35.556  0.00  0.00    +0.000 A 
ATOM     20  C   UNL     1      33.816  -0.021  36.970  0.00  0.00    +0.000 C 
ENDBRANCH  13  14
ENDBRANCH   1  13
TORSDOF 4
ENDMDL
MODEL 4
REMARK VINA RESULT:      -5.9     36.098     36.935
REMARK  Name = 
REMARK  4 active torsions:
REMARK  status: ('A' for Active; 'I' for Inactive)
REMARK    1  A    between atoms: C_2  and  N_3
REMARK    2  A    between atoms: C_2  and  C_14
REMARK    3  A    between atoms: N_3  and  N_4
REMARK    4  A    between atoms: C_5  and  C_7
REMARK                            x       y       z     vdW  Elec       q    Type
REMARK                         _______ _______ _______ _____ _____    ______ ____
ROOT
ATOM      1  N   UNL     1      16.595  -7.643  25.716  0.00  0.00    +0.000 NA
ENDROOT
BRANCH   1   2
ATOM      2  N   UNL     1      15.313  -7.844  26.219  0.00  0.00    +0.000 NA
ATOM      3  C   UNL     1      14.584  -8.924  25.662  0.00  0.00    +0.000 C 
ATOM      4  O   UNL     1      15.087  -9.632  24.776  0.00  0.00    +0.000 OA
BRANCH   3   5
ATOM      5  C   UNL     1      13.220  -9.231  26.117  0.00  0.00    +0.000 A 
ATOM      6  C   UNL     1      12.998 -10.121  27.145  0.00  0.00    +0.000 A 
ATOM      7  C   UNL     1      11.742 -10.423  27.616  0.00  0.00    +0.000 A 
ATOM      8  C   UNL     1      10.636  -9.822  27.057  0.00  0.00    +0.000 A 
ATOM      9  C   UNL     1      10.833  -8.928  26.030  0.00  0.00    +0.000 A 
ATOM     10  C   UNL     1      12.111  -8.634  25.563  0.00  0.00    +0.000 A 
ATOM     11  O   UNL     1      12.298  -7.725  24.518  0.00  0.00    +0.000 OA
ENDBRANCH   3   5
ENDBRANCH   1   2
BRANCH   1  13
ATOM     12  C   UNL     1      17.673  -8.246  27.720  0.00  0.00    +0.000 C 
ATOM     13  C   UNL     1      17.785  -7.730  26.494  0.00  0.00    +0.000 C 
BRANCH  13  14
ATOM     14  C   UNL     1      19.082  -7.289  25.998  0.00  0.00    +0.000 A 
ATOM     15  C   UNL     1      20.080  -8.040  25.431  0.00  0.00    +0.000 A 
ATOM     16  C   UNL     1      21.097  -7.171  25.141  0.00  0.00    +0.000 A 
ATOM     17  C   UNL     1      22.431  -7.478  24.510  0.00  0.00    +0.000 C 
ATOM     18  O   UNL     1      20.718  -5.986  25.515  0.00  0.00    +0.000 OA
ATOM     19  C   UNL     1      19.532  -5.991  26.032  0.00  0.00    +0.000 A 
ATOM     20  C   UNL     1      18.754  -4.811  26.577  0.00  0.00    +0.000 C 
ENDBRANCH  13  14
ENDBRANCH   1  13
TORSDOF 4
ENDMDL
MODEL 5
REMARK VINA RESULT:      -5.9     12.400     15.613
REMARK  Name = 
REMARK  4 active torsions:
REMARK  status: ('A' for Active; 'I' for Inactive)
REMARK    1  A    between atoms: C_2  and  N_3
REMARK    2  A    between atoms: C_2  and  C_14
REMARK    3  A    between atoms: N_3  and  N_4
REMARK    4  A    between atoms: C_5  and  C_7
REMARK                            x       y       z     vdW  Elec       q    Type
REMARK                         _______ _______ _______ _____ _____    ______ ____
ROOT
ATOM      1  N   UNL     1      25.942  24.747  24.432  0.00  0.00    +0.000 NA
ENDROOT
BRANCH   1   2
ATOM      2  N   UNL     1      25.798  24.146  25.679  0.00  0.00    +0.000 NA
ATOM      3  C   UNL     1      26.836  24.387  26.613  0.00  0.00    +0.000 C 
ATOM      4  O   UNL     1      27.806  25.097  26.307  0.00  0.00    +0.000 OA
BRANCH   3   5
ATOM      5  C   UNL     1      26.789  23.804  27.962  0.00  0.00    +0.000 A 
ATOM      6  C   UNL     1      26.072  24.407  28.972  0.00  0.00    +0.000 A 
ATOM      7  C   UNL     1      25.985  23.888  30.243  0.00  0.00    +0.000 A 
ATOM      8  C   UNL     1      26.630  22.710  30.549  0.00  0.00    +0.000 A 
ATOM      9  C   UNL     1      27.352  22.089  29.556  0.00  0.00    +0.000 A 
ATOM     10  C   UNL     1      27.433  22.628  28.275  0.00  0.00    +0.000 A 
ATOM     11  O   UNL     1      28.170  21.988  27.275  0.00  0.00    +0.000 OA
ENDBRANCH   3   5
ENDBRANCH   1   2
BRANCH   1  13
ATOM     12  C   UNL     1      25.649  23.036  22.842  0.00  0.00    +0.000 C 
ATOM     13  C   UNL     1      26.384  24.068  23.260  0.00  0.00    +0.000 C 
BRANCH  13  14
ATOM     14  C   UNL     1      27.579  24.465  22.527  0.00  0.00    +0.000 A 
ATOM     15  C   UNL     1      27.691  25.370  21.502  0.00  0.00    +0.000 A 
ATOM     16  C   UNL     1      29.013  25.383  21.145  0.00  0.00    +0.000 A 
ATOM     17  C   UNL     1      29.676  26.202  20.067  0.00  0.00    +0.000 C 
ATOM     18  O   UNL     1      29.634  24.538  21.912  0.00  0.00    +0.000 OA
ATOM     19  C   UNL     1      28.838  23.961  22.752  0.00  0.00    +0.000 A 
ATOM     20  C   UNL     1      29.189  22.925  23.799  0.00  0.00    +0.000 C 
ENDBRANCH  13  14
ENDBRANCH   1  13
TORSDOF 4
ENDMDL
MODEL 6
REMARK VINA RESULT:      -5.8     33.056     33.849
REMARK  Name = 
REMARK  4 active torsions:
REMARK  status: ('A' for Active; 'I' for Inactive)
REMARK    1  A    between atoms: C_2  and  N_3
REMARK    2  A    between atoms: C_2  and  C_14
REMARK    3  A    between atoms: N_3  and  N_4
REMARK    4  A    between atoms: C_5  and  C_7
REMARK                            x       y       z     vdW  Elec       q    Type
REMARK                         _______ _______ _______ _____ _____    ______ ____
ROOT
ATOM      1  N   UNL     1      23.374  -8.340  24.761  0.00  0.00    +0.000 NA
ENDROOT
BRANCH   1   2
ATOM      2  N   UNL     1      22.415  -7.733  25.567  0.00  0.00    +0.000 NA
ATOM      3  C   UNL     1      21.081  -7.770  25.090  0.00  0.00    +0.000 C 
ATOM      4  O   UNL     1      20.815  -8.317  24.009  0.00  0.00    +0.000 OA
BRANCH   3   5
ATOM      5  C   UNL     1      19.986  -7.162  25.859  0.00  0.00    +0.000 A 
ATOM      6  C   UNL     1      19.785  -5.799  25.853  0.00  0.00    +0.000 A 
ATOM      7  C   UNL     1      18.763  -5.189  26.542  0.00  0.00    +0.000 A 
ATOM      8  C   UNL     1      17.882  -5.950  27.279  0.00  0.00    +0.000 A 
ATOM      9  C   UNL     1      18.063  -7.314  27.300  0.00  0.00    +0.000 A 
ATOM     10  C   UNL     1      19.103  -7.916  26.598  0.00  0.00    +0.000 A 
ATOM     11  O   UNL     1      19.276  -9.303  26.628  0.00  0.00    +0.000 OA
ENDBRANCH   3   5
ENDBRANCH   1   2
BRANCH   1  13
ATOM     12  C   UNL     1      24.316  -6.301  24.054  0.00  0.00    +0.000 C 
ATOM     13  C   UNL     1      24.293  -7.630  23.936  0.00  0.00    +0.000 C 
BRANCH  13  14
ATOM     14  C   UNL     1      25.186  -8.300  22.999  0.00  0.00    +0.000 A 
ATOM     15  C   UNL     1      26.549  -8.439  23.069  0.00  0.00    +0.000 A 
ATOM     16  C   UNL     1      26.921  -9.136  21.951  0.00  0.00    +0.000 A 
ATOM     17  C   UNL     1      28.309  -9.555  21.535  0.00  0.00    +0.000 C 
ATOM     18  O   UNL     1      25.844  -9.388  21.270  0.00  0.00    +0.000 OA
ATOM     19  C   UNL     1      24.783  -8.917  21.839  0.00  0.00    +0.000 A 
ATOM     20  C   UNL     1      23.351  -9.011  21.352  0.00  0.00    +0.000 C 
ENDBRANCH  13  14
ENDBRANCH   1  13
TORSDOF 4
ENDMDL
MODEL 7
REMARK VINA RESULT:      -5.6     34.795     35.973
REMARK  Name = 
REMARK  4 active torsions:
REMARK  status: ('A' for Active; 'I' for Inactive)
REMARK    1  A    between atoms: C_2  and  N_3
REMARK    2  A    between atoms: C_2  and  C_14
REMARK    3  A    between atoms: N_3  and  N_4
REMARK    4  A    between atoms: C_5  and  C_7
REMARK                            x       y       z     vdW  Elec       q    Type
REMARK                         _______ _______ _______ _____ _____    ______ ____
ROOT
ATOM      1  N   UNL     1      19.564  -9.820  27.183  0.00  0.00    +0.000 NA
ENDROOT
BRANCH   1   2
ATOM      2  N   UNL     1      20.715  -9.135  26.802  0.00  0.00    +0.000 NA
ATOM      3  C   UNL     1      20.823  -8.810  25.427  0.00  0.00    +0.000 C 
ATOM      4  O   UNL     1      19.928  -9.133  24.631  0.00  0.00    +0.000 OA
BRANCH   3   5
ATOM      5  C   UNL     1      21.995  -8.086  24.912  0.00  0.00    +0.000 A 
ATOM      6  C   UNL     1      23.154  -8.754  24.583  0.00  0.00    +0.000 A 
ATOM      7  C   UNL     1      24.267  -8.121  24.081  0.00  0.00    +0.000 A 
ATOM      8  C   UNL     1      24.251  -6.758  23.883  0.00  0.00    +0.000 A 
ATOM      9  C   UNL     1      23.104  -6.070  24.204  0.00  0.00    +0.000 A 
ATOM     10  C   UNL     1      21.986  -6.724  24.713  0.00  0.00    +0.000 A 
ATOM     11  O   UNL     1      20.827  -6.013  25.036  0.00  0.00    +0.000 OA
ENDBRANCH   3   5
ENDBRANCH   1   2
BRANCH   1  13
ATOM     12  C   UNL     1      18.447  -9.115  29.131  0.00  0.00    +0.000 C 
ATOM     13  C   UNL     1      18.435  -9.210  27.800  0.00  0.00    +0.000 C 
BRANCH  13  14
ATOM     14  C   UNL     1      17.304  -8.697  27.037  0.00  0.00    +0.000 A 
ATOM     15  C   UNL     1      16.236  -9.388  26.523  0.00  0.00    +0.000 A 
ATOM     16  C   UNL     1      15.454  -8.464  25.884  0.00  0.00    +0.000 A 
ATOM     17  C   UNL     1      14.160  -8.694  25.146  0.00  0.00    +0.000 C 
ATOM     18  O   UNL     1      16.028  -7.306  26.015  0.00  0.00    +0.000 OA
ATOM     19  C   UNL     1      17.130  -7.379  26.689  0.00  0.00    +0.000 A 
ATOM     20  C   UNL     1      18.072  -6.249  27.047  0.00  0.00    +0.000 C 
ENDBRANCH  13  14
ENDBRANCH   1  13
TORSDOF 4
ENDMDL
MODEL 8
REMARK VINA RESULT:      -5.6     13.801     17.622
REMARK  Name = 
REMARK  4 active torsions:
REMARK  status: ('A' for Active; 'I' for Inactive)
REMARK    1  A    between atoms: C_2  and  N_3
REMARK    2  A    between atoms: C_2  and  C_14
REMARK    3  A    between atoms: N_3  and  N_4
REMARK    4  A    between atoms: C_5  and  C_7
REMARK                            x       y       z     vdW  Elec       q    Type
REMARK                         _______ _______ _______ _____ _____    ______ ____
ROOT
ATOM      1  N   UNL     1      25.724  23.886  27.450  0.00  0.00    +0.000 NA
ENDROOT
BRANCH   1   2
ATOM      2  N   UNL     1      26.336  24.314  26.276  0.00  0.00    +0.000 NA
ATOM      3  C   UNL     1      27.146  23.361  25.609  0.00  0.00    +0.000 C 
ATOM      4  O   UNL     1      27.283  22.218  26.071  0.00  0.00    +0.000 OA
BRANCH   3   5
ATOM      5  C   UNL     1      27.840  23.702  24.359  0.00  0.00    +0.000 A 
ATOM      6  C   UNL     1      27.194  23.629  23.144  0.00  0.00    +0.000 A 
ATOM      7  C   UNL     1      27.798  23.956  21.953  0.00  0.00    +0.000 A 
ATOM      8  C   UNL     1      29.108  24.383  21.942  0.00  0.00    +0.000 A 
ATOM      9  C   UNL     1      29.774  24.465  23.143  0.00  0.00    +0.000 A 
ATOM     10  C   UNL     1      29.149  24.128  24.341  0.00  0.00    +0.000 A 
ATOM     11  O   UNL     1      29.837  24.215  25.554  0.00  0.00    +0.000 OA
ENDBRANCH   3   5
ENDBRANCH   1   2
BRANCH   1  13
ATOM     12  C   UNL     1      25.458  25.029  29.491  0.00  0.00    +0.000 C 
ATOM     13  C   UNL     1      26.196  24.192  28.759  0.00  0.00    +0.000 C 
BRANCH  13  14
ATOM     14  C   UNL     1      27.424  23.627  29.303  0.00  0.00    +0.000 A 
ATOM     15  C   UNL     1      28.710  24.087  29.168  0.00  0.00    +0.000 A 
ATOM     16  C   UNL     1      29.506  23.208  29.852  0.00  0.00    +0.000 A 
ATOM     17  C   UNL     1      31.003  23.246  30.020  0.00  0.00    +0.000 C 
ATOM     18  O   UNL     1      28.734  22.291  30.355  0.00  0.00    +0.000 OA
ATOM     19  C   UNL     1      27.489  22.484  30.064  0.00  0.00    +0.000 A 
ATOM     20  C   UNL     1      26.301  21.635  30.467  0.00  0.00    +0.000 C 
ENDBRANCH  13  14
ENDBRANCH   1  13
TORSDOF 4
ENDMDL
MODEL 9
REMARK VINA RESULT:      -5.6     14.428     18.520
REMARK  Name = 
REMARK  4 active torsions:
REMARK  status: ('A' for Active; 'I' for Inactive)
REMARK    1  A    between atoms: C_2  and  N_3
REMARK    2  A    between atoms: C_2  and  C_14
REMARK    3  A    between atoms: N_3  and  N_4
REMARK    4  A    between atoms: C_5  and  C_7
REMARK                            x       y       z     vdW  Elec       q    Type
REMARK                         _______ _______ _______ _____ _____    ______ ____
ROOT
ATOM      1  N   UNL     1      24.889  24.617  26.982  0.00  0.00    +0.000 NA
ENDROOT
BRANCH   1   2
ATOM      2  N   UNL     1      26.242  24.412  26.725  0.00  0.00    +0.000 NA
ATOM      3  C   UNL     1      26.551  23.427  25.753  0.00  0.00    +0.000 C 
ATOM      4  O   UNL     1      25.646  22.799  25.183  0.00  0.00    +0.000 OA
BRANCH   3   5
ATOM      5  C   UNL     1      27.946  23.126  25.400  0.00  0.00    +0.000 A 
ATOM      6  C   UNL     1      28.475  23.527  24.193  0.00  0.00    +0.000 A 
ATOM      7  C   UNL     1      29.779  23.285  23.828  0.00  0.00    +0.000 A 
ATOM      8  C   UNL     1      30.619  22.614  24.690  0.00  0.00    +0.000 A 
ATOM      9  C   UNL     1      30.113  22.204  25.901  0.00  0.00    +0.000 A 
ATOM     10  C   UNL     1      28.790  22.455  26.255  0.00  0.00    +0.000 A 
ATOM     11  O   UNL     1      28.288  22.032  27.489  0.00  0.00    +0.000 OA
ENDBRANCH   3   5
ENDBRANCH   1   2
BRANCH   1  13
ATOM     12  C   UNL     1      24.812  26.763  26.017  0.00  0.00    +0.000 C 
ATOM     13  C   UNL     1      24.219  25.861  26.801  0.00  0.00    +0.000 C 
BRANCH  13  14
ATOM     14  C   UNL     1      22.938  26.160  27.428  0.00  0.00    +0.000 A 
ATOM     15  C   UNL     1      21.692  26.189  26.854  0.00  0.00    +0.000 A 
ATOM     16  C   UNL     1      20.818  26.529  27.852  0.00  0.00    +0.000 A 
ATOM     17  C   UNL     1      19.323  26.703  27.759  0.00  0.00    +0.000 C 
ATOM     18  O   UNL     1      21.509  26.690  28.940  0.00  0.00    +0.000 OA
ATOM     19  C   UNL     1      22.772  26.486  28.753  0.00  0.00    +0.000 A 
ATOM     20  C   UNL     1      23.886  26.578  29.775  0.00  0.00    +0.000 C 
ENDBRANCH  13  14
ENDBRANCH   1  13
TORSDOF 4
ENDMDL
MODEL 10
REMARK VINA RESULT:      -5.6     18.562     19.528
REMARK  Name = 
REMARK  4 active torsions:
REMARK  status: ('A' for Active; 'I' for Inactive)
REMARK    1  A    between atoms: C_2  and  N_3
REMARK    2  A    between atoms: C_2  and  C_14
REMARK    3  A    between atoms: N_3  and  N_4
REMARK    4  A    between atoms: C_5  and  C_7
REMARK                            x       y       z     vdW  Elec       q    Type
REMARK                         _______ _______ _______ _____ _____    ______ ____
ROOT
ATOM      1  N   UNL     1      25.629   6.267  17.448  0.00  0.00    +0.000 NA
ENDROOT
BRANCH   1   2
ATOM      2  N   UNL     1      25.136   5.020  17.076  0.00  0.00    +0.000 NA
ATOM      3  C   UNL     1      25.074   4.042  18.100  0.00  0.00    +0.000 C 
ATOM      4  O   UNL     1      25.447   4.310  19.252  0.00  0.00    +0.000 OA
BRANCH   3   5
ATOM      5  C   UNL     1      24.568   2.689  17.822  0.00  0.00    +0.000 A 
ATOM      6  C   UNL     1      25.422   1.675  17.446  0.00  0.00    +0.000 A 
ATOM      7  C   UNL     1      24.997   0.392  17.195  0.00  0.00    +0.000 A 
ATOM      8  C   UNL     1      23.662   0.074  17.319  0.00  0.00    +0.000 A 
ATOM      9  C   UNL     1      22.791   1.070  17.694  0.00  0.00    +0.000 A 
ATOM     10  C   UNL     1      23.236   2.365  17.943  0.00  0.00    +0.000 A 
ATOM     11  O   UNL     1      22.340   3.369  18.322  0.00  0.00    +0.000 OA
ENDBRANCH   3   5
ENDBRANCH   1   2
BRANCH   1  13
ATOM     12  C   UNL     1      27.575   7.058  18.511  0.00  0.00    +0.000 C 
ATOM     13  C   UNL     1      27.003   6.639  17.381  0.00  0.00    +0.000 C 
BRANCH  13  14
ATOM     14  C   UNL     1      27.776   6.569  16.148  0.00  0.00    +0.000 A 
ATOM     15  C   UNL     1      27.960   7.543  15.199  0.00  0.00    +0.000 A 
ATOM     16  C   UNL     1      28.755   6.989  14.231  0.00  0.00    +0.000 A 
ATOM     17  C   UNL     1      29.256   7.629  12.962  0.00  0.00    +0.000 C 
ATOM     18  O   UNL     1      29.018   5.769  14.591  0.00  0.00    +0.000 OA
ATOM     19  C   UNL     1      28.465   5.460  15.719  0.00  0.00    +0.000 A 
ATOM     20  C   UNL     1      28.542   4.140  16.458  0.00  0.00    +0.000 C 
ENDBRANCH  13  14
ENDBRANCH   1  13
TORSDOF 4
ENDMDL
