MODEL 1
REMARK VINA RESULT:      -7.1      0.000      0.000
REMARK  Name = 
REMARK  8 active torsions:
REMARK  status: ('A' for Active; 'I' for Inactive)
REMARK    1  A    between atoms: C_2  and  C_4
REMARK    2  A    between atoms: C_7  and  C_8
REMARK    3  A    between atoms: C_11  and  C_12
REMARK    4  A    between atoms: C_18  and  C_19
REMARK    5  A    between atoms: N_21  and  C_22
REMARK    6  A    between atoms: C_22  and  C_23
REMARK    7  A    between atoms: C_23  and  O_24
REMARK    8  A    between atoms: O_24  and  C_25
REMARK                            x       y       z     vdW  Elec       q    Type
REMARK                         _______ _______ _______ _____ _____    ______ ____
ROOT
ATOM      1  C   UNL     1      36.176   3.013  15.662  0.00  0.00    +0.000 C 
ATOM      2  O   UNL     1      35.821   2.338  16.942  0.00  0.00    +0.000 OA
ATOM      3  N   UNL     1      35.388   1.154  16.355  0.00  0.00    +0.000 NA
ATOM      4  C   UNL     1      36.617   0.778  15.663  0.00  0.00    +0.000 C 
ATOM      5  C   UNL     1      37.188   1.856  15.202  0.00  0.00    +0.000 C 
ENDROOT
BRANCH   1   9
ATOM      6  C   UNL     1      39.165   5.731  17.359  0.00  0.00    +0.000 A 
ATOM      7  C   UNL     1      38.718   5.910  16.074  0.00  0.00    +0.000 A 
ATOM      8  C   UNL     1      37.772   5.047  15.538  0.00  0.00    +0.000 A 
ATOM      9  C   UNL     1      37.256   4.035  16.202  0.00  0.00    +0.000 A 
ATOM     10  C   UNL     1      37.679   3.821  17.498  0.00  0.00    +0.000 A 
ATOM     11  C   UNL     1      38.635   4.676  18.067  0.00  0.00    +0.000 A 
BRANCH   6  13
ATOM     12  C   UNL     1      41.563   6.286  17.435  0.00  0.00    +0.000 C 
ATOM     13  C   UNL     1      40.190   6.637  17.988  0.00  0.00    +0.000 C 
ATOM     14  C   UNL     1      40.255   6.263  19.472  0.00  0.00    +0.000 C 
ENDBRANCH   6  13
ENDBRANCH   1   9
BRANCH   4  15
ATOM     15  C   UNL     1      37.128  -0.574  15.451  0.00  0.00    +0.000 A 
ATOM     16  C   UNL     1      37.938  -1.262  16.326  0.00  0.00    +0.000 A 
ATOM     17  C   UNL     1      38.389  -2.554  16.079  0.00  0.00    +0.000 A 
ATOM     18  C   UNL     1      38.037  -3.209  14.920  0.00  0.00    +0.000 A 
ATOM     19  C   UNL     1      37.231  -2.539  14.035  0.00  0.00    +0.000 A 
ATOM     20  C   UNL     1      36.800  -1.263  14.307  0.00  0.00    +0.000 A 
ENDBRANCH   4  15
BRANCH   5  21
ATOM     21  C   UNL     1      38.392   2.070  14.492  0.00  0.00    +0.000 C 
ATOM     22  O   UNL     1      39.482   1.980  15.099  0.00  0.00    +0.000 OA
ATOM     23  N   UNL     1      38.410   2.375  13.143  0.00  0.00    +0.000 NA
BRANCH  23  24
ATOM     24  C   UNL     1      39.519   2.614  12.303  0.00  0.00    +0.000 C 
BRANCH  24  25
ATOM     25  C   UNL     1      40.115   1.482  11.577  0.00  0.00    +0.000 C 
BRANCH  25  26
ATOM     26  O   UNL     1      39.535   0.228  11.817  0.00  0.00    +0.000 OA
BRANCH  26  27
ATOM     27  C   UNL     1      40.158  -0.844  12.398  0.00  0.00    +0.000 A 
ATOM     28  C   UNL     1      40.131  -2.054  11.751  0.00  0.00    +0.000 A 
ATOM     29  C   UNL     1      40.778  -3.110  12.384  0.00  0.00    +0.000 A 
ATOM     30  C   UNL     1      41.410  -2.974  13.580  0.00  0.00    +0.000 A 
ATOM     31  C   UNL     1      41.435  -1.755  14.230  0.00  0.00    +0.000 A 
ATOM     32  C   UNL     1      40.791  -0.698  13.602  0.00  0.00    +0.000 A 
ENDBRANCH  26  27
ENDBRANCH  25  26
ENDBRANCH  24  25
ENDBRANCH  23  24
ENDBRANCH   5  21
TORSDOF 8
ENDMDL
MODEL 2
REMARK VINA RESULT:      -7.0      2.459      7.129
REMARK  Name = 
REMARK  8 active torsions:
REMARK  status: ('A' for Active; 'I' for Inactive)
REMARK    1  A    between atoms: C_2  and  C_4
REMARK    2  A    between atoms: C_7  and  C_8
REMARK    3  A    between atoms: C_11  and  C_12
REMARK    4  A    between atoms: C_18  and  C_19
REMARK    5  A    between atoms: N_21  and  C_22
REMARK    6  A    between atoms: C_22  and  C_23
REMARK    7  A    between atoms: C_23  and  O_24
REMARK    8  A    between atoms: O_24  and  C_25
REMARK                            x       y       z     vdW  Elec       q    Type
REMARK                         _______ _______ _______ _____ _____    ______ ____
ROOT
ATOM      1  C   UNL     1      40.769  -2.094  15.105  0.00  0.00    +0.000 C 
ATOM      2  O   UNL     1      40.132  -3.432  15.260  0.00  0.00    +0.000 OA
ATOM      3  N   UNL     1      39.611  -3.188  16.526  0.00  0.00    +0.000 NA
ATOM      4  C   UNL     1      38.778  -2.030  16.211  0.00  0.00    +0.000 C 
ATOM      5  C   UNL     1      39.399  -1.290  15.334  0.00  0.00    +0.000 C 
ENDROOT
BRANCH   1   9
ATOM      6  C   UNL     1      41.045  -1.715  10.748  0.00  0.00    +0.000 A 
ATOM      7  C   UNL     1      40.048  -2.469  11.315  0.00  0.00    +0.000 A 
ATOM      8  C   UNL     1      39.963  -2.588  12.696  0.00  0.00    +0.000 A 
ATOM      9  C   UNL     1      40.802  -2.007  13.526  0.00  0.00    +0.000 A 
ATOM     10  C   UNL     1      41.818  -1.239  12.996  0.00  0.00    +0.000 A 
ATOM     11  C   UNL     1      41.931  -1.100  11.604  0.00  0.00    +0.000 A 
BRANCH   6  13
ATOM     12  C   UNL     1      40.158  -0.538   8.776  0.00  0.00    +0.000 C 
ATOM     13  C   UNL     1      41.182  -1.554   9.258  0.00  0.00    +0.000 C 
ATOM     14  C   UNL     1      40.745  -2.882   8.631  0.00  0.00    +0.000 C 
ENDBRANCH   6  13
ENDBRANCH   1   9
BRANCH   4  15
ATOM     15  C   UNL     1      37.486  -1.690  16.800  0.00  0.00    +0.000 A 
ATOM     16  C   UNL     1      37.303  -1.129  18.044  0.00  0.00    +0.000 A 
ATOM     17  C   UNL     1      36.049  -0.815  18.554  0.00  0.00    +0.000 A 
ATOM     18  C   UNL     1      34.911  -1.063  17.817  0.00  0.00    +0.000 A 
ATOM     19  C   UNL     1      35.073  -1.623  16.575  0.00  0.00    +0.000 A 
ATOM     20  C   UNL     1      36.326  -1.921  16.098  0.00  0.00    +0.000 A 
ENDBRANCH   4  15
BRANCH   5  21
ATOM     21  C   UNL     1      39.044  -0.091  14.675  0.00  0.00    +0.000 C 
ATOM     22  O   UNL     1      38.020  -0.071  13.957  0.00  0.00    +0.000 OA
ATOM     23  N   UNL     1      39.791   1.067  14.794  0.00  0.00    +0.000 NA
BRANCH  23  24
ATOM     24  C   UNL     1      39.568   2.330  14.204  0.00  0.00    +0.000 C 
BRANCH  24  25
ATOM     25  C   UNL     1      39.229   3.468  15.072  0.00  0.00    +0.000 C 
BRANCH  25  26
ATOM     26  O   UNL     1      38.257   3.222  16.052  0.00  0.00    +0.000 OA
BRANCH  26  27
ATOM     27  C   UNL     1      36.904   3.185  15.844  0.00  0.00    +0.000 A 
ATOM     28  C   UNL     1      36.156   2.260  16.530  0.00  0.00    +0.000 A 
ATOM     29  C   UNL     1      34.787   2.265  16.282  0.00  0.00    +0.000 A 
ATOM     30  C   UNL     1      34.200   3.129  15.413  0.00  0.00    +0.000 A 
ATOM     31  C   UNL     1      34.955   4.058  14.724  0.00  0.00    +0.000 A 
ATOM     32  C   UNL     1      36.322   4.059  14.967  0.00  0.00    +0.000 A 
ENDBRANCH  26  27
ENDBRANCH  25  26
ENDBRANCH  24  25
ENDBRANCH  23  24
ENDBRANCH   5  21
TORSDOF 8
ENDMDL
MODEL 3
REMARK VINA RESULT:      -6.9      1.946      6.745
REMARK  Name = 
REMARK  8 active torsions:
REMARK  status: ('A' for Active; 'I' for Inactive)
REMARK    1  A    between atoms: C_2  and  C_4
REMARK    2  A    between atoms: C_7  and  C_8
REMARK    3  A    between atoms: C_11  and  C_12
REMARK    4  A    between atoms: C_18  and  C_19
REMARK    5  A    between atoms: N_21  and  C_22
REMARK    6  A    between atoms: C_22  and  C_23
REMARK    7  A    between atoms: C_23  and  O_24
REMARK    8  A    between atoms: O_24  and  C_25
REMARK                            x       y       z     vdW  Elec       q    Type
REMARK                         _______ _______ _______ _____ _____    ______ ____
ROOT
ATOM      1  C   UNL     1      38.422   3.839  14.014  0.00  0.00    +0.000 C 
ATOM      2  O   UNL     1      39.869   4.164  14.157  0.00  0.00    +0.000 OA
ATOM      3  N   UNL     1      39.672   5.453  14.639  0.00  0.00    +0.000 NA
ATOM      4  C   UNL     1      38.887   5.135  15.829  0.00  0.00    +0.000 C 
ATOM      5  C   UNL     1      38.086   4.142  15.553  0.00  0.00    +0.000 C 
ENDROOT
BRANCH   1   9
ATOM      6  C   UNL     1      38.861  -0.506  14.387  0.00  0.00    +0.000 A 
ATOM      7  C   UNL     1      37.675   0.035  13.958  0.00  0.00    +0.000 A 
ATOM      8  C   UNL     1      37.538   1.412  13.840  0.00  0.00    +0.000 A 
ATOM      9  C   UNL     1      38.502   2.262  14.124  0.00  0.00    +0.000 A 
ATOM     10  C   UNL     1      39.710   1.758  14.559  0.00  0.00    +0.000 A 
ATOM     11  C   UNL     1      39.879   0.372  14.688  0.00  0.00    +0.000 A 
BRANCH   6  13
ATOM     12  C   UNL     1      40.551  -2.278  14.641  0.00  0.00    +0.000 C 
ATOM     13  C   UNL     1      39.061  -1.991  14.532  0.00  0.00    +0.000 C 
ATOM     14  C   UNL     1      38.634  -2.622  13.203  0.00  0.00    +0.000 C 
ENDBRANCH   6  13
ENDBRANCH   1   9
BRANCH   4  15
ATOM     15  C   UNL     1      38.922   5.824  17.116  0.00  0.00    +0.000 A 
ATOM     16  C   UNL     1      39.703   5.462  18.190  0.00  0.00    +0.000 A 
ATOM     17  C   UNL     1      39.705   6.161  19.391  0.00  0.00    +0.000 A 
ATOM     18  C   UNL     1      38.905   7.270  19.558  0.00  0.00    +0.000 A 
ATOM     19  C   UNL     1      38.120   7.647  18.499  0.00  0.00    +0.000 A 
ATOM     20  C   UNL     1      38.139   6.936  17.323  0.00  0.00    +0.000 A 
ENDBRANCH   4  15
BRANCH   5  21
ATOM     21  C   UNL     1      37.146   3.430  16.332  0.00  0.00    +0.000 C 
ATOM     22  O   UNL     1      37.463   3.063  17.485  0.00  0.00    +0.000 OA
ATOM     23  N   UNL     1      35.881   3.121  15.865  0.00  0.00    +0.000 NA
BRANCH  23  24
ATOM     24  C   UNL     1      34.842   2.423  16.517  0.00  0.00    +0.000 C 
BRANCH  24  25
ATOM     25  C   UNL     1      34.847   0.952  16.485  0.00  0.00    +0.000 C 
BRANCH  25  26
ATOM     26  O   UNL     1      35.864   0.328  17.220  0.00  0.00    +0.000 OA
BRANCH  26  27
ATOM     27  C   UNL     1      36.225  -0.990  17.128  0.00  0.00    +0.000 A 
ATOM     28  C   UNL     1      35.492  -1.820  16.317  0.00  0.00    +0.000 A 
ATOM     29  C   UNL     1      35.900  -3.148  16.259  0.00  0.00    +0.000 A 
ATOM     30  C   UNL     1      36.964  -3.622  16.959  0.00  0.00    +0.000 A 
ATOM     31  C   UNL     1      37.700  -2.784  17.776  0.00  0.00    +0.000 A 
ATOM     32  C   UNL     1      37.298  -1.457  17.837  0.00  0.00    +0.000 A 
ENDBRANCH  26  27
ENDBRANCH  25  26
ENDBRANCH  24  25
ENDBRANCH  23  24
ENDBRANCH   5  21
TORSDOF 8
ENDMDL
MODEL 4
REMARK VINA RESULT:      -6.8      1.304      1.515
REMARK  Name = 
REMARK  8 active torsions:
REMARK  status: ('A' for Active; 'I' for Inactive)
REMARK    1  A    between atoms: C_2  and  C_4
REMARK    2  A    between atoms: C_7  and  C_8
REMARK    3  A    between atoms: C_11  and  C_12
REMARK    4  A    between atoms: C_18  and  C_19
REMARK    5  A    between atoms: N_21  and  C_22
REMARK    6  A    between atoms: C_22  and  C_23
REMARK    7  A    between atoms: C_23  and  O_24
REMARK    8  A    between atoms: O_24  and  C_25
REMARK                            x       y       z     vdW  Elec       q    Type
REMARK                         _______ _______ _______ _____ _____    ______ ____
ROOT
ATOM      1  C   UNL     1      35.234   1.960  15.779  0.00  0.00    +0.000 C 
ATOM      2  O   UNL     1      35.013   1.502  17.179  0.00  0.00    +0.000 OA
ATOM      3  N   UNL     1      34.605   0.217  16.838  0.00  0.00    +0.000 NA
ATOM      4  C   UNL     1      35.800  -0.220  16.120  0.00  0.00    +0.000 C 
ATOM      5  C   UNL     1      36.273   0.787  15.439  0.00  0.00    +0.000 C 
ENDROOT
BRANCH   1   9
ATOM      6  C   UNL     1      38.199   5.044  16.733  0.00  0.00    +0.000 A 
ATOM      7  C   UNL     1      37.562   5.050  15.518  0.00  0.00    +0.000 A 
ATOM      8  C   UNL     1      36.623   4.071  15.217  0.00  0.00    +0.000 A 
ATOM      9  C   UNL     1      36.292   3.106  16.048  0.00  0.00    +0.000 A 
ATOM     10  C   UNL     1      36.909   3.065  17.281  0.00  0.00    +0.000 A 
ATOM     11  C   UNL     1      37.862   4.039  17.614  0.00  0.00    +0.000 A 
BRANCH   6  13
ATOM     12  C   UNL     1      40.452   5.899  16.230  0.00  0.00    +0.000 C 
ATOM     13  C   UNL     1      39.224   6.080  17.109  0.00  0.00    +0.000 C 
ATOM     14  C   UNL     1      39.699   5.735  18.524  0.00  0.00    +0.000 C 
ENDBRANCH   6  13
ENDBRANCH   1   9
BRANCH   4  15
ATOM     15  C   UNL     1      36.369  -1.564  16.098  0.00  0.00    +0.000 A 
ATOM     16  C   UNL     1      37.288  -2.052  17.000  0.00  0.00    +0.000 A 
ATOM     17  C   UNL     1      37.792  -3.346  16.938  0.00  0.00    +0.000 A 
ATOM     18  C   UNL     1      37.383  -4.211  15.947  0.00  0.00    +0.000 A 
ATOM     19  C   UNL     1      36.468  -3.743  15.039  0.00  0.00    +0.000 A 
ATOM     20  C   UNL     1      35.987  -2.458  15.125  0.00  0.00    +0.000 A 
ENDBRANCH   4  15
BRANCH   5  21
ATOM     21  C   UNL     1      37.407   0.926  14.605  0.00  0.00    +0.000 C 
ATOM     22  O   UNL     1      38.548   0.870  15.115  0.00  0.00    +0.000 OA
ATOM     23  N   UNL     1      37.302   1.122  13.240  0.00  0.00    +0.000 NA
BRANCH  23  24
ATOM     24  C   UNL     1      38.330   1.277  12.285  0.00  0.00    +0.000 C 
BRANCH  24  25
ATOM     25  C   UNL     1      38.651   0.147  11.400  0.00  0.00    +0.000 C 
BRANCH  25  26
ATOM     26  O   UNL     1      38.876  -1.082  12.034  0.00  0.00    +0.000 OA
BRANCH  26  27
ATOM     27  C   UNL     1      39.931  -1.376  12.856  0.00  0.00    +0.000 A 
ATOM     28  C   UNL     1      41.173  -0.887  12.537  0.00  0.00    +0.000 A 
ATOM     29  C   UNL     1      42.210  -1.216  13.405  0.00  0.00    +0.000 A 
ATOM     30  C   UNL     1      42.026  -1.978  14.515  0.00  0.00    +0.000 A 
ATOM     31  C   UNL     1      40.774  -2.469  14.834  0.00  0.00    +0.000 A 
ATOM     32  C   UNL     1      39.736  -2.144  13.971  0.00  0.00    +0.000 A 
ENDBRANCH  26  27
ENDBRANCH  25  26
ENDBRANCH  24  25
ENDBRANCH  23  24
ENDBRANCH   5  21
TORSDOF 8
ENDMDL
MODEL 5
REMARK VINA RESULT:      -6.5      2.315      7.253
REMARK  Name = 
REMARK  8 active torsions:
REMARK  status: ('A' for Active; 'I' for Inactive)
REMARK    1  A    between atoms: C_2  and  C_4
REMARK    2  A    between atoms: C_7  and  C_8
REMARK    3  A    between atoms: C_11  and  C_12
REMARK    4  A    between atoms: C_18  and  C_19
REMARK    5  A    between atoms: N_21  and  C_22
REMARK    6  A    between atoms: C_22  and  C_23
REMARK    7  A    between atoms: C_23  and  O_24
REMARK    8  A    between atoms: O_24  and  C_25
REMARK                            x       y       z     vdW  Elec       q    Type
REMARK                         _______ _______ _______ _____ _____    ______ ____
ROOT
ATOM      1  C   UNL     1      40.364  -1.886  15.278  0.00  0.00    +0.000 C 
ATOM      2  O   UNL     1      39.804  -3.264  15.370  0.00  0.00    +0.000 OA
ATOM      3  N   UNL     1      39.208  -3.085  16.613  0.00  0.00    +0.000 NA
ATOM      4  C   UNL     1      38.322  -1.971  16.285  0.00  0.00    +0.000 C 
ATOM      5  C   UNL     1      38.938  -1.173  15.457  0.00  0.00    +0.000 C 
ENDROOT
BRANCH   1   9
ATOM      6  C   UNL     1      40.502  -1.702  10.902  0.00  0.00    +0.000 A 
ATOM      7  C   UNL     1      41.257  -0.837  11.654  0.00  0.00    +0.000 A 
ATOM      8  C   UNL     1      41.211  -0.897  13.041  0.00  0.00    +0.000 A 
ATOM      9  C   UNL     1      40.467  -1.756  13.704  0.00  0.00    +0.000 A 
ATOM     10  C   UNL     1      39.694  -2.643  12.984  0.00  0.00    +0.000 A 
ATOM     11  C   UNL     1      39.719  -2.607  11.582  0.00  0.00    +0.000 A 
BRANCH   6  13
ATOM     12  C   UNL     1      41.730  -2.447   8.902  0.00  0.00    +0.000 C 
ATOM     13  C   UNL     1      40.515  -1.678   9.397  0.00  0.00    +0.000 C 
ATOM     14  C   UNL     1      40.773  -0.226   8.983  0.00  0.00    +0.000 C 
ENDBRANCH   6  13
ENDBRANCH   1   9
BRANCH   4  15
ATOM     15  C   UNL     1      36.985  -1.725  16.817  0.00  0.00    +0.000 A 
ATOM     16  C   UNL     1      36.685  -0.853  17.839  0.00  0.00    +0.000 A 
ATOM     17  C   UNL     1      35.390  -0.649  18.302  0.00  0.00    +0.000 A 
ATOM     18  C   UNL     1      34.331  -1.330  17.743  0.00  0.00    +0.000 A 
ATOM     19  C   UNL     1      34.610  -2.204  16.724  0.00  0.00    +0.000 A 
ATOM     20  C   UNL     1      35.900  -2.384  16.287  0.00  0.00    +0.000 A 
ENDBRANCH   4  15
BRANCH   5  21
ATOM     21  C   UNL     1      38.542   0.019  14.809  0.00  0.00    +0.000 C 
ATOM     22  O   UNL     1      37.611  -0.021  13.974  0.00  0.00    +0.000 OA
ATOM     23  N   UNL     1      39.149   1.236  15.063  0.00  0.00    +0.000 NA
BRANCH  23  24
ATOM     24  C   UNL     1      38.869   2.501  14.502  0.00  0.00    +0.000 C 
BRANCH  24  25
ATOM     25  C   UNL     1      37.867   3.359  15.152  0.00  0.00    +0.000 C 
BRANCH  25  26
ATOM     26  O   UNL     1      38.057   3.590  16.522  0.00  0.00    +0.000 OA
BRANCH  26  27
ATOM     27  C   UNL     1      38.810   4.595  17.066  0.00  0.00    +0.000 A 
ATOM     28  C   UNL     1      38.766   4.793  18.424  0.00  0.00    +0.000 A 
ATOM     29  C   UNL     1      39.549   5.827  18.926  0.00  0.00    +0.000 A 
ATOM     30  C   UNL     1      40.325   6.613  18.133  0.00  0.00    +0.000 A 
ATOM     31  C   UNL     1      40.368   6.412  16.767  0.00  0.00    +0.000 A 
ATOM     32  C   UNL     1      39.588   5.381  16.261  0.00  0.00    +0.000 A 
ENDBRANCH  26  27
ENDBRANCH  25  26
ENDBRANCH  24  25
ENDBRANCH  23  24
ENDBRANCH   5  21
TORSDOF 8
ENDMDL
MODEL 6
REMARK VINA RESULT:      -6.4      2.272      3.674
REMARK  Name = 
REMARK  8 active torsions:
REMARK  status: ('A' for Active; 'I' for Inactive)
REMARK    1  A    between atoms: C_2  and  C_4
REMARK    2  A    between atoms: C_7  and  C_8
REMARK    3  A    between atoms: C_11  and  C_12
REMARK    4  A    between atoms: C_18  and  C_19
REMARK    5  A    between atoms: N_21  and  C_22
REMARK    6  A    between atoms: C_22  and  C_23
REMARK    7  A    between atoms: C_23  and  O_24
REMARK    8  A    between atoms: O_24  and  C_25
REMARK                            x       y       z     vdW  Elec       q    Type
REMARK                         _______ _______ _______ _____ _____    ______ ____
ROOT
ATOM      1  C   UNL     1      35.903   3.151  14.320  0.00  0.00    +0.000 C 
ATOM      2  O   UNL     1      35.478   3.736  15.622  0.00  0.00    +0.000 OA
ATOM      3  N   UNL     1      34.606   2.706  15.955  0.00  0.00    +0.000 NA
ATOM      4  C   UNL     1      35.551   1.593  15.944  0.00  0.00    +0.000 C 
ATOM      5  C   UNL     1      36.403   1.774  14.973  0.00  0.00    +0.000 C 
ENDROOT
BRANCH   1   9
ATOM      6  C   UNL     1      39.816   5.025  13.699  0.00  0.00    +0.000 A 
ATOM      7  C   UNL     1      39.282   4.939  14.961  0.00  0.00    +0.000 A 
ATOM      8  C   UNL     1      38.042   4.346  15.155  0.00  0.00    +0.000 A 
ATOM      9  C   UNL     1      37.319   3.842  14.178  0.00  0.00    +0.000 A 
ATOM     10  C   UNL     1      37.821   3.908  12.894  0.00  0.00    +0.000 A 
ATOM     11  C   UNL     1      39.071   4.502  12.666  0.00  0.00    +0.000 A 
BRANCH   6  13
ATOM     12  C   UNL     1      42.123   4.586  12.960  0.00  0.00    +0.000 C 
ATOM     13  C   UNL     1      41.155   5.659  13.434  0.00  0.00    +0.000 C 
ATOM     14  C   UNL     1      41.703   6.111  14.792  0.00  0.00    +0.000 C 
ENDBRANCH   6  13
ENDBRANCH   1   9
BRANCH   4  15
ATOM     15  C   UNL     1      35.543   0.424  16.819  0.00  0.00    +0.000 A 
ATOM     16  C   UNL     1      35.022  -0.808  16.494  0.00  0.00    +0.000 A 
ATOM     17  C   UNL     1      35.049  -1.892  17.363  0.00  0.00    +0.000 A 
ATOM     18  C   UNL     1      35.610  -1.772  18.615  0.00  0.00    +0.000 A 
ATOM     19  C   UNL     1      36.134  -0.552  18.958  0.00  0.00    +0.000 A 
ATOM     20  C   UNL     1      36.093   0.502  18.077  0.00  0.00    +0.000 A 
ENDBRANCH   4  15
BRANCH   5  21
ATOM     21  C   UNL     1      37.523   1.030  14.536  0.00  0.00    +0.000 C 
ATOM     22  O   UNL     1      38.556   1.011  15.243  0.00  0.00    +0.000 OA
ATOM     23  N   UNL     1      37.522   0.319  13.350  0.00  0.00    +0.000 NA
BRANCH  23  24
ATOM     24  C   UNL     1      38.552  -0.463  12.783  0.00  0.00    +0.000 C 
BRANCH  24  25
ATOM     25  C   UNL     1      38.509  -1.923  12.955  0.00  0.00    +0.000 C 
BRANCH  25  26
ATOM     26  O   UNL     1      37.532  -2.407  13.837  0.00  0.00    +0.000 OA
BRANCH  26  27
ATOM     27  C   UNL     1      37.769  -2.985  15.055  0.00  0.00    +0.000 A 
ATOM     28  C   UNL     1      37.133  -4.162  15.362  0.00  0.00    +0.000 A 
ATOM     29  C   UNL     1      37.408  -4.707  16.612  0.00  0.00    +0.000 A 
ATOM     30  C   UNL     1      38.258  -4.123  17.498  0.00  0.00    +0.000 A 
ATOM     31  C   UNL     1      38.896  -2.938  17.186  0.00  0.00    +0.000 A 
ATOM     32  C   UNL     1      38.625  -2.390  15.940  0.00  0.00    +0.000 A 
ENDBRANCH  26  27
ENDBRANCH  25  26
ENDBRANCH  24  25
ENDBRANCH  23  24
ENDBRANCH   5  21
TORSDOF 8
ENDMDL
MODEL 7
REMARK VINA RESULT:      -6.4      2.128      6.492
REMARK  Name = 
REMARK  8 active torsions:
REMARK  status: ('A' for Active; 'I' for Inactive)
REMARK    1  A    between atoms: C_2  and  C_4
REMARK    2  A    between atoms: C_7  and  C_8
REMARK    3  A    between atoms: C_11  and  C_12
REMARK    4  A    between atoms: C_18  and  C_19
REMARK    5  A    between atoms: N_21  and  C_22
REMARK    6  A    between atoms: C_22  and  C_23
REMARK    7  A    between atoms: C_23  and  O_24
REMARK    8  A    between atoms: O_24  and  C_25
REMARK                            x       y       z     vdW  Elec       q    Type
REMARK                         _______ _______ _______ _____ _____    ______ ____
ROOT
ATOM      1  C   UNL     1      40.362   0.191  14.181  0.00  0.00    +0.000 C 
ATOM      2  O   UNL     1      40.852  -0.995  13.426  0.00  0.00    +0.000 OA
ATOM      3  N   UNL     1      40.909  -1.843  14.527  0.00  0.00    +0.000 NA
ATOM      4  C   UNL     1      39.508  -1.781  14.935  0.00  0.00    +0.000 C 
ATOM      5  C   UNL     1      39.069  -0.566  14.754  0.00  0.00    +0.000 C 
ENDROOT
BRANCH   1   9
ATOM      6  C   UNL     1      38.387   2.146  10.792  0.00  0.00    +0.000 A 
ATOM      7  C   UNL     1      38.646   2.850  11.941  0.00  0.00    +0.000 A 
ATOM      8  C   UNL     1      39.271   2.229  13.014  0.00  0.00    +0.000 A 
ATOM      9  C   UNL     1      39.645   0.967  13.003  0.00  0.00    +0.000 A 
ATOM     10  C   UNL     1      39.403   0.225  11.866  0.00  0.00    +0.000 A 
ATOM     11  C   UNL     1      38.773   0.825  10.765  0.00  0.00    +0.000 A 
BRANCH   6  13
ATOM     12  C   UNL     1      36.938   3.997  10.062  0.00  0.00    +0.000 C 
ATOM     13  C   UNL     1      37.712   2.772   9.601  0.00  0.00    +0.000 C 
ATOM     14  C   UNL     1      36.639   1.782   9.135  0.00  0.00    +0.000 C 
ENDBRANCH   6  13
ENDBRANCH   1   9
BRANCH   4  15
ATOM     15  C   UNL     1      38.712  -2.863  15.509  0.00  0.00    +0.000 A 
ATOM     16  C   UNL     1      37.624  -3.454  14.906  0.00  0.00    +0.000 A 
ATOM     17  C   UNL     1      36.906  -4.489  15.494  0.00  0.00    +0.000 A 
ATOM     18  C   UNL     1      37.262  -4.973  16.733  0.00  0.00    +0.000 A 
ATOM     19  C   UNL     1      38.342  -4.396  17.350  0.00  0.00    +0.000 A 
ATOM     20  C   UNL     1      39.034  -3.375  16.744  0.00  0.00    +0.000 A 
ENDBRANCH   4  15
BRANCH   5  21
ATOM     21  C   UNL     1      37.804   0.031  14.955  0.00  0.00    +0.000 C 
ATOM     22  O   UNL     1      36.866  -0.252  14.176  0.00  0.00    +0.000 OA
ATOM     23  N   UNL     1      37.560   0.921  15.985  0.00  0.00    +0.000 NA
BRANCH  23  24
ATOM     24  C   UNL     1      36.363   1.593  16.311  0.00  0.00    +0.000 C 
BRANCH  24  25
ATOM     25  C   UNL     1      36.413   3.038  16.585  0.00  0.00    +0.000 C 
BRANCH  25  26
ATOM     26  O   UNL     1      37.377   3.450  17.516  0.00  0.00    +0.000 OA
BRANCH  26  27
ATOM     27  C   UNL     1      38.395   4.333  17.276  0.00  0.00    +0.000 A 
ATOM     28  C   UNL     1      38.917   5.042  18.329  0.00  0.00    +0.000 A 
ATOM     29  C   UNL     1      39.949   5.926  18.031  0.00  0.00    +0.000 A 
ATOM     30  C   UNL     1      40.431   6.094  16.771  0.00  0.00    +0.000 A 
ATOM     31  C   UNL     1      39.904   5.380  15.712  0.00  0.00    +0.000 A 
ATOM     32  C   UNL     1      38.874   4.496  16.005  0.00  0.00    +0.000 A 
ENDBRANCH  26  27
ENDBRANCH  25  26
ENDBRANCH  24  25
ENDBRANCH  23  24
ENDBRANCH   5  21
TORSDOF 8
ENDMDL
MODEL 8
REMARK VINA RESULT:      -6.3      2.520      5.224
REMARK  Name = 
REMARK  8 active torsions:
REMARK  status: ('A' for Active; 'I' for Inactive)
REMARK    1  A    between atoms: C_2  and  C_4
REMARK    2  A    between atoms: C_7  and  C_8
REMARK    3  A    between atoms: C_11  and  C_12
REMARK    4  A    between atoms: C_18  and  C_19
REMARK    5  A    between atoms: N_21  and  C_22
REMARK    6  A    between atoms: C_22  and  C_23
REMARK    7  A    between atoms: C_23  and  O_24
REMARK    8  A    between atoms: O_24  and  C_25
REMARK                            x       y       z     vdW  Elec       q    Type
REMARK                         _______ _______ _______ _____ _____    ______ ____
ROOT
ATOM      1  C   UNL     1      39.410   4.366  14.203  0.00  0.00    +0.000 C 
ATOM      2  O   UNL     1      39.545   3.886  12.799  0.00  0.00    +0.000 OA
ATOM      3  N   UNL     1      40.216   2.712  13.121  0.00  0.00    +0.000 NA
ATOM      4  C   UNL     1      39.213   2.106  13.994  0.00  0.00    +0.000 C 
ATOM      5  C   UNL     1      38.648   3.046  14.702  0.00  0.00    +0.000 C 
ENDROOT
BRANCH   1   9
ATOM      6  C   UNL     1      35.842   6.823  13.544  0.00  0.00    +0.000 A 
ATOM      7  C   UNL     1      36.622   7.021  14.655  0.00  0.00    +0.000 A 
ATOM      8  C   UNL     1      37.752   6.241  14.863  0.00  0.00    +0.000 A 
ATOM      9  C   UNL     1      38.138   5.292  14.036  0.00  0.00    +0.000 A 
ATOM     10  C   UNL     1      37.382   5.062  12.907  0.00  0.00    +0.000 A 
ATOM     11  C   UNL     1      36.234   5.833  12.670  0.00  0.00    +0.000 A 
BRANCH   6  13
ATOM     12  C   UNL     1      33.590   7.376  14.372  0.00  0.00    +0.000 C 
ATOM     13  C   UNL     1      34.607   7.640  13.272  0.00  0.00    +0.000 C 
ATOM     14  C   UNL     1      33.971   7.064  12.003  0.00  0.00    +0.000 C 
ENDBRANCH   6  13
ENDBRANCH   1   9
BRANCH   4  15
ATOM     15  C   UNL     1      38.904   0.685  14.124  0.00  0.00    +0.000 A 
ATOM     16  C   UNL     1      37.817   0.055  13.561  0.00  0.00    +0.000 A 
ATOM     17  C   UNL     1      37.574  -1.306  13.709  0.00  0.00    +0.000 A 
ATOM     18  C   UNL     1      38.431  -2.095  14.443  0.00  0.00    +0.000 A 
ATOM     19  C   UNL     1      39.520  -1.485  15.012  0.00  0.00    +0.000 A 
ATOM     20  C   UNL     1      39.734  -0.138  14.848  0.00  0.00    +0.000 A 
ENDBRANCH   4  15
BRANCH   5  21
ATOM     21  C   UNL     1      37.615   3.023  15.665  0.00  0.00    +0.000 C 
ATOM     22  O   UNL     1      37.892   3.262  16.862  0.00  0.00    +0.000 OA
ATOM     23  N   UNL     1      36.301   2.744  15.335  0.00  0.00    +0.000 NA
BRANCH  23  24
ATOM     24  C   UNL     1      35.168   2.685  16.175  0.00  0.00    +0.000 C 
BRANCH  24  25
ATOM     25  C   UNL     1      34.822   1.402  16.808  0.00  0.00    +0.000 C 
BRANCH  25  26
ATOM     26  O   UNL     1      35.898   0.661  17.316  0.00  0.00    +0.000 OA
BRANCH  26  27
ATOM     27  C   UNL     1      36.045  -0.697  17.228  0.00  0.00    +0.000 A 
ATOM     28  C   UNL     1      37.083  -1.294  17.901  0.00  0.00    +0.000 A 
ATOM     29  C   UNL     1      37.188  -2.675  17.778  0.00  0.00    +0.000 A 
ATOM     30  C   UNL     1      36.322  -3.416  17.038  0.00  0.00    +0.000 A 
ATOM     31  C   UNL     1      35.278  -2.813  16.362  0.00  0.00    +0.000 A 
ATOM     32  C   UNL     1      35.168  -1.435  16.481  0.00  0.00    +0.000 A 
ENDBRANCH  26  27
ENDBRANCH  25  26
ENDBRANCH  24  25
ENDBRANCH  23  24
ENDBRANCH   5  21
TORSDOF 8
ENDMDL
MODEL 9
REMARK VINA RESULT:      -6.2      3.138      6.925
REMARK  Name = 
REMARK  8 active torsions:
REMARK  status: ('A' for Active; 'I' for Inactive)
REMARK    1  A    between atoms: C_2  and  C_4
REMARK    2  A    between atoms: C_7  and  C_8
REMARK    3  A    between atoms: C_11  and  C_12
REMARK    4  A    between atoms: C_18  and  C_19
REMARK    5  A    between atoms: N_21  and  C_22
REMARK    6  A    between atoms: C_22  and  C_23
REMARK    7  A    between atoms: C_23  and  O_24
REMARK    8  A    between atoms: O_24  and  C_25
REMARK                            x       y       z     vdW  Elec       q    Type
REMARK                         _______ _______ _______ _____ _____    ______ ____
ROOT
ATOM      1  C   UNL     1      41.050   0.020  11.981  0.00  0.00    +0.000 C 
ATOM      2  O   UNL     1      41.238   1.436  12.403  0.00  0.00    +0.000 OA
ATOM      3  N   UNL     1      39.930   1.830  12.145  0.00  0.00    +0.000 NA
ATOM      4  C   UNL     1      39.233   0.903  13.033  0.00  0.00    +0.000 C 
ATOM      5  C   UNL     1      39.850  -0.246  13.012  0.00  0.00    +0.000 C 
ENDROOT
BRANCH   1   9
ATOM      6  C   UNL     1      44.263  -1.656  14.445  0.00  0.00    +0.000 A 
ATOM      7  C   UNL     1      43.725  -2.390  13.418  0.00  0.00    +0.000 A 
ATOM      8  C   UNL     1      42.707  -1.857  12.638  0.00  0.00    +0.000 A 
ATOM      9  C   UNL     1      42.206  -0.655  12.825  0.00  0.00    +0.000 A 
ATOM     10  C   UNL     1      42.720   0.115  13.848  0.00  0.00    +0.000 A 
ATOM     11  C   UNL     1      43.749  -0.395  14.653  0.00  0.00    +0.000 A 
BRANCH   6  13
ATOM     12  C   UNL     1      46.348  -1.061  15.613  0.00  0.00    +0.000 C 
ATOM     13  C   UNL     1      45.368  -2.186  15.320  0.00  0.00    +0.000 C 
ATOM     14  C   UNL     1      46.159  -3.185  14.469  0.00  0.00    +0.000 C 
ENDBRANCH   6  13
ENDBRANCH   1   9
BRANCH   4  15
ATOM     15  C   UNL     1      38.013   1.164  13.793  0.00  0.00    +0.000 A 
ATOM     16  C   UNL     1      36.740   0.829  13.389  0.00  0.00    +0.000 A 
ATOM     17  C   UNL     1      35.612   1.092  14.157  0.00  0.00    +0.000 A 
ATOM     18  C   UNL     1      35.727   1.714  15.381  0.00  0.00    +0.000 A 
ATOM     19  C   UNL     1      36.987   2.055  15.800  0.00  0.00    +0.000 A 
ATOM     20  C   UNL     1      38.084   1.783  15.019  0.00  0.00    +0.000 A 
ENDBRANCH   4  15
BRANCH   5  21
ATOM     21  C   UNL     1      39.623  -1.464  13.693  0.00  0.00    +0.000 C 
ATOM     22  O   UNL     1      38.971  -2.367  13.124  0.00  0.00    +0.000 OA
ATOM     23  N   UNL     1      40.096  -1.696  14.972  0.00  0.00    +0.000 NA
BRANCH  23  24
ATOM     24  C   UNL     1      39.952  -2.848  15.775  0.00  0.00    +0.000 C 
BRANCH  24  25
ATOM     25  C   UNL     1      39.084  -2.781  16.961  0.00  0.00    +0.000 C 
BRANCH  25  26
ATOM     26  O   UNL     1      38.423  -1.562  17.166  0.00  0.00    +0.000 OA
BRANCH  26  27
ATOM     27  C   UNL     1      37.067  -1.392  17.247  0.00  0.00    +0.000 A 
ATOM     28  C   UNL     1      36.271  -1.957  16.281  0.00  0.00    +0.000 A 
ATOM     29  C   UNL     1      34.901  -1.754  16.409  0.00  0.00    +0.000 A 
ATOM     30  C   UNL     1      34.356  -1.038  17.428  0.00  0.00    +0.000 A 
ATOM     31  C   UNL     1      35.159  -0.470  18.399  0.00  0.00    +0.000 A 
ATOM     32  C   UNL     1      36.527  -0.670  18.276  0.00  0.00    +0.000 A 
ENDBRANCH  26  27
ENDBRANCH  25  26
ENDBRANCH  24  25
ENDBRANCH  23  24
ENDBRANCH   5  21
TORSDOF 8
ENDMDL
MODEL 10
REMARK VINA RESULT:      -6.1      3.443      6.620
REMARK  Name = 
REMARK  8 active torsions:
REMARK  status: ('A' for Active; 'I' for Inactive)
REMARK    1  A    between atoms: C_2  and  C_4
REMARK    2  A    between atoms: C_7  and  C_8
REMARK    3  A    between atoms: C_11  and  C_12
REMARK    4  A    between atoms: C_18  and  C_19
REMARK    5  A    between atoms: N_21  and  C_22
REMARK    6  A    between atoms: C_22  and  C_23
REMARK    7  A    between atoms: C_23  and  O_24
REMARK    8  A    between atoms: O_24  and  C_25
REMARK                            x       y       z     vdW  Elec       q    Type
REMARK                         _______ _______ _______ _____ _____    ______ ____
ROOT
ATOM      1  C   UNL     1      38.883  -0.890  12.310  0.00  0.00    +0.000 C 
ATOM      2  O   UNL     1      38.661   0.522  11.889  0.00  0.00    +0.000 OA
ATOM      3  N   UNL     1      37.291   0.520  12.123  0.00  0.00    +0.000 NA
ATOM      4  C   UNL     1      37.302   0.188  13.545  0.00  0.00    +0.000 C 
ATOM      5  C   UNL     1      38.257  -0.672  13.770  0.00  0.00    +0.000 C 
ENDROOT
BRANCH   1   9
ATOM      6  C   UNL     1      43.121  -0.868  13.423  0.00  0.00    +0.000 A 
ATOM      7  C   UNL     1      42.411   0.306  13.384  0.00  0.00    +0.000 A 
ATOM      8  C   UNL     1      41.068   0.297  13.030  0.00  0.00    +0.000 A 
ATOM      9  C   UNL     1      40.408  -0.799  12.720  0.00  0.00    +0.000 A 
ATOM     10  C   UNL     1      41.087  -2.000  12.748  0.00  0.00    +0.000 A 
ATOM     11  C   UNL     1      42.445  -2.023  13.101  0.00  0.00    +0.000 A 
BRANCH   6  13
ATOM     12  C   UNL     1      45.013  -2.365  13.912  0.00  0.00    +0.000 C 
ATOM     13  C   UNL     1      44.578  -0.913  13.799  0.00  0.00    +0.000 C 
ATOM     14  C   UNL     1      44.681  -0.359  15.224  0.00  0.00    +0.000 C 
ENDBRANCH   6  13
ENDBRANCH   1   9
BRANCH   4  15
ATOM     15  C   UNL     1      36.380   0.674  14.568  0.00  0.00    +0.000 A 
ATOM     16  C   UNL     1      35.900  -0.070  15.622  0.00  0.00    +0.000 A 
ATOM     17  C   UNL     1      35.029   0.445  16.575  0.00  0.00    +0.000 A 
ATOM     18  C   UNL     1      34.600   1.752  16.498  0.00  0.00    +0.000 A 
ATOM     19  C   UNL     1      35.067   2.509  15.455  0.00  0.00    +0.000 A 
ATOM     20  C   UNL     1      35.928   1.972  14.528  0.00  0.00    +0.000 A 
ENDBRANCH   4  15
BRANCH   5  21
ATOM     21  C   UNL     1      38.720  -1.296  14.951  0.00  0.00    +0.000 C 
ATOM     22  O   UNL     1      39.291  -0.603  15.822  0.00  0.00    +0.000 OA
ATOM     23  N   UNL     1      38.564  -2.651  15.181  0.00  0.00    +0.000 NA
BRANCH  23  24
ATOM     24  C   UNL     1      38.969  -3.412  16.299  0.00  0.00    +0.000 C 
BRANCH  24  25
ATOM     25  C   UNL     1      37.960  -3.796  17.298  0.00  0.00    +0.000 C 
BRANCH  25  26
ATOM     26  O   UNL     1      36.647  -3.382  17.031  0.00  0.00    +0.000 OA
BRANCH  26  27
ATOM     27  C   UNL     1      35.715  -4.088  16.319  0.00  0.00    +0.000 A 
ATOM     28  C   UNL     1      35.870  -5.447  16.193  0.00  0.00    +0.000 A 
ATOM     29  C   UNL     1      34.897  -6.116  15.460  0.00  0.00    +0.000 A 
ATOM     30  C   UNL     1      33.839  -5.481  14.889  0.00  0.00    +0.000 A 
ATOM     31  C   UNL     1      33.686  -4.114  15.017  0.00  0.00    +0.000 A 
ATOM     32  C   UNL     1      34.654  -3.440  15.748  0.00  0.00    +0.000 A 
ENDBRANCH  26  27
ENDBRANCH  25  26
ENDBRANCH  24  25
ENDBRANCH  23  24
ENDBRANCH   5  21
TORSDOF 8
ENDMDL
