MODEL 1
REMARK VINA RESULT:      -7.8      0.000      0.000
REMARK  Name = 
REMARK  3 active torsions:
REMARK  status: ('A' for Active; 'I' for Inactive)
REMARK    1  A    between atoms: C_5  and  N_6
REMARK    2  A    between atoms: C_7  and  C_9
REMARK    3  A    between atoms: C_12  and  C_13
REMARK                            x       y       z     vdW  Elec       q    Type
REMARK                         _______ _______ _______ _____ _____    ______ ____
ROOT
ATOM      1  N   UNL     1      16.920  10.995  37.199  0.00  0.00    +0.000 NA
ATOM      2  C   UNL     1      16.941  10.285  35.965  0.00  0.00    +0.000 C 
ATOM      3  O   UNL     1      17.420   9.117  36.047  0.00  0.00    +0.000 OA
ENDROOT
BRANCH   1   8
ATOM      4  C   UNL     1      18.978   8.920  42.061  0.00  0.00    +0.000 C 
ATOM      5  C   UNL     1      18.457   9.489  40.786  0.00  0.00    +0.000 A 
ATOM      6  C   UNL     1      17.130   9.312  40.484  0.00  0.00    +0.000 A 
ATOM      7  C   UNL     1      16.628   9.815  39.310  0.00  0.00    +0.000 A 
ATOM      8  C   UNL     1      17.387  10.493  38.411  0.00  0.00    +0.000 A 
ATOM      9  C   UNL     1      18.746  10.682  38.704  0.00  0.00    +0.000 A 
ATOM     10  O   UNL     1      19.564  11.376  37.798  0.00  0.00    +0.000 OA
ATOM     11  C   UNL     1      19.217  10.172  39.875  0.00  0.00    +0.000 A 
ENDBRANCH   1   8
BRANCH   2  12
ATOM     12  C   UNL     1      16.443  10.868  34.730  0.00  0.00    +0.000 A 
ATOM     13  C   UNL     1      15.467  11.822  34.768  0.00  0.00    +0.000 A 
ATOM     14  C   UNL     1      14.966  12.415  33.648  0.00  0.00    +0.000 A 
ATOM     15  C   UNL     1      15.469  12.042  32.398  0.00  0.00    +0.000 A 
ATOM     16  C   UNL     1      16.447  11.091  32.338  0.00  0.00    +0.000 A 
ATOM     17  C   UNL     1      16.920  10.513  33.494  0.00  0.00    +0.000 A 
BRANCH  15  18
ATOM     18  C   UNL     1      14.923  12.687  31.176  0.00  0.00    +0.000 C 
ATOM     19  C   UNL     1      16.036  13.448  30.491  0.00  0.00    +0.000 C 
ATOM     20  C   UNL     1      14.307  11.641  30.303  0.00  0.00    +0.000 C 
ATOM     21  C   UNL     1      13.872  13.705  31.593  0.00  0.00    +0.000 C 
ENDBRANCH  15  18
ENDBRANCH   2  12
TORSDOF 3
ENDMDL
MODEL 2
REMARK VINA RESULT:      -7.7      1.730      8.186
REMARK  Name = 
REMARK  3 active torsions:
REMARK  status: ('A' for Active; 'I' for Inactive)
REMARK    1  A    between atoms: C_5  and  N_6
REMARK    2  A    between atoms: C_7  and  C_9
REMARK    3  A    between atoms: C_12  and  C_13
REMARK                            x       y       z     vdW  Elec       q    Type
REMARK                         _______ _______ _______ _____ _____    ______ ____
ROOT
ATOM      1  N   UNL     1      14.983  11.500  35.918  0.00  0.00    +0.000 NA
ATOM      2  C   UNL     1      16.158  11.693  36.697  0.00  0.00    +0.000 C 
ATOM      3  O   UNL     1      16.944  12.573  36.240  0.00  0.00    +0.000 OA
ENDROOT
BRANCH   1   8
ATOM      4  C   UNL     1      13.933  14.238  31.062  0.00  0.00    +0.000 C 
ATOM      5  C   UNL     1      14.206  13.492  32.323  0.00  0.00    +0.000 A 
ATOM      6  C   UNL     1      13.756  14.020  33.507  0.00  0.00    +0.000 A 
ATOM      7  C   UNL     1      14.006  13.359  34.684  0.00  0.00    +0.000 A 
ATOM      8  C   UNL     1      14.688  12.186  34.743  0.00  0.00    +0.000 A 
ATOM      9  C   UNL     1      15.155  11.632  33.542  0.00  0.00    +0.000 A 
ATOM     10  O   UNL     1      15.866  10.422  33.562  0.00  0.00    +0.000 OA
ATOM     11  C   UNL     1      14.893  12.310  32.390  0.00  0.00    +0.000 A 
ENDBRANCH   1   8
BRANCH   2  12
ATOM     12  C   UNL     1      16.412  10.940  37.914  0.00  0.00    +0.000 A 
ATOM     13  C   UNL     1      15.389  10.665  38.775  0.00  0.00    +0.000 A 
ATOM     14  C   UNL     1      15.557   9.955  39.926  0.00  0.00    +0.000 A 
ATOM     15  C   UNL     1      16.830   9.475  40.248  0.00  0.00    +0.000 A 
ATOM     16  C   UNL     1      17.867   9.737  39.399  0.00  0.00    +0.000 A 
ATOM     17  C   UNL     1      17.654  10.463  38.250  0.00  0.00    +0.000 A 
BRANCH  15  18
ATOM     18  C   UNL     1      17.017   8.701  41.502  0.00  0.00    +0.000 C 
ATOM     19  C   UNL     1      16.340   9.442  42.634  0.00  0.00    +0.000 C 
ATOM     20  C   UNL     1      16.483   7.318  41.309  0.00  0.00    +0.000 C 
ATOM     21  C   UNL     1      18.502   8.648  41.824  0.00  0.00    +0.000 C 
ENDBRANCH  15  18
ENDBRANCH   2  12
TORSDOF 3
ENDMDL
MODEL 3
REMARK VINA RESULT:      -7.3      3.562      7.060
REMARK  Name = 
REMARK  3 active torsions:
REMARK  status: ('A' for Active; 'I' for Inactive)
REMARK    1  A    between atoms: C_5  and  N_6
REMARK    2  A    between atoms: C_7  and  C_9
REMARK    3  A    between atoms: C_12  and  C_13
REMARK                            x       y       z     vdW  Elec       q    Type
REMARK                         _______ _______ _______ _____ _____    ______ ____
ROOT
ATOM      1  N   UNL     1      17.162  11.523  37.501  0.00  0.00    +0.000 NA
ATOM      2  C   UNL     1      18.021  10.444  37.147  0.00  0.00    +0.000 C 
ATOM      3  O   UNL     1      17.413   9.399  36.772  0.00  0.00    +0.000 OA
ENDROOT
BRANCH   1   8
ATOM      4  C   UNL     1      11.494  11.468  37.261  0.00  0.00    +0.000 C 
ATOM      5  C   UNL     1      12.984  11.477  37.294  0.00  0.00    +0.000 A 
ATOM      6  C   UNL     1      13.617  10.985  38.407  0.00  0.00    +0.000 A 
ATOM      7  C   UNL     1      14.989  10.994  38.467  0.00  0.00    +0.000 A 
ATOM      8  C   UNL     1      15.770  11.473  37.465  0.00  0.00    +0.000 A 
ATOM      9  C   UNL     1      15.139  11.980  36.320  0.00  0.00    +0.000 A 
ATOM     10  O   UNL     1      15.912  12.486  35.263  0.00  0.00    +0.000 OA
ATOM     11  C   UNL     1      13.778  11.959  36.287  0.00  0.00    +0.000 A 
ENDBRANCH   1   8
BRANCH   2  12
ATOM     12  C   UNL     1      19.468  10.557  37.211  0.00  0.00    +0.000 A 
ATOM     13  C   UNL     1      20.047  11.500  38.011  0.00  0.00    +0.000 A 
ATOM     14  C   UNL     1      21.397  11.650  38.124  0.00  0.00    +0.000 A 
ATOM     15  C   UNL     1      22.238  10.801  37.398  0.00  0.00    +0.000 A 
ATOM     16  C   UNL     1      21.680   9.849  36.594  0.00  0.00    +0.000 A 
ATOM     17  C   UNL     1      20.311   9.737  36.504  0.00  0.00    +0.000 A 
BRANCH  15  18
ATOM     18  C   UNL     1      23.710  10.963  37.520  0.00  0.00    +0.000 C 
ATOM     19  C   UNL     1      24.212  10.036  38.605  0.00  0.00    +0.000 C 
ATOM     20  C   UNL     1      24.343  10.704  36.190  0.00  0.00    +0.000 C 
ATOM     21  C   UNL     1      24.006  12.385  37.971  0.00  0.00    +0.000 C 
ENDBRANCH  15  18
ENDBRANCH   2  12
TORSDOF 3
ENDMDL
MODEL 4
REMARK VINA RESULT:      -6.9      1.660      8.332
REMARK  Name = 
REMARK  3 active torsions:
REMARK  status: ('A' for Active; 'I' for Inactive)
REMARK    1  A    between atoms: C_5  and  N_6
REMARK    2  A    between atoms: C_7  and  C_9
REMARK    3  A    between atoms: C_12  and  C_13
REMARK                            x       y       z     vdW  Elec       q    Type
REMARK                         _______ _______ _______ _____ _____    ______ ____
ROOT
ATOM      1  N   UNL     1      16.287  10.288  36.396  0.00  0.00    +0.000 NA
ATOM      2  C   UNL     1      17.155  10.809  37.398  0.00  0.00    +0.000 C 
ATOM      3  O   UNL     1      17.916  11.736  36.993  0.00  0.00    +0.000 OA
ENDROOT
BRANCH   1   8
ATOM      4  C   UNL     1      15.975  12.073  31.021  0.00  0.00    +0.000 C 
ATOM      5  C   UNL     1      16.049  11.632  32.442  0.00  0.00    +0.000 A 
ATOM      6  C   UNL     1      16.988  10.694  32.789  0.00  0.00    +0.000 A 
ATOM      7  C   UNL     1      17.069  10.262  34.089  0.00  0.00    +0.000 A 
ATOM      8  C   UNL     1      16.253  10.721  35.073  0.00  0.00    +0.000 A 
ATOM      9  C   UNL     1      15.287  11.680  34.736  0.00  0.00    +0.000 A 
ATOM     10  O   UNL     1      14.424  12.178  35.725  0.00  0.00    +0.000 OA
ATOM     11  C   UNL     1      15.230  12.091  33.439  0.00  0.00    +0.000 A 
ENDBRANCH   1   8
BRANCH   2  12
ATOM     12  C   UNL     1      17.147  10.310  38.762  0.00  0.00    +0.000 A 
ATOM     13  C   UNL     1      15.963  10.079  39.400  0.00  0.00    +0.000 A 
ATOM     14  C   UNL     1      15.886   9.602  40.675  0.00  0.00    +0.000 A 
ATOM     15  C   UNL     1      17.068   9.326  41.369  0.00  0.00    +0.000 A 
ATOM     16  C   UNL     1      18.264   9.548  40.749  0.00  0.00    +0.000 A 
ATOM     17  C   UNL     1      18.295  10.037  39.462  0.00  0.00    +0.000 A 
BRANCH  15  18
ATOM     18  C   UNL     1      16.987   8.806  42.759  0.00  0.00    +0.000 C 
ATOM     19  C   UNL     1      15.945   7.710  42.806  0.00  0.00    +0.000 C 
ATOM     20  C   UNL     1      18.342   8.343  43.188  0.00  0.00    +0.000 C 
ATOM     21  C   UNL     1      16.504   9.925  43.668  0.00  0.00    +0.000 C 
ENDBRANCH  15  18
ENDBRANCH   2  12
TORSDOF 3
ENDMDL
MODEL 5
REMARK VINA RESULT:      -6.5     22.150     23.865
REMARK  Name = 
REMARK  3 active torsions:
REMARK  status: ('A' for Active; 'I' for Inactive)
REMARK    1  A    between atoms: C_5  and  N_6
REMARK    2  A    between atoms: C_7  and  C_9
REMARK    3  A    between atoms: C_12  and  C_13
REMARK                            x       y       z     vdW  Elec       q    Type
REMARK                         _______ _______ _______ _____ _____    ______ ____
ROOT
ATOM      1  N   UNL     1      22.495  -7.476  25.125  0.00  0.00    +0.000 NA
ATOM      2  C   UNL     1      22.797  -7.911  23.803  0.00  0.00    +0.000 C 
ATOM      3  O   UNL     1      21.778  -8.136  23.087  0.00  0.00    +0.000 OA
ENDROOT
BRANCH   1   8
ATOM      4  C   UNL     1      17.220  -6.971  27.150  0.00  0.00    +0.000 C 
ATOM      5  C   UNL     1      18.612  -7.123  26.641  0.00  0.00    +0.000 A 
ATOM      6  C   UNL     1      19.216  -6.041  26.052  0.00  0.00    +0.000 A 
ATOM      7  C   UNL     1      20.494  -6.159  25.564  0.00  0.00    +0.000 A 
ATOM      8  C   UNL     1      21.208  -7.311  25.632  0.00  0.00    +0.000 A 
ATOM      9  C   UNL     1      20.606  -8.427  26.230  0.00  0.00    +0.000 A 
ATOM     10  O   UNL     1      21.312  -9.638  26.318  0.00  0.00    +0.000 OA
ATOM     11  C   UNL     1      19.338  -8.282  26.706  0.00  0.00    +0.000 A 
ENDBRANCH   1   8
BRANCH   2  12
ATOM     12  C   UNL     1      24.163  -8.070  23.335  0.00  0.00    +0.000 A 
ATOM     13  C   UNL     1      25.039  -7.026  23.413  0.00  0.00    +0.000 A 
ATOM     14  C   UNL     1      26.336  -7.113  23.002  0.00  0.00    +0.000 A 
ATOM     15  C   UNL     1      26.804  -8.323  22.480  0.00  0.00    +0.000 A 
ATOM     16  C   UNL     1      25.944  -9.380  22.396  0.00  0.00    +0.000 A 
ATOM     17  C   UNL     1      24.641  -9.247  22.817  0.00  0.00    +0.000 A 
BRANCH  15  18
ATOM     18  C   UNL     1      28.217  -8.420  22.031  0.00  0.00    +0.000 C 
ATOM     19  C   UNL     1      28.749  -7.022  21.802  0.00  0.00    +0.000 C 
ATOM     20  C   UNL     1      29.003  -9.185  23.046  0.00  0.00    +0.000 C 
ATOM     21  C   UNL     1      28.251  -9.139  20.692  0.00  0.00    +0.000 C 
ENDBRANCH  15  18
ENDBRANCH   2  12
TORSDOF 3
ENDMDL
MODEL 6
REMARK VINA RESULT:      -6.4     20.699     22.259
REMARK  Name = 
REMARK  3 active torsions:
REMARK  status: ('A' for Active; 'I' for Inactive)
REMARK    1  A    between atoms: C_5  and  N_6
REMARK    2  A    between atoms: C_7  and  C_9
REMARK    3  A    between atoms: C_12  and  C_13
REMARK                            x       y       z     vdW  Elec       q    Type
REMARK                         _______ _______ _______ _____ _____    ______ ____
ROOT
ATOM      1  N   UNL     1      21.774   2.697  16.476  0.00  0.00    +0.000 NA
ATOM      2  C   UNL     1      22.906   2.306  17.246  0.00  0.00    +0.000 C 
ATOM      3  O   UNL     1      22.819   1.146  17.743  0.00  0.00    +0.000 OA
ENDROOT
BRANCH   1   8
ATOM      4  C   UNL     1      17.146  -0.515  15.815  0.00  0.00    +0.000 C 
ATOM      5  C   UNL     1      18.344   0.351  15.999  0.00  0.00    +0.000 A 
ATOM      6  C   UNL     1      19.380   0.234  15.108  0.00  0.00    +0.000 A 
ATOM      7  C   UNL     1      20.501   1.012  15.263  0.00  0.00    +0.000 A 
ATOM      8  C   UNL     1      20.643   1.910  16.271  0.00  0.00    +0.000 A 
ATOM      9  C   UNL     1      19.594   2.042  17.191  0.00  0.00    +0.000 A 
ATOM     10  O   UNL     1      19.704   2.959  18.249  0.00  0.00    +0.000 OA
ATOM     11  C   UNL     1      18.495   1.259  17.014  0.00  0.00    +0.000 A 
ENDBRANCH   1   8
BRANCH   2  12
ATOM     12  C   UNL     1      24.055   3.178  17.428  0.00  0.00    +0.000 A 
ATOM     13  C   UNL     1      24.587   3.840  16.360  0.00  0.00    +0.000 A 
ATOM     14  C   UNL     1      25.656   4.679  16.465  0.00  0.00    +0.000 A 
ATOM     15  C   UNL     1      26.239   4.884  17.719  0.00  0.00    +0.000 A 
ATOM     16  C   UNL     1      25.720   4.233  18.801  0.00  0.00    +0.000 A 
ATOM     17  C   UNL     1      24.643   3.389  18.649  0.00  0.00    +0.000 A 
BRANCH  15  18
ATOM     18  C   UNL     1      27.405   5.798  17.836  0.00  0.00    +0.000 C 
ATOM     19  C   UNL     1      27.081   7.091  17.120  0.00  0.00    +0.000 C 
ATOM     20  C   UNL     1      27.730   5.996  19.282  0.00  0.00    +0.000 C 
ATOM     21  C   UNL     1      28.588   5.169  17.115  0.00  0.00    +0.000 C 
ENDBRANCH  15  18
ENDBRANCH   2  12
TORSDOF 3
ENDMDL
MODEL 7
REMARK VINA RESULT:      -6.4     19.091     20.971
REMARK  Name = 
REMARK  3 active torsions:
REMARK  status: ('A' for Active; 'I' for Inactive)
REMARK    1  A    between atoms: C_5  and  N_6
REMARK    2  A    between atoms: C_7  and  C_9
REMARK    3  A    between atoms: C_12  and  C_13
REMARK                            x       y       z     vdW  Elec       q    Type
REMARK                         _______ _______ _______ _____ _____    ______ ____
ROOT
ATOM      1  N   UNL     1      33.072  -1.612  33.978  0.00  0.00    +0.000 NA
ATOM      2  C   UNL     1      34.067  -0.790  34.578  0.00  0.00    +0.000 C 
ATOM      3  O   UNL     1      35.063  -1.428  35.030  0.00  0.00    +0.000 OA
ENDROOT
BRANCH   1   8
ATOM      4  C   UNL     1      33.371  -7.273  33.776  0.00  0.00    +0.000 C 
ATOM      5  C   UNL     1      33.267  -5.788  33.845  0.00  0.00    +0.000 A 
ATOM      6  C   UNL     1      33.696  -5.050  32.771  0.00  0.00    +0.000 A 
ATOM      7  C   UNL     1      33.623  -3.680  32.816  0.00  0.00    +0.000 A 
ATOM      8  C   UNL     1      33.138  -3.000  33.886  0.00  0.00    +0.000 A 
ATOM      9  C   UNL     1      32.695  -3.739  34.993  0.00  0.00    +0.000 A 
ATOM     10  O   UNL     1      32.189  -3.071  36.120  0.00  0.00    +0.000 OA
ATOM     11  C   UNL     1      32.780  -5.096  34.922  0.00  0.00    +0.000 A 
ENDBRANCH   1   8
BRANCH   2  12
ATOM     12  C   UNL     1      33.936   0.656  34.649  0.00  0.00    +0.000 A 
ATOM     13  C   UNL     1      34.068   1.297  35.846  0.00  0.00    +0.000 A 
ATOM     14  C   UNL     1      33.968   2.650  35.978  0.00  0.00    +0.000 A 
ATOM     15  C   UNL     1      33.724   3.428  34.842  0.00  0.00    +0.000 A 
ATOM     16  C   UNL     1      33.591   2.806  33.634  0.00  0.00    +0.000 A 
ATOM     17  C   UNL     1      33.694   1.436  33.547  0.00  0.00    +0.000 A 
BRANCH  15  18
ATOM     18  C   UNL     1      33.613   4.903  34.984  0.00  0.00    +0.000 C 
ATOM     19  C   UNL     1      34.970   5.518  34.720  0.00  0.00    +0.000 C 
ATOM     20  C   UNL     1      32.553   5.406  34.057  0.00  0.00    +0.000 C 
ATOM     21  C   UNL     1      33.245   5.225  36.424  0.00  0.00    +0.000 C 
ENDBRANCH  15  18
ENDBRANCH   2  12
TORSDOF 3
ENDMDL
MODEL 8
REMARK VINA RESULT:      -6.3     20.726     22.372
REMARK  Name = 
REMARK  3 active torsions:
REMARK  status: ('A' for Active; 'I' for Inactive)
REMARK    1  A    between atoms: C_5  and  N_6
REMARK    2  A    between atoms: C_7  and  C_9
REMARK    3  A    between atoms: C_12  and  C_13
REMARK                            x       y       z     vdW  Elec       q    Type
REMARK                         _______ _______ _______ _____ _____    ______ ____
ROOT
ATOM      1  N   UNL     1      22.088   2.887  16.474  0.00  0.00    +0.000 NA
ATOM      2  C   UNL     1      23.025   2.827  17.543  0.00  0.00    +0.000 C 
ATOM      3  O   UNL     1      22.730   1.991  18.446  0.00  0.00    +0.000 OA
ENDROOT
BRANCH   1   8
ATOM      4  C   UNL     1      17.394  -0.259  15.970  0.00  0.00    +0.000 C 
ATOM      5  C   UNL     1      18.644   0.542  16.097  0.00  0.00    +0.000 A 
ATOM      6  C   UNL     1      18.674   1.569  17.007  0.00  0.00    +0.000 A 
ATOM      7  C   UNL     1      19.809   2.330  17.133  0.00  0.00    +0.000 A 
ATOM      8  C   UNL     1      20.928   2.120  16.392  0.00  0.00    +0.000 A 
ATOM      9  C   UNL     1      20.913   1.075  15.457  0.00  0.00    +0.000 A 
ATOM     10  O   UNL     1      22.050   0.827  14.670  0.00  0.00    +0.000 OA
ATOM     11  C   UNL     1      19.775   0.336  15.352  0.00  0.00    +0.000 A 
ENDBRANCH   1   8
BRANCH   2  12
ATOM     12  C   UNL     1      24.216   3.660  17.573  0.00  0.00    +0.000 A 
ATOM     13  C   UNL     1      24.627   4.308  16.445  0.00  0.00    +0.000 A 
ATOM     14  C   UNL     1      25.728   5.111  16.409  0.00  0.00    +0.000 A 
ATOM     15  C   UNL     1      26.475   5.292  17.577  0.00  0.00    +0.000 A 
ATOM     16  C   UNL     1      26.080   4.654  18.718  0.00  0.00    +0.000 A 
ATOM     17  C   UNL     1      24.965   3.847  18.707  0.00  0.00    +0.000 A 
BRANCH  15  18
ATOM     18  C   UNL     1      27.676   6.167  17.540  0.00  0.00    +0.000 C 
ATOM     19  C   UNL     1      27.607   7.032  16.301  0.00  0.00    +0.000 C 
ATOM     20  C   UNL     1      27.742   6.961  18.805  0.00  0.00    +0.000 C 
ATOM     21  C   UNL     1      28.911   5.290  17.408  0.00  0.00    +0.000 C 
ENDBRANCH  15  18
ENDBRANCH   2  12
TORSDOF 3
ENDMDL
MODEL 9
REMARK VINA RESULT:      -6.3      3.930      8.072
REMARK  Name = 
REMARK  3 active torsions:
REMARK  status: ('A' for Active; 'I' for Inactive)
REMARK    1  A    between atoms: C_5  and  N_6
REMARK    2  A    between atoms: C_7  and  C_9
REMARK    3  A    between atoms: C_12  and  C_13
REMARK                            x       y       z     vdW  Elec       q    Type
REMARK                         _______ _______ _______ _____ _____    ______ ____
ROOT
ATOM      1  N   UNL     1      18.990  11.295  37.690  0.00  0.00    +0.000 NA
ATOM      2  C   UNL     1      19.760  10.270  37.070  0.00  0.00    +0.000 C 
ATOM      3  O   UNL     1      19.121   9.586  36.218  0.00  0.00    +0.000 OA
ENDROOT
BRANCH   1   8
ATOM      4  C   UNL     1      13.486  12.168  36.634  0.00  0.00    +0.000 C 
ATOM      5  C   UNL     1      14.925  11.933  36.941  0.00  0.00    +0.000 A 
ATOM      6  C   UNL     1      15.867  12.665  36.263  0.00  0.00    +0.000 A 
ATOM      7  C   UNL     1      17.200  12.458  36.518  0.00  0.00    +0.000 A 
ATOM      8  C   UNL     1      17.647  11.551  37.423  0.00  0.00    +0.000 A 
ATOM      9  C   UNL     1      16.698  10.794  38.125  0.00  0.00    +0.000 A 
ATOM     10  O   UNL     1      17.122   9.843  39.068  0.00  0.00    +0.000 OA
ATOM     11  C   UNL     1      15.383  11.019  37.852  0.00  0.00    +0.000 A 
ENDBRANCH   1   8
BRANCH   2  12
ATOM     12  C   UNL     1      21.158  10.049  37.397  0.00  0.00    +0.000 A 
ATOM     13  C   UNL     1      21.579  10.125  38.693  0.00  0.00    +0.000 A 
ATOM     14  C   UNL     1      22.873   9.918  39.067  0.00  0.00    +0.000 A 
ATOM     15  C   UNL     1      23.822   9.607  38.089  0.00  0.00    +0.000 A 
ATOM     16  C   UNL     1      23.422   9.524  36.786  0.00  0.00    +0.000 A 
ATOM     17  C   UNL     1      22.105   9.747  36.452  0.00  0.00    +0.000 A 
BRANCH  15  18
ATOM     18  C   UNL     1      25.233   9.382  38.494  0.00  0.00    +0.000 C 
ATOM     19  C   UNL     1      25.404   7.925  38.865  0.00  0.00    +0.000 C 
ATOM     20  C   UNL     1      26.137   9.812  37.383  0.00  0.00    +0.000 C 
ATOM     21  C   UNL     1      25.516  10.200  39.744  0.00  0.00    +0.000 C 
ENDBRANCH  15  18
ENDBRANCH   2  12
TORSDOF 3
ENDMDL
MODEL 10
REMARK VINA RESULT:      -6.3     19.051     21.060
REMARK  Name = 
REMARK  3 active torsions:
REMARK  status: ('A' for Active; 'I' for Inactive)
REMARK    1  A    between atoms: C_5  and  N_6
REMARK    2  A    between atoms: C_7  and  C_9
REMARK    3  A    between atoms: C_12  and  C_13
REMARK                            x       y       z     vdW  Elec       q    Type
REMARK                         _______ _______ _______ _____ _____    ______ ____
ROOT
ATOM      1  N   UNL     1      34.265  -1.189  34.516  0.00  0.00    +0.000 NA
ATOM      2  C   UNL     1      33.255  -0.227  34.803  0.00  0.00    +0.000 C 
ATOM      3  O   UNL     1      32.089  -0.710  34.888  0.00  0.00    +0.000 OA
ENDROOT
BRANCH   1   8
ATOM      4  C   UNL     1      33.453  -6.763  33.848  0.00  0.00    +0.000 C 
ATOM      5  C   UNL     1      33.656  -5.302  34.053  0.00  0.00    +0.000 A 
ATOM      6  C   UNL     1      33.422  -4.454  33.000  0.00  0.00    +0.000 A 
ATOM      7  C   UNL     1      33.615  -3.104  33.159  0.00  0.00    +0.000 A 
ATOM      8  C   UNL     1      34.034  -2.549  34.325  0.00  0.00    +0.000 A 
ATOM      9  C   UNL     1      34.278  -3.401  35.411  0.00  0.00    +0.000 A 
ATOM     10  O   UNL     1      34.715  -2.866  36.634  0.00  0.00    +0.000 OA
ATOM     11  C   UNL     1      34.079  -4.735  35.226  0.00  0.00    +0.000 A 
ENDBRANCH   1   8
BRANCH   2  12
ATOM     12  C   UNL     1      33.561   1.182  34.987  0.00  0.00    +0.000 A 
ATOM     13  C   UNL     1      33.917   1.650  36.218  0.00  0.00    +0.000 A 
ATOM     14  C   UNL     1      34.226   2.957  36.455  0.00  0.00    +0.000 A 
ATOM     15  C   UNL     1      34.185   3.867  35.395  0.00  0.00    +0.000 A 
ATOM     16  C   UNL     1      33.833   3.419  34.154  0.00  0.00    +0.000 A 
ATOM     17  C   UNL     1      33.522   2.092  33.961  0.00  0.00    +0.000 A 
BRANCH  15  18
ATOM     18  C   UNL     1      34.520   5.292  35.650  0.00  0.00    +0.000 C 
ATOM     19  C   UNL     1      33.523   6.164  34.918  0.00  0.00    +0.000 C 
ATOM     20  C   UNL     1      34.537   5.535  37.125  0.00  0.00    +0.000 C 
ATOM     21  C   UNL     1      35.891   5.581  35.058  0.00  0.00    +0.000 C 
ENDBRANCH  15  18
ENDBRANCH   2  12
TORSDOF 3
ENDMDL
