MODEL 1
REMARK VINA RESULT:      -6.5      0.000      0.000
REMARK  Name = 
REMARK  2 active torsions:
REMARK  status: ('A' for Active; 'I' for Inactive)
REMARK    1  A    between atoms: C_8  and  C_9
REMARK    2  A    between atoms: N_11  and  C_12
REMARK                            x       y       z     vdW  Elec       q    Type
REMARK                         _______ _______ _______ _____ _____    ______ ____
ROOT
ATOM      1  C   UNL     1      14.727  -9.729  26.070  0.00  0.00    +0.000 C 
ATOM      2  C   UNL     1      16.140  -9.171  26.190  0.00  0.00    +0.000 C 
ATOM      3  C   UNL     1      16.856  -9.822  27.381  0.00  0.00    +0.000 C 
ATOM      4  C   UNL     1      16.948  -9.515  24.964  0.00  0.00    +0.000 C 
ATOM      5  C   UNL     1      18.324  -9.060  25.170  0.00  0.00    +0.000 C 
ATOM      6  O   UNL     1      19.280  -9.828  24.866  0.00  0.00    +0.000 OA
ATOM      7  C   UNL     1      18.559  -7.725  25.723  0.00  0.00    +0.000 A 
ATOM      8  C   UNL     1      19.681  -6.892  25.759  0.00  0.00    +0.000 A 
ATOM      9  C   UNL     1      19.225  -5.749  26.369  0.00  0.00    +0.000 A 
ATOM     10  N   UNL     1      17.929  -5.888  26.675  0.00  0.00    +0.000 NA
ATOM     11  C   UNL     1      17.471  -7.115  26.285  0.00  0.00    +0.000 A 
ATOM     12  C   UNL     1      16.123  -7.695  26.398  0.00  0.00    +0.000 C 
ENDROOT
BRANCH   8  13
ATOM     13  C   UNL     1      21.008  -7.232  25.289  0.00  0.00    +0.000 C 
ATOM     14  O   UNL     1      21.717  -8.101  25.945  0.00  0.00    +0.000 OA
ATOM     15  N   UNL     1      21.634  -6.685  24.126  0.00  0.00    +0.000 NA
BRANCH  15  16
ATOM     16  C   UNL     1      22.947  -7.081  23.746  0.00  0.00    +0.000 A 
ATOM     17  C   UNL     1      23.131  -8.204  22.986  0.00  0.00    +0.000 A 
ATOM     18  C   UNL     1      24.443  -8.543  22.607  0.00  0.00    +0.000 A 
ATOM     19  C   UNL     1      25.518  -7.793  22.972  0.00  0.00    +0.000 A 
ATOM     20  C   UNL     1      25.294  -6.648  23.754  0.00  0.00    +0.000 A 
ATOM     21  C   UNL     1      24.010  -6.310  24.129  0.00  0.00    +0.000 A 
ENDBRANCH  15  16
ENDBRANCH   8  13
TORSDOF 2
ENDMDL
MODEL 2
REMARK VINA RESULT:      -6.2     31.687     32.738
REMARK  Name = 
REMARK  2 active torsions:
REMARK  status: ('A' for Active; 'I' for Inactive)
REMARK    1  A    between atoms: C_8  and  C_9
REMARK    2  A    between atoms: N_11  and  C_12
REMARK                            x       y       z     vdW  Elec       q    Type
REMARK                         _______ _______ _______ _____ _____    ______ ____
ROOT
ATOM      1  C   UNL     1      34.225  21.396  31.287  0.00  0.00    +0.000 C 
ATOM      2  C   UNL     1      32.996  22.063  30.683  0.00  0.00    +0.000 C 
ATOM      3  C   UNL     1      33.267  23.560  30.477  0.00  0.00    +0.000 C 
ATOM      4  C   UNL     1      32.701  21.490  29.320  0.00  0.00    +0.000 C 
ATOM      5  C   UNL     1      31.586  22.234  28.733  0.00  0.00    +0.000 C 
ATOM      6  O   UNL     1      31.659  22.604  27.527  0.00  0.00    +0.000 OA
ATOM      7  C   UNL     1      30.413  22.531  29.556  0.00  0.00    +0.000 A 
ATOM      8  C   UNL     1      29.109  22.928  29.249  0.00  0.00    +0.000 A 
ATOM      9  C   UNL     1      28.482  22.980  30.470  0.00  0.00    +0.000 A 
ATOM     10  N   UNL     1      29.347  22.641  31.435  0.00  0.00    +0.000 NA
ATOM     11  C   UNL     1      30.572  22.350  30.903  0.00  0.00    +0.000 A 
ATOM     12  C   UNL     1      31.809  21.916  31.573  0.00  0.00    +0.000 C 
ENDROOT
BRANCH   8  13
ATOM     13  C   UNL     1      28.604  23.246  27.929  0.00  0.00    +0.000 C 
ATOM     14  O   UNL     1      28.449  24.490  27.585  0.00  0.00    +0.000 OA
ATOM     15  N   UNL     1      28.253  22.287  26.929  0.00  0.00    +0.000 NA
BRANCH  15  16
ATOM     16  C   UNL     1      27.762  22.699  25.659  0.00  0.00    +0.000 A 
ATOM     17  C   UNL     1      26.418  22.868  25.467  0.00  0.00    +0.000 A 
ATOM     18  C   UNL     1      25.977  23.307  24.204  0.00  0.00    +0.000 A 
ATOM     19  C   UNL     1      26.841  23.561  23.185  0.00  0.00    +0.000 A 
ATOM     20  C   UNL     1      28.214  23.375  23.415  0.00  0.00    +0.000 A 
ATOM     21  C   UNL     1      28.653  22.946  24.651  0.00  0.00    +0.000 A 
ENDBRANCH  15  16
ENDBRANCH   8  13
TORSDOF 2
ENDMDL
MODEL 3
REMARK VINA RESULT:      -5.9     31.723     34.063
REMARK  Name = 
REMARK  2 active torsions:
REMARK  status: ('A' for Active; 'I' for Inactive)
REMARK    1  A    between atoms: C_8  and  C_9
REMARK    2  A    between atoms: N_11  and  C_12
REMARK                            x       y       z     vdW  Elec       q    Type
REMARK                         _______ _______ _______ _____ _____    ______ ____
ROOT
ATOM      1  C   UNL     1      28.028  28.150  20.552  0.00  0.00    +0.000 C 
ATOM      2  C   UNL     1      28.249  27.204  21.725  0.00  0.00    +0.000 C 
ATOM      3  C   UNL     1      29.079  27.905  22.810  0.00  0.00    +0.000 C 
ATOM      4  C   UNL     1      26.933  26.837  22.363  0.00  0.00    +0.000 C 
ATOM      5  C   UNL     1      27.200  26.020  23.548  0.00  0.00    +0.000 C 
ATOM      6  O   UNL     1      26.580  26.269  24.621  0.00  0.00    +0.000 OA
ATOM      7  C   UNL     1      28.180  24.936  23.462  0.00  0.00    +0.000 A 
ATOM      8  C   UNL     1      28.441  23.822  24.265  0.00  0.00    +0.000 A 
ATOM      9  C   UNL     1      29.449  23.165  23.601  0.00  0.00    +0.000 A 
ATOM     10  N   UNL     1      29.767  23.837  22.487  0.00  0.00    +0.000 NA
ATOM     11  C   UNL     1      28.992  24.955  22.362  0.00  0.00    +0.000 A 
ATOM     12  C   UNL     1      28.975  25.973  21.298  0.00  0.00    +0.000 C 
ENDROOT
BRANCH   8  13
ATOM     13  C   UNL     1      27.797  23.510  25.524  0.00  0.00    +0.000 C 
ATOM     14  O   UNL     1      26.690  22.828  25.525  0.00  0.00    +0.000 OA
ATOM     15  N   UNL     1      28.283  23.889  26.813  0.00  0.00    +0.000 NA
BRANCH  15  16
ATOM     16  C   UNL     1      27.575  23.536  27.996  0.00  0.00    +0.000 A 
ATOM     17  C   UNL     1      27.848  22.355  28.631  0.00  0.00    +0.000 A 
ATOM     18  C   UNL     1      27.147  22.059  29.814  0.00  0.00    +0.000 A 
ATOM     19  C   UNL     1      26.217  22.905  30.335  0.00  0.00    +0.000 A 
ATOM     20  C   UNL     1      25.960  24.107  29.657  0.00  0.00    +0.000 A 
ATOM     21  C   UNL     1      26.644  24.404  28.497  0.00  0.00    +0.000 A 
ENDBRANCH  15  16
ENDBRANCH   8  13
TORSDOF 2
ENDMDL
MODEL 4
REMARK VINA RESULT:      -5.6     32.990     34.919
REMARK  Name = 
REMARK  2 active torsions:
REMARK  status: ('A' for Active; 'I' for Inactive)
REMARK    1  A    between atoms: C_8  and  C_9
REMARK    2  A    between atoms: N_11  and  C_12
REMARK                            x       y       z     vdW  Elec       q    Type
REMARK                         _______ _______ _______ _____ _____    ______ ____
ROOT
ATOM      1  C   UNL     1      25.367  24.579  27.605  0.00  0.00    +0.000 C 
ATOM      2  C   UNL     1      25.795  24.868  26.172  0.00  0.00    +0.000 C 
ATOM      3  C   UNL     1      24.955  26.018  25.600  0.00  0.00    +0.000 C 
ATOM      4  C   UNL     1      27.231  25.327  26.133  0.00  0.00    +0.000 C 
ATOM      5  C   UNL     1      27.565  25.699  24.757  0.00  0.00    +0.000 C 
ATOM      6  O   UNL     1      28.198  26.772  24.545  0.00  0.00    +0.000 OA
ATOM      7  C   UNL     1      27.158  24.819  23.661  0.00  0.00    +0.000 A 
ATOM      8  C   UNL     1      27.557  24.712  22.326  0.00  0.00    +0.000 A 
ATOM      9  C   UNL     1      26.834  23.646  21.849  0.00  0.00    +0.000 A 
ATOM     10  N   UNL     1      26.059  23.154  22.824  0.00  0.00    +0.000 NA
ATOM     11  C   UNL     1      26.234  23.862  23.980  0.00  0.00    +0.000 A 
ATOM     12  C   UNL     1      25.613  23.671  25.302  0.00  0.00    +0.000 C 
ENDROOT
BRANCH   8  13
ATOM     13  C   UNL     1      28.489  25.586  21.644  0.00  0.00    +0.000 C 
ATOM     14  O   UNL     1      29.765  25.356  21.734  0.00  0.00    +0.000 OA
ATOM     15  N   UNL     1      28.125  26.715  20.847  0.00  0.00    +0.000 NA
BRANCH  15  16
ATOM     16  C   UNL     1      29.118  27.517  20.217  0.00  0.00    +0.000 A 
ATOM     17  C   UNL     1      29.810  27.030  19.142  0.00  0.00    +0.000 A 
ATOM     18  C   UNL     1      30.761  27.868  18.529  0.00  0.00    +0.000 A 
ATOM     19  C   UNL     1      31.006  29.130  18.973  0.00  0.00    +0.000 A 
ATOM     20  C   UNL     1      30.279  29.598  20.080  0.00  0.00    +0.000 A 
ATOM     21  C   UNL     1      29.345  28.783  20.685  0.00  0.00    +0.000 A 
ENDBRANCH  15  16
ENDBRANCH   8  13
TORSDOF 2
ENDMDL
MODEL 5
REMARK VINA RESULT:      -5.5     13.432     15.306
REMARK  Name = 
REMARK  2 active torsions:
REMARK  status: ('A' for Active; 'I' for Inactive)
REMARK    1  A    between atoms: C_8  and  C_9
REMARK    2  A    between atoms: N_11  and  C_12
REMARK                            x       y       z     vdW  Elec       q    Type
REMARK                         _______ _______ _______ _____ _____    ______ ____
ROOT
ATOM      1  C   UNL     1      19.469   1.729  13.132  0.00  0.00    +0.000 C 
ATOM      2  C   UNL     1      20.684   1.855  14.042  0.00  0.00    +0.000 C 
ATOM      3  C   UNL     1      21.809   0.942  13.536  0.00  0.00    +0.000 C 
ATOM      4  C   UNL     1      21.226   3.262  14.007  0.00  0.00    +0.000 C 
ATOM      5  C   UNL     1      22.453   3.310  14.804  0.00  0.00    +0.000 C 
ATOM      6  O   UNL     1      23.464   3.910  14.343  0.00  0.00    +0.000 OA
ATOM      7  C   UNL     1      22.478   2.660  16.115  0.00  0.00    +0.000 A 
ATOM      8  C   UNL     1      23.332   2.768  17.216  0.00  0.00    +0.000 A 
ATOM      9  C   UNL     1      22.771   1.935  18.153  0.00  0.00    +0.000 A 
ATOM     10  N   UNL     1      21.666   1.370  17.650  0.00  0.00    +0.000 NA
ATOM     11  C   UNL     1      21.446   1.799  16.372  0.00  0.00    +0.000 A 
ATOM     12  C   UNL     1      20.353   1.465  15.443  0.00  0.00    +0.000 C 
ENDROOT
BRANCH   8  13
ATOM     13  C   UNL     1      24.545   3.558  17.278  0.00  0.00    +0.000 C 
ATOM     14  O   UNL     1      25.678   3.018  16.943  0.00  0.00    +0.000 OA
ATOM     15  N   UNL     1      24.615   4.927  17.683  0.00  0.00    +0.000 NA
BRANCH  15  16
ATOM     16  C   UNL     1      25.858   5.618  17.714  0.00  0.00    +0.000 A 
ATOM     17  C   UNL     1      26.682   5.498  18.800  0.00  0.00    +0.000 A 
ATOM     18  C   UNL     1      27.916   6.175  18.777  0.00  0.00    +0.000 A 
ATOM     19  C   UNL     1      28.304   6.934  17.717  0.00  0.00    +0.000 A 
ATOM     20  C   UNL     1      27.435   7.037  16.619  0.00  0.00    +0.000 A 
ATOM     21  C   UNL     1      26.223   6.377  16.635  0.00  0.00    +0.000 A 
ENDBRANCH  15  16
ENDBRANCH   8  13
TORSDOF 2
ENDMDL
MODEL 6
REMARK VINA RESULT:      -5.5     31.991     33.815
REMARK  Name = 
REMARK  2 active torsions:
REMARK  status: ('A' for Active; 'I' for Inactive)
REMARK    1  A    between atoms: C_8  and  C_9
REMARK    2  A    between atoms: N_11  and  C_12
REMARK                            x       y       z     vdW  Elec       q    Type
REMARK                         _______ _______ _______ _____ _____    ______ ____
ROOT
ATOM      1  C   UNL     1      24.478  27.996  32.004  0.00  0.00    +0.000 C 
ATOM      2  C   UNL     1      24.673  26.952  30.913  0.00  0.00    +0.000 C 
ATOM      3  C   UNL     1      23.320  26.606  30.277  0.00  0.00    +0.000 C 
ATOM      4  C   UNL     1      25.537  27.502  29.806  0.00  0.00    +0.000 C 
ATOM      5  C   UNL     1      25.606  26.510  28.731  0.00  0.00    +0.000 C 
ATOM      6  O   UNL     1      25.463  26.887  27.534  0.00  0.00    +0.000 OA
ATOM      7  C   UNL     1      25.838  25.105  29.070  0.00  0.00    +0.000 A 
ATOM      8  C   UNL     1      26.248  23.999  28.320  0.00  0.00    +0.000 A 
ATOM      9  C   UNL     1      26.329  22.985  29.244  0.00  0.00    +0.000 A 
ATOM     10  N   UNL     1      25.991  23.450  30.453  0.00  0.00    +0.000 NA
ATOM     11  C   UNL     1      25.677  24.778  30.388  0.00  0.00    +0.000 A 
ATOM     12  C   UNL     1      25.272  25.702  31.461  0.00  0.00    +0.000 C 
ENDROOT
BRANCH   8  13
ATOM     13  C   UNL     1      26.473  23.977  26.890  0.00  0.00    +0.000 C 
ATOM     14  O   UNL     1      25.572  23.460  26.108  0.00  0.00    +0.000 OA
ATOM     15  N   UNL     1      27.632  24.492  26.231  0.00  0.00    +0.000 NA
BRANCH  15  16
ATOM     16  C   UNL     1      27.762  24.421  24.816  0.00  0.00    +0.000 A 
ATOM     17  C   UNL     1      27.235  25.409  24.029  0.00  0.00    +0.000 A 
ATOM     18  C   UNL     1      27.413  25.315  22.636  0.00  0.00    +0.000 A 
ATOM     19  C   UNL     1      28.086  24.282  22.061  0.00  0.00    +0.000 A 
ATOM     20  C   UNL     1      28.612  23.284  22.897  0.00  0.00    +0.000 A 
ATOM     21  C   UNL     1      28.442  23.370  24.263  0.00  0.00    +0.000 A 
ENDBRANCH  15  16
ENDBRANCH   8  13
TORSDOF 2
ENDMDL
MODEL 7
REMARK VINA RESULT:      -5.5     18.288     20.927
REMARK  Name = 
REMARK  2 active torsions:
REMARK  status: ('A' for Active; 'I' for Inactive)
REMARK    1  A    between atoms: C_8  and  C_9
REMARK    2  A    between atoms: N_11  and  C_12
REMARK                            x       y       z     vdW  Elec       q    Type
REMARK                         _______ _______ _______ _____ _____    ______ ____
ROOT
ATOM      1  C   UNL     1      32.475  -2.853  34.354  0.00  0.00    +0.000 C 
ATOM      2  C   UNL     1      33.162  -1.697  35.071  0.00  0.00    +0.000 C 
ATOM      3  C   UNL     1      34.685  -1.842  34.951  0.00  0.00    +0.000 C 
ATOM      4  C   UNL     1      32.804  -0.385  34.419  0.00  0.00    +0.000 C 
ATOM      5  C   UNL     1      33.569   0.681  35.066  0.00  0.00    +0.000 C 
ATOM      6  O   UNL     1      34.136   1.555  34.350  0.00  0.00    +0.000 OA
ATOM      7  C   UNL     1      33.660   0.710  36.527  0.00  0.00    +0.000 A 
ATOM      8  C   UNL     1      34.026   1.703  37.439  0.00  0.00    +0.000 A 
ATOM      9  C   UNL     1      33.840   1.111  38.665  0.00  0.00    +0.000 A 
ATOM     10  N   UNL     1      33.398  -0.141  38.497  0.00  0.00    +0.000 NA
ATOM     11  C   UNL     1      33.269  -0.433  37.169  0.00  0.00    +0.000 A 
ATOM     12  C   UNL     1      32.803  -1.669  36.518  0.00  0.00    +0.000 C 
ENDROOT
BRANCH   8  13
ATOM     13  C   UNL     1      34.527   3.021  37.108  0.00  0.00    +0.000 C 
ATOM     14  O   UNL     1      35.747   3.340  37.422  0.00  0.00    +0.000 OA
ATOM     15  N   UNL     1      33.782   4.040  36.437  0.00  0.00    +0.000 NA
BRANCH  15  16
ATOM     16  C   UNL     1      34.363   5.309  36.158  0.00  0.00    +0.000 A 
ATOM     17  C   UNL     1      34.026   6.398  36.914  0.00  0.00    +0.000 A 
ATOM     18  C   UNL     1      34.647   7.627  36.623  0.00  0.00    +0.000 A 
ATOM     19  C   UNL     1      35.560   7.757  35.623  0.00  0.00    +0.000 A 
ATOM     20  C   UNL     1      35.881   6.620  34.865  0.00  0.00    +0.000 A 
ATOM     21  C   UNL     1      35.276   5.412  35.145  0.00  0.00    +0.000 A 
ENDBRANCH  15  16
ENDBRANCH   8  13
TORSDOF 2
ENDMDL
MODEL 8
REMARK VINA RESULT:      -5.5     19.378     21.845
REMARK  Name = 
REMARK  2 active torsions:
REMARK  status: ('A' for Active; 'I' for Inactive)
REMARK    1  A    between atoms: C_8  and  C_9
REMARK    2  A    between atoms: N_11  and  C_12
REMARK                            x       y       z     vdW  Elec       q    Type
REMARK                         _______ _______ _______ _____ _____    ______ ____
ROOT
ATOM      1  C   UNL     1      25.770   3.610  40.840  0.00  0.00    +0.000 C 
ATOM      2  C   UNL     1      24.298   3.820  41.170  0.00  0.00    +0.000 C 
ATOM      3  C   UNL     1      24.100   3.813  42.692  0.00  0.00    +0.000 C 
ATOM      4  C   UNL     1      23.837   5.172  40.685  0.00  0.00    +0.000 C 
ATOM      5  C   UNL     1      22.454   5.376  41.119  0.00  0.00    +0.000 C 
ATOM      6  O   UNL     1      22.124   6.487  41.622  0.00  0.00    +0.000 OA
ATOM      7  C   UNL     1      21.487   4.289  40.961  0.00  0.00    +0.000 A 
ATOM      8  C   UNL     1      20.091   4.245  40.979  0.00  0.00    +0.000 A 
ATOM      9  C   UNL     1      19.797   2.931  40.708  0.00  0.00    +0.000 A 
ATOM     10  N   UNL     1      20.933   2.241  40.542  0.00  0.00    +0.000 NA
ATOM     11  C   UNL     1      22.018   3.057  40.691  0.00  0.00    +0.000 A 
ATOM     12  C   UNL     1      23.453   2.744  40.578  0.00  0.00    +0.000 C 
ENDROOT
BRANCH   8  13
ATOM     13  C   UNL     1      19.208   5.356  41.271  0.00  0.00    +0.000 C 
ATOM     14  O   UNL     1      18.997   5.697  42.507  0.00  0.00    +0.000 OA
ATOM     15  N   UNL     1      18.527   6.145  40.293  0.00  0.00    +0.000 NA
BRANCH  15  16
ATOM     16  C   UNL     1      17.676   7.217  40.681  0.00  0.00    +0.000 A 
ATOM     17  C   UNL     1      18.088   8.512  40.518  0.00  0.00    +0.000 A 
ATOM     18  C   UNL     1      17.203   9.542  40.886  0.00  0.00    +0.000 A 
ATOM     19  C   UNL     1      15.967   9.287  41.394  0.00  0.00    +0.000 A 
ATOM     20  C   UNL     1      15.576   7.948  41.550  0.00  0.00    +0.000 A 
ATOM     21  C   UNL     1      16.438   6.932  41.191  0.00  0.00    +0.000 A 
ENDBRANCH  15  16
ENDBRANCH   8  13
TORSDOF 2
ENDMDL
MODEL 9
REMARK VINA RESULT:      -5.5      2.141      6.892
REMARK  Name = 
REMARK  2 active torsions:
REMARK  status: ('A' for Active; 'I' for Inactive)
REMARK    1  A    between atoms: C_8  and  C_9
REMARK    2  A    between atoms: N_11  and  C_12
REMARK                            x       y       z     vdW  Elec       q    Type
REMARK                         _______ _______ _______ _____ _____    ______ ____
ROOT
ATOM      1  C   UNL     1      24.549  -7.543  23.177  0.00  0.00    +0.000 C 
ATOM      2  C   UNL     1      23.161  -7.728  23.778  0.00  0.00    +0.000 C 
ATOM      3  C   UNL     1      22.218  -8.336  22.731  0.00  0.00    +0.000 C 
ATOM      4  C   UNL     1      23.209  -8.702  24.928  0.00  0.00    +0.000 C 
ATOM      5  C   UNL     1      21.843  -8.934  25.401  0.00  0.00    +0.000 C 
ATOM      6  O   UNL     1      21.466 -10.115  25.641  0.00  0.00    +0.000 OA
ATOM      7  C   UNL     1      20.948  -7.790  25.584  0.00  0.00    +0.000 A 
ATOM      8  C   UNL     1      19.746  -7.623  26.278  0.00  0.00    +0.000 A 
ATOM      9  C   UNL     1      19.447  -6.293  26.104  0.00  0.00    +0.000 A 
ATOM     10  N   UNL     1      20.397  -5.711  25.362  0.00  0.00    +0.000 NA
ATOM     11  C   UNL     1      21.359  -6.616  25.015  0.00  0.00    +0.000 A 
ATOM     12  C   UNL     1      22.590  -6.426  24.229  0.00  0.00    +0.000 C 
ENDROOT
BRANCH   8  13
ATOM     13  C   UNL     1      19.007  -8.662  26.963  0.00  0.00    +0.000 C 
ATOM     14  O   UNL     1      17.949  -9.170  26.404  0.00  0.00    +0.000 OA
ATOM     15  N   UNL     1      19.346  -9.208  28.240  0.00  0.00    +0.000 NA
BRANCH  15  16
ATOM     16  C   UNL     1      18.552 -10.228  28.834  0.00  0.00    +0.000 A 
ATOM     17  C   UNL     1      17.532  -9.896  29.684  0.00  0.00    +0.000 A 
ATOM     18  C   UNL     1      16.753 -10.935  30.226  0.00  0.00    +0.000 A 
ATOM     19  C   UNL     1      16.985 -12.242  29.931  0.00  0.00    +0.000 A 
ATOM     20  C   UNL     1      18.041 -12.549  29.057  0.00  0.00    +0.000 A 
ATOM     21  C   UNL     1      18.809 -11.535  28.522  0.00  0.00    +0.000 A 
ENDBRANCH  15  16
ENDBRANCH   8  13
TORSDOF 2
ENDMDL
MODEL 10
REMARK VINA RESULT:      -5.5     31.919     32.850
REMARK  Name = 
REMARK  2 active torsions:
REMARK  status: ('A' for Active; 'I' for Inactive)
REMARK    1  A    between atoms: C_8  and  C_9
REMARK    2  A    between atoms: N_11  and  C_12
REMARK                            x       y       z     vdW  Elec       q    Type
REMARK                         _______ _______ _______ _____ _____    ______ ____
ROOT
ATOM      1  C   UNL     1      23.220  26.664  25.803  0.00  0.00    +0.000 C 
ATOM      2  C   UNL     1      24.582  25.996  25.939  0.00  0.00    +0.000 C 
ATOM      3  C   UNL     1      25.655  27.055  26.226  0.00  0.00    +0.000 C 
ATOM      4  C   UNL     1      24.590  25.049  27.114  0.00  0.00    +0.000 C 
ATOM      5  C   UNL     1      25.944  24.516  27.274  0.00  0.00    +0.000 C 
ATOM      6  O   UNL     1      26.454  24.465  28.429  0.00  0.00    +0.000 OA
ATOM      7  C   UNL     1      26.675  24.057  26.093  0.00  0.00    +0.000 A 
ATOM      8  C   UNL     1      27.803  23.248  25.924  0.00  0.00    +0.000 A 
ATOM      9  C   UNL     1      27.941  23.152  24.561  0.00  0.00    +0.000 A 
ATOM     10  N   UNL     1      26.970  23.852  23.960  0.00  0.00    +0.000 NA
ATOM     11  C   UNL     1      26.152  24.435  24.886  0.00  0.00    +0.000 A 
ATOM     12  C   UNL     1      24.956  25.271  24.691  0.00  0.00    +0.000 C 
ENDROOT
BRANCH   8  13
ATOM     13  C   UNL     1      28.627  22.705  26.985  0.00  0.00    +0.000 C 
ATOM     14  O   UNL     1      28.294  21.578  27.540  0.00  0.00    +0.000 OA
ATOM     15  N   UNL     1      29.818  23.309  27.493  0.00  0.00    +0.000 NA
BRANCH  15  16
ATOM     16  C   UNL     1      30.559  22.698  28.542  0.00  0.00    +0.000 A 
ATOM     17  C   UNL     1      31.679  21.965  28.253  0.00  0.00    +0.000 A 
ATOM     18  C   UNL     1      32.400  21.403  29.322  0.00  0.00    +0.000 A 
ATOM     19  C   UNL     1      32.017  21.566  30.618  0.00  0.00    +0.000 A 
ATOM     20  C   UNL     1      30.863  22.322  30.879  0.00  0.00    +0.000 A 
ATOM     21  C   UNL     1      30.152  22.876  29.835  0.00  0.00    +0.000 A 
ENDBRANCH  15  16
ENDBRANCH   8  13
TORSDOF 2
ENDMDL
