MODEL 1
REMARK VINA RESULT:      -5.4      0.000      0.000
REMARK  Name = 
REMARK  5 active torsions:
REMARK  status: ('A' for Active; 'I' for Inactive)
REMARK    1  A    between atoms: C_2  and  N_3
REMARK    2  A    between atoms: C_2  and  C_13
REMARK    3  A    between atoms: N_3  and  C_4
REMARK    4  A    between atoms: C_4  and  N_6
REMARK    5  A    between atoms: N_6  and  C_7
REMARK                            x       y       z     vdW  Elec       q    Type
REMARK                         _______ _______ _______ _____ _____    ______ ____
ROOT
ATOM      1  N   UNL     1      19.503  10.201  38.823  0.00  0.00    +0.000 NA
ENDROOT
BRANCH   1   3
ATOM      2  C   UNL     1      17.264   9.701  39.392  0.00  0.00    +0.000 C 
ATOM      3  C   UNL     1      18.475   9.076  38.426  0.00  0.00    +0.000 C 
BRANCH   3   4
ATOM      4  C   UNL     1      18.025   9.787  37.050  0.00  0.00    +0.000 A 
ATOM      5  C   UNL     1      17.435  11.024  37.167  0.00  0.00    +0.000 A 
ATOM      6  C   UNL     1      17.032  11.685  36.018  0.00  0.00    +0.000 A 
ATOM      7  N   UNL     1      17.231  11.094  34.832  0.00  0.00    +0.000 NA
ATOM      8  C   UNL     1      17.805   9.892  34.741  0.00  0.00    +0.000 A 
ATOM      9  C   UNL     1      18.208   9.230  35.878  0.00  0.00    +0.000 A 
ENDBRANCH   3   4
ENDBRANCH   1   3
BRANCH   1  10
ATOM     10  C   UNL     1      20.725   9.655  39.270  0.00  0.00    +0.000 C 
ATOM     11  S   UNL     1      20.663   8.401  40.328  0.00  0.00    +0.000 S 
BRANCH  10  12
ATOM     12  N   UNL     1      21.932  10.186  38.807  0.00  0.00    +0.000 NA
BRANCH  12  13
ATOM     13  C   UNL     1      22.152  10.869  37.571  0.00  0.00    +0.000 C 
ATOM     14  C   UNL     1      23.544  11.463  37.618  0.00  0.00    +0.000 C 
ATOM     15  C   UNL     1      24.264  11.360  36.301  0.00  0.00    +0.000 C 
ATOM     16  C   UNL     1      24.457   9.920  35.863  0.00  0.00    +0.000 C 
ATOM     17  C   UNL     1      23.413   9.038  36.548  0.00  0.00    +0.000 C 
ATOM     18  C   UNL     1      22.103   9.828  36.469  0.00  0.00    +0.000 C 
ENDBRANCH  12  13
ENDBRANCH  10  12
ENDBRANCH   1  10
TORSDOF 5
ENDMDL
MODEL 2
REMARK VINA RESULT:      -5.4      3.560      5.309
REMARK  Name = 
REMARK  5 active torsions:
REMARK  status: ('A' for Active; 'I' for Inactive)
REMARK    1  A    between atoms: C_2  and  N_3
REMARK    2  A    between atoms: C_2  and  C_13
REMARK    3  A    between atoms: N_3  and  C_4
REMARK    4  A    between atoms: C_4  and  N_6
REMARK    5  A    between atoms: N_6  and  C_7
REMARK                            x       y       z     vdW  Elec       q    Type
REMARK                         _______ _______ _______ _____ _____    ______ ____
ROOT
ATOM      1  N   UNL     1      17.917  11.102  36.878  0.00  0.00    +0.000 NA
ENDROOT
BRANCH   1   3
ATOM      2  C   UNL     1      15.992  12.458  37.087  0.00  0.00    +0.000 C 
ATOM      3  C   UNL     1      16.363  10.857  36.791  0.00  0.00    +0.000 C 
BRANCH   3   4
ATOM      4  C   UNL     1      16.307  10.930  35.181  0.00  0.00    +0.000 A 
ATOM      5  C   UNL     1      15.353  11.759  34.640  0.00  0.00    +0.000 A 
ATOM      6  C   UNL     1      15.261  11.865  33.262  0.00  0.00    +0.000 A 
ATOM      7  N   UNL     1      16.106  11.155  32.504  0.00  0.00    +0.000 NA
ATOM      8  C   UNL     1      17.027  10.356  33.049  0.00  0.00    +0.000 A 
ATOM      9  C   UNL     1      17.124  10.245  34.417  0.00  0.00    +0.000 A 
ENDBRANCH   3   4
ENDBRANCH   1   3
BRANCH   1  10
ATOM     10  C   UNL     1      18.434  10.728  38.136  0.00  0.00    +0.000 C 
ATOM     11  S   UNL     1      19.790  11.489  38.666  0.00  0.00    +0.000 S 
BRANCH  10  12
ATOM     12  N   UNL     1      17.789   9.739  38.884  0.00  0.00    +0.000 NA
BRANCH  12  13
ATOM     13  C   UNL     1      17.589   9.727  40.299  0.00  0.00    +0.000 C 
ATOM     14  C   UNL     1      16.123   9.442  40.551  0.00  0.00    +0.000 C 
ATOM     15  C   UNL     1      15.903   8.527  41.724  0.00  0.00    +0.000 C 
ATOM     16  C   UNL     1      16.547   7.168  41.523  0.00  0.00    +0.000 C 
ATOM     17  C   UNL     1      17.674   7.290  40.497  0.00  0.00    +0.000 C 
ATOM     18  C   UNL     1      18.412   8.582  40.859  0.00  0.00    +0.000 C 
ENDBRANCH  12  13
ENDBRANCH  10  12
ENDBRANCH   1  10
TORSDOF 5
ENDMDL
MODEL 3
REMARK VINA RESULT:      -5.4     20.747     21.756
REMARK  Name = 
REMARK  5 active torsions:
REMARK  status: ('A' for Active; 'I' for Inactive)
REMARK    1  A    between atoms: C_2  and  N_3
REMARK    2  A    between atoms: C_2  and  C_13
REMARK    3  A    between atoms: N_3  and  C_4
REMARK    4  A    between atoms: C_4  and  N_6
REMARK    5  A    between atoms: N_6  and  C_7
REMARK                            x       y       z     vdW  Elec       q    Type
REMARK                         _______ _______ _______ _____ _____    ______ ____
ROOT
ATOM      1  N   UNL     1      23.548   3.555  16.504  0.00  0.00    +0.000 NA
ENDROOT
BRANCH   1   3
ATOM      2  C   UNL     1      23.889   2.298  18.477  0.00  0.00    +0.000 C 
ATOM      3  C   UNL     1      23.542   2.022  16.867  0.00  0.00    +0.000 C 
BRANCH   3   4
ATOM      4  C   UNL     1      21.939   1.928  17.017  0.00  0.00    +0.000 A 
ATOM      5  C   UNL     1      21.302   1.016  16.208  0.00  0.00    +0.000 A 
ATOM      6  C   UNL     1      19.926   0.888  16.297  0.00  0.00    +0.000 A 
ATOM      7  N   UNL     1      19.263   1.659  17.169  0.00  0.00    +0.000 NA
ATOM      8  C   UNL     1      19.901   2.538  17.946  0.00  0.00    +0.000 A 
ATOM      9  C   UNL     1      21.267   2.671  17.863  0.00  0.00    +0.000 A 
ENDBRANCH   3   4
ENDBRANCH   1   3
BRANCH   1  10
ATOM     10  C   UNL     1      24.667   3.899  15.716  0.00  0.00    +0.000 C 
ATOM     11  S   UNL     1      24.807   3.199  14.237  0.00  0.00    +0.000 S 
BRANCH  10  12
ATOM     12  N   UNL     1      25.607   4.809  16.206  0.00  0.00    +0.000 NA
BRANCH  12  13
ATOM     13  C   UNL     1      25.582   5.469  17.473  0.00  0.00    +0.000 C 
ATOM     14  C   UNL     1      26.711   4.900  18.308  0.00  0.00    +0.000 C 
ATOM     15  C   UNL     1      27.411   5.947  19.129  0.00  0.00    +0.000 C 
ATOM     16  C   UNL     1      28.050   7.021  18.268  0.00  0.00    +0.000 C 
ATOM     17  C   UNL     1      27.352   7.062  16.909  0.00  0.00    +0.000 C 
ATOM     18  C   UNL     1      25.857   6.939  17.220  0.00  0.00    +0.000 C 
ENDBRANCH  12  13
ENDBRANCH  10  12
ENDBRANCH   1  10
TORSDOF 5
ENDMDL
MODEL 4
REMARK VINA RESULT:      -5.3      3.291      5.056
REMARK  Name = 
REMARK  5 active torsions:
REMARK  status: ('A' for Active; 'I' for Inactive)
REMARK    1  A    between atoms: C_2  and  N_3
REMARK    2  A    between atoms: C_2  and  C_13
REMARK    3  A    between atoms: N_3  and  C_4
REMARK    4  A    between atoms: C_4  and  N_6
REMARK    5  A    between atoms: N_6  and  C_7
REMARK                            x       y       z     vdW  Elec       q    Type
REMARK                         _______ _______ _______ _____ _____    ______ ____
ROOT
ATOM      1  N   UNL     1      16.854  11.368  35.283  0.00  0.00    +0.000 NA
ENDROOT
BRANCH   1   3
ATOM      2  C   UNL     1      15.886  13.027  36.662  0.00  0.00    +0.000 C 
ATOM      3  C   UNL     1      15.410  11.649  35.846  0.00  0.00    +0.000 C 
BRANCH   3   4
ATOM      4  C   UNL     1      14.884  12.377  34.507  0.00  0.00    +0.000 A 
ATOM      5  C   UNL     1      14.088  13.484  34.686  0.00  0.00    +0.000 A 
ATOM      6  C   UNL     1      13.611  14.153  33.571  0.00  0.00    +0.000 A 
ATOM      7  N   UNL     1      13.942  13.697  32.355  0.00  0.00    +0.000 NA
ATOM      8  C   UNL     1      14.717  12.620  32.204  0.00  0.00    +0.000 A 
ATOM      9  C   UNL     1      15.195  11.951  33.306  0.00  0.00    +0.000 A 
ENDBRANCH   3   4
ENDBRANCH   1   3
BRANCH   1  10
ATOM     10  C   UNL     1      17.478  10.298  35.960  0.00  0.00    +0.000 C 
ATOM     11  S   UNL     1      17.753   8.915  35.118  0.00  0.00    +0.000 S 
BRANCH  10  12
ATOM     12  N   UNL     1      17.838  10.443  37.302  0.00  0.00    +0.000 NA
BRANCH  12  13
ATOM     13  C   UNL     1      19.011   9.926  37.936  0.00  0.00    +0.000 C 
ATOM     14  C   UNL     1      19.566  11.017  38.828  0.00  0.00    +0.000 C 
ATOM     15  C   UNL     1      20.089  10.488  40.135  0.00  0.00    +0.000 C 
ATOM     16  C   UNL     1      19.008   9.810  40.955  0.00  0.00    +0.000 C 
ATOM     17  C   UNL     1      17.878   9.359  40.029  0.00  0.00    +0.000 C 
ATOM     18  C   UNL     1      18.576   8.761  38.803  0.00  0.00    +0.000 C 
ENDBRANCH  12  13
ENDBRANCH  10  12
ENDBRANCH   1  10
TORSDOF 5
ENDMDL
MODEL 5
REMARK VINA RESULT:      -5.2      1.445      2.210
REMARK  Name = 
REMARK  5 active torsions:
REMARK  status: ('A' for Active; 'I' for Inactive)
REMARK    1  A    between atoms: C_2  and  N_3
REMARK    2  A    between atoms: C_2  and  C_13
REMARK    3  A    between atoms: N_3  and  C_4
REMARK    4  A    between atoms: C_4  and  N_6
REMARK    5  A    between atoms: N_6  and  C_7
REMARK                            x       y       z     vdW  Elec       q    Type
REMARK                         _______ _______ _______ _____ _____    ______ ____
ROOT
ATOM      1  N   UNL     1      18.597  10.089  36.825  0.00  0.00    +0.000 NA
ENDROOT
BRANCH   1   3
ATOM      2  C   UNL     1      17.973  12.299  37.385  0.00  0.00    +0.000 C 
ATOM      3  C   UNL     1      17.258  10.795  37.260  0.00  0.00    +0.000 C 
BRANCH   3   4
ATOM      4  C   UNL     1      16.700  10.959  35.756  0.00  0.00    +0.000 A 
ATOM      5  C   UNL     1      17.404  10.310  34.770  0.00  0.00    +0.000 A 
ATOM      6  C   UNL     1      16.968  10.410  33.459  0.00  0.00    +0.000 A 
ATOM      7  N   UNL     1      15.875  11.140  33.198  0.00  0.00    +0.000 NA
ATOM      8  C   UNL     1      15.205  11.763  34.171  0.00  0.00    +0.000 A 
ATOM      9  C   UNL     1      15.632  11.667  35.475  0.00  0.00    +0.000 A 
ENDBRANCH   3   4
ENDBRANCH   1   3
BRANCH   1  10
ATOM     10  C   UNL     1      19.309   9.592  37.938  0.00  0.00    +0.000 C 
ATOM     11  S   UNL     1      18.447   8.894  39.149  0.00  0.00    +0.000 S 
BRANCH  10  12
ATOM     12  N   UNL     1      20.701   9.704  37.976  0.00  0.00    +0.000 NA
BRANCH  12  13
ATOM     13  C   UNL     1      21.504  10.668  37.291  0.00  0.00    +0.000 C 
ATOM     14  C   UNL     1      22.506  11.218  38.286  0.00  0.00    +0.000 C 
ATOM     15  C   UNL     1      23.865  11.435  37.680  0.00  0.00    +0.000 C 
ATOM     16  C   UNL     1      24.477  10.146  37.165  0.00  0.00    +0.000 C 
ATOM     17  C   UNL     1      23.366   9.133  36.888  0.00  0.00    +0.000 C 
ATOM     18  C   UNL     1      22.256   9.931  36.199  0.00  0.00    +0.000 C 
ENDBRANCH  12  13
ENDBRANCH  10  12
ENDBRANCH   1  10
TORSDOF 5
ENDMDL
MODEL 6
REMARK VINA RESULT:      -5.2     17.158     19.219
REMARK  Name = 
REMARK  5 active torsions:
REMARK  status: ('A' for Active; 'I' for Inactive)
REMARK    1  A    between atoms: C_2  and  N_3
REMARK    2  A    between atoms: C_2  and  C_13
REMARK    3  A    between atoms: N_3  and  C_4
REMARK    4  A    between atoms: C_4  and  N_6
REMARK    5  A    between atoms: N_6  and  C_7
REMARK                            x       y       z     vdW  Elec       q    Type
REMARK                         _______ _______ _______ _____ _____    ______ ____
ROOT
ATOM      1  N   UNL     1      25.968  23.443  26.133  0.00  0.00    +0.000 NA
ENDROOT
BRANCH   1   3
ATOM      2  C   UNL     1      24.616  25.330  26.579  0.00  0.00    +0.000 C 
ATOM      3  C   UNL     1      26.219  24.884  26.719  0.00  0.00    +0.000 C 
BRANCH   3   4
ATOM      4  C   UNL     1      26.164  24.411  28.260  0.00  0.00    +0.000 A 
ATOM      5  C   UNL     1      25.740  25.349  29.172  0.00  0.00    +0.000 A 
ATOM      6  C   UNL     1      25.668  24.998  30.510  0.00  0.00    +0.000 A 
ATOM      7  N   UNL     1      26.015  23.755  30.869  0.00  0.00    +0.000 NA
ATOM      8  C   UNL     1      26.424  22.858  29.967  0.00  0.00    +0.000 A 
ATOM      9  C   UNL     1      26.497  23.200  28.637  0.00  0.00    +0.000 A 
ENDBRANCH   3   4
ENDBRANCH   1   3
BRANCH   1  10
ATOM     10  C   UNL     1      26.750  23.206  24.983  0.00  0.00    +0.000 C 
ATOM     11  S   UNL     1      26.033  23.385  23.517  0.00  0.00    +0.000 S 
BRANCH  10  12
ATOM     12  N   UNL     1      28.090  22.832  25.121  0.00  0.00    +0.000 NA
BRANCH  12  13
ATOM     13  C   UNL     1      29.185  23.248  24.302  0.00  0.00    +0.000 C 
ATOM     14  C   UNL     1      29.497  24.689  24.653  0.00  0.00    +0.000 C 
ATOM     15  C   UNL     1      30.973  24.974  24.678  0.00  0.00    +0.000 C 
ATOM     16  C   UNL     1      31.702  24.141  25.716  0.00  0.00    +0.000 C 
ATOM     17  C   UNL     1      30.879  22.892  26.031  0.00  0.00    +0.000 C 
ATOM     18  C   UNL     1      30.377  22.387  24.675  0.00  0.00    +0.000 C 
ENDBRANCH  12  13
ENDBRANCH  10  12
ENDBRANCH   1  10
TORSDOF 5
ENDMDL
MODEL 7
REMARK VINA RESULT:      -5.2     16.412     18.324
REMARK  Name = 
REMARK  5 active torsions:
REMARK  status: ('A' for Active; 'I' for Inactive)
REMARK    1  A    between atoms: C_2  and  N_3
REMARK    2  A    between atoms: C_2  and  C_13
REMARK    3  A    between atoms: N_3  and  C_4
REMARK    4  A    between atoms: C_4  and  N_6
REMARK    5  A    between atoms: N_6  and  C_7
REMARK                            x       y       z     vdW  Elec       q    Type
REMARK                         _______ _______ _______ _____ _____    ______ ____
ROOT
ATOM      1  N   UNL     1      28.219  23.377  29.597  0.00  0.00    +0.000 NA
ENDROOT
BRANCH   1   3
ATOM      2  C   UNL     1      26.449  22.009  30.361  0.00  0.00    +0.000 C 
ATOM      3  C   UNL     1      27.043  22.585  28.910  0.00  0.00    +0.000 C 
BRANCH   3   4
ATOM      4  C   UNL     1      26.073  23.868  28.788  0.00  0.00    +0.000 A 
ATOM      5  C   UNL     1      25.822  24.556  29.951  0.00  0.00    +0.000 A 
ATOM      6  C   UNL     1      24.999  25.670  29.907  0.00  0.00    +0.000 A 
ATOM      7  N   UNL     1      24.476  26.037  28.729  0.00  0.00    +0.000 NA
ATOM      8  C   UNL     1      24.733  25.354  27.610  0.00  0.00    +0.000 A 
ATOM      9  C   UNL     1      25.549  24.248  27.648  0.00  0.00    +0.000 A 
ENDBRANCH   3   4
ENDBRANCH   1   3
BRANCH   1  10
ATOM     10  C   UNL     1      29.480  22.910  29.171  0.00  0.00    +0.000 C 
ATOM     11  S   UNL     1      30.657  22.739  30.304  0.00  0.00    +0.000 S 
BRANCH  10  12
ATOM     12  N   UNL     1      29.689  22.609  27.823  0.00  0.00    +0.000 NA
BRANCH  12  13
ATOM     13  C   UNL     1      30.156  23.500  26.807  0.00  0.00    +0.000 C 
ATOM     14  C   UNL     1      30.958  22.682  25.816  0.00  0.00    +0.000 C 
ATOM     15  C   UNL     1      30.727  23.106  24.392  0.00  0.00    +0.000 C 
ATOM     16  C   UNL     1      29.279  22.940  23.971  0.00  0.00    +0.000 C 
ATOM     17  C   UNL     1      28.387  22.939  25.213  0.00  0.00    +0.000 C 
ATOM     18  C   UNL     1      28.935  24.059  26.103  0.00  0.00    +0.000 C 
ENDBRANCH  12  13
ENDBRANCH  10  12
ENDBRANCH   1  10
TORSDOF 5
ENDMDL
MODEL 8
REMARK VINA RESULT:      -5.0     21.406     23.058
REMARK  Name = 
REMARK  5 active torsions:
REMARK  status: ('A' for Active; 'I' for Inactive)
REMARK    1  A    between atoms: C_2  and  N_3
REMARK    2  A    between atoms: C_2  and  C_13
REMARK    3  A    between atoms: N_3  and  C_4
REMARK    4  A    between atoms: C_4  and  N_6
REMARK    5  A    between atoms: N_6  and  C_7
REMARK                            x       y       z     vdW  Elec       q    Type
REMARK                         _______ _______ _______ _____ _____    ______ ____
ROOT
ATOM      1  N   UNL     1      10.812  24.085  21.495  0.00  0.00    +0.000 NA
ENDROOT
BRANCH   1   3
ATOM      2  C   UNL     1      11.813  25.864  20.305  0.00  0.00    +0.000 C 
ATOM      3  C   UNL     1      11.591  24.218  20.133  0.00  0.00    +0.000 C 
BRANCH   3   4
ATOM      4  C   UNL     1      13.010  23.756  20.746  0.00  0.00    +0.000 A 
ATOM      5  C   UNL     1      13.522  24.538  21.755  0.00  0.00    +0.000 A 
ATOM      6  C   UNL     1      14.735  24.188  22.323  0.00  0.00    +0.000 A 
ATOM      7  N   UNL     1      15.369  23.098  21.868  0.00  0.00    +0.000 NA
ATOM      8  C   UNL     1      14.854  22.353  20.887  0.00  0.00    +0.000 A 
ATOM      9  C   UNL     1      13.649  22.695  20.318  0.00  0.00    +0.000 A 
ENDBRANCH   3   4
ENDBRANCH   1   3
BRANCH   1  10
ATOM     10  C   UNL     1       9.514  23.564  21.304  0.00  0.00    +0.000 C 
ATOM     11  S   UNL     1       8.300  24.175  22.226  0.00  0.00    +0.000 S 
BRANCH  10  12
ATOM     12  N   UNL     1       9.302  22.563  20.353  0.00  0.00    +0.000 NA
BRANCH  12  13
ATOM     13  C   UNL     1       8.828  21.236  20.594  0.00  0.00    +0.000 C 
ATOM     14  C   UNL     1       8.824  20.504  19.268  0.00  0.00    +0.000 C 
ATOM     15  C   UNL     1       9.272  19.074  19.393  0.00  0.00    +0.000 C 
ATOM     16  C   UNL     1      10.694  18.961  19.909  0.00  0.00    +0.000 C 
ATOM     17  C   UNL     1      11.059  20.235  20.672  0.00  0.00    +0.000 C 
ATOM     18  C   UNL     1       9.826  20.565  21.518  0.00  0.00    +0.000 C 
ENDBRANCH  12  13
ENDBRANCH  10  12
ENDBRANCH   1  10
TORSDOF 5
ENDMDL
MODEL 9
REMARK VINA RESULT:      -5.0     17.209     19.570
REMARK  Name = 
REMARK  5 active torsions:
REMARK  status: ('A' for Active; 'I' for Inactive)
REMARK    1  A    between atoms: C_2  and  N_3
REMARK    2  A    between atoms: C_2  and  C_13
REMARK    3  A    between atoms: N_3  and  C_4
REMARK    4  A    between atoms: C_4  and  N_6
REMARK    5  A    between atoms: N_6  and  C_7
REMARK                            x       y       z     vdW  Elec       q    Type
REMARK                         _______ _______ _______ _____ _____    ______ ____
ROOT
ATOM      1  N   UNL     1      30.061  22.497  26.058  0.00  0.00    +0.000 NA
ENDROOT
BRANCH   1   3
ATOM      2  C   UNL     1      31.608  23.255  24.439  0.00  0.00    +0.000 C 
ATOM      3  C   UNL     1      30.364  23.878  25.362  0.00  0.00    +0.000 C 
BRANCH   3   4
ATOM      4  C   UNL     1      29.197  23.729  24.258  0.00  0.00    +0.000 A 
ATOM      5  C   UNL     1      29.548  24.009  22.958  0.00  0.00    +0.000 A 
ATOM      6  C   UNL     1      28.588  23.894  21.966  0.00  0.00    +0.000 A 
ATOM      7  N   UNL     1      27.350  23.514  22.309  0.00  0.00    +0.000 NA
ATOM      8  C   UNL     1      27.030  23.247  23.578  0.00  0.00    +0.000 A 
ATOM      9  C   UNL     1      27.978  23.359  24.569  0.00  0.00    +0.000 A 
ENDBRANCH   3   4
ENDBRANCH   1   3
BRANCH   1  10
ATOM     10  C   UNL     1      30.202  22.578  27.459  0.00  0.00    +0.000 C 
ATOM     11  S   UNL     1      31.611  22.055  28.119  0.00  0.00    +0.000 S 
BRANCH  10  12
ATOM     12  N   UNL     1      29.158  23.094  28.233  0.00  0.00    +0.000 NA
BRANCH  12  13
ATOM     13  C   UNL     1      27.862  22.520  28.415  0.00  0.00    +0.000 C 
ATOM     14  C   UNL     1      27.683  22.257  29.896  0.00  0.00    +0.000 C 
ATOM     15  C   UNL     1      26.291  22.565  30.377  0.00  0.00    +0.000 C 
ATOM     16  C   UNL     1      25.926  24.024  30.181  0.00  0.00    +0.000 C 
ATOM     17  C   UNL     1      26.800  24.622  29.080  0.00  0.00    +0.000 C 
ATOM     18  C   UNL     1      26.846  23.559  27.978  0.00  0.00    +0.000 C 
ENDBRANCH  12  13
ENDBRANCH  10  12
ENDBRANCH   1  10
TORSDOF 5
ENDMDL
MODEL 10
REMARK VINA RESULT:      -5.0     20.882     22.013
REMARK  Name = 
REMARK  5 active torsions:
REMARK  status: ('A' for Active; 'I' for Inactive)
REMARK    1  A    between atoms: C_2  and  N_3
REMARK    2  A    between atoms: C_2  and  C_13
REMARK    3  A    between atoms: N_3  and  C_4
REMARK    4  A    between atoms: C_4  and  N_6
REMARK    5  A    between atoms: N_6  and  C_7
REMARK                            x       y       z     vdW  Elec       q    Type
REMARK                         _______ _______ _______ _____ _____    ______ ____
ROOT
ATOM      1  N   UNL     1      21.841  -7.439  25.568  0.00  0.00    +0.000 NA
ENDROOT
BRANCH   1   3
ATOM      2  C   UNL     1      20.665  -9.334  26.352  0.00  0.00    +0.000 C 
ATOM      3  C   UNL     1      20.557  -8.227  25.106  0.00  0.00    +0.000 C 
BRANCH   3   4
ATOM      4  C   UNL     1      19.519  -7.219  25.819  0.00  0.00    +0.000 A 
ATOM      5  C   UNL     1      19.877  -5.892  25.844  0.00  0.00    +0.000 A 
ATOM      6  C   UNL     1      19.022  -4.979  26.439  0.00  0.00    +0.000 A 
ATOM      7  N   UNL     1      17.876  -5.422  26.971  0.00  0.00    +0.000 NA
ATOM      8  C   UNL     1      17.547  -6.717  26.936  0.00  0.00    +0.000 A 
ATOM      9  C   UNL     1      18.391  -7.629  26.346  0.00  0.00    +0.000 A 
ENDBRANCH   3   4
ENDBRANCH   1   3
BRANCH   1  10
ATOM     10  C   UNL     1      22.811  -7.380  24.545  0.00  0.00    +0.000 C 
ATOM     11  S   UNL     1      22.681  -6.177  23.434  0.00  0.00    +0.000 S 
BRANCH  10  12
ATOM     12  N   UNL     1      23.838  -8.327  24.507  0.00  0.00    +0.000 NA
BRANCH  12  13
ATOM     13  C   UNL     1      24.646  -8.672  23.380  0.00  0.00    +0.000 C 
ATOM     14  C   UNL     1      25.903  -7.829  23.444  0.00  0.00    +0.000 C 
ATOM     15  C   UNL     1      27.134  -8.591  23.038  0.00  0.00    +0.000 C 
ATOM     16  C   UNL     1      27.400  -9.777  23.945  0.00  0.00    +0.000 C 
ATOM     17  C   UNL     1      26.098 -10.195  24.628  0.00  0.00    +0.000 C 
ATOM     18  C   UNL     1      25.030 -10.132  23.532  0.00  0.00    +0.000 C 
ENDBRANCH  12  13
ENDBRANCH  10  12
ENDBRANCH   1  10
TORSDOF 5
ENDMDL
