MODEL 1
REMARK VINA RESULT:      -6.4      0.000      0.000
REMARK  Name = 
REMARK  2 active torsions:
REMARK  status: ('A' for Active; 'I' for Inactive)
REMARK    1  A    between atoms: C_2  and  C_16
REMARK    2  A    between atoms: N_3  and  N_4
REMARK                            x       y       z     vdW  Elec       q    Type
REMARK                         _______ _______ _______ _____ _____    ______ ____
ROOT
ATOM      1  N   UNL     1      31.481  21.800   9.135  0.00  0.00    +0.000 NA
ATOM      2  C   UNL     1      32.699  21.648   9.449  0.00  0.00    +0.000 C 
ATOM      3  C   UNL     1      33.544  20.958   8.346  0.00  0.00    +0.000 C 
ATOM      4  C   UNL     1      34.820  22.001   8.339  0.00  0.00    +0.000 C 
ATOM      5  C   UNL     1      35.294  22.310   9.622  0.00  0.00    +0.000 C 
ATOM      6  C   UNL     1      34.433  23.002  10.482  0.00  0.00    +0.000 C 
ATOM      7  C   UNL     1      33.052  22.186  10.855  0.00  0.00    +0.000 C 
ATOM      8  C   UNL     1      33.772  20.856  11.436  0.00  0.00    +0.000 C 
ATOM      9  C   UNL     1      34.728  20.296  10.513  0.00  0.00    +0.000 C 
ATOM     10  O   UNL     1      35.247  19.166  11.171  0.00  0.00    +0.000 OA
ATOM     11  C   UNL     1      35.989  21.154  10.293  0.00  0.00    +0.000 C 
ATOM     12  C   UNL     1      34.239  19.816   9.257  0.00  0.00    +0.000 C 
ENDROOT
BRANCH   1  15
ATOM     13  O   UNL     1      29.444  20.432  10.528  0.00  0.00    +0.000 OA
ATOM     14  C   UNL     1      29.532  21.680  10.633  0.00  0.00    +0.000 C 
ATOM     15  N   UNL     1      30.529  22.391   9.957  0.00  0.00    +0.000 NA
BRANCH  14  16
ATOM     16  C   UNL     1      28.559  22.391  11.487  0.00  0.00    +0.000 A 
ATOM     17  C   UNL     1      28.830  23.214  12.542  0.00  0.00    +0.000 A 
ATOM     18  C   UNL     1      27.805  23.761  13.186  0.00  0.00    +0.000 A 
ATOM     19  C   UNL     1      26.547  23.460  12.747  0.00  0.00    +0.000 A 
ATOM     20  S   UNL     1      26.858  22.414  11.435  0.00  0.00    +0.000 S 
ENDBRANCH  14  16
ENDBRANCH   1  15
TORSDOF 2
ENDMDL
MODEL 2
REMARK VINA RESULT:      -6.3      1.922      2.804
REMARK  Name = 
REMARK  2 active torsions:
REMARK  status: ('A' for Active; 'I' for Inactive)
REMARK    1  A    between atoms: C_2  and  C_16
REMARK    2  A    between atoms: N_3  and  N_4
REMARK                            x       y       z     vdW  Elec       q    Type
REMARK                         _______ _______ _______ _____ _____    ______ ____
ROOT
ATOM      1  N   UNL     1      32.515  22.233  11.397  0.00  0.00    +0.000 NA
ATOM      2  C   UNL     1      32.891  21.837  10.253  0.00  0.00    +0.000 C 
ATOM      3  C   UNL     1      34.338  21.281  10.232  0.00  0.00    +0.000 C 
ATOM      4  C   UNL     1      34.045  19.890   9.398  0.00  0.00    +0.000 C 
ATOM      5  C   UNL     1      33.254  20.082   8.256  0.00  0.00    +0.000 C 
ATOM      6  C   UNL     1      31.939  20.522   8.445  0.00  0.00    +0.000 C 
ATOM      7  C   UNL     1      31.817  22.004   9.153  0.00  0.00    +0.000 C 
ATOM      8  C   UNL     1      32.720  22.802   8.070  0.00  0.00    +0.000 C 
ATOM      9  C   UNL     1      34.009  22.191   7.866  0.00  0.00    +0.000 C 
ATOM     10  O   UNL     1      34.648  23.003   6.911  0.00  0.00    +0.000 OA
ATOM     11  C   UNL     1      33.969  20.824   7.156  0.00  0.00    +0.000 C 
ATOM     12  C   UNL     1      34.904  22.135   8.980  0.00  0.00    +0.000 C 
ENDROOT
BRANCH   1  15
ATOM     13  O   UNL     1      30.769  21.372  13.439  0.00  0.00    +0.000 OA
ATOM     14  C   UNL     1      30.422  22.317  12.689  0.00  0.00    +0.000 C 
ATOM     15  N   UNL     1      31.262  22.770  11.666  0.00  0.00    +0.000 NA
BRANCH  14  16
ATOM     16  C   UNL     1      29.103  22.947  12.904  0.00  0.00    +0.000 A 
ATOM     17  C   UNL     1      28.746  23.795  13.912  0.00  0.00    +0.000 A 
ATOM     18  C   UNL     1      27.500  24.256  13.926  0.00  0.00    +0.000 A 
ATOM     19  C   UNL     1      26.661  23.847  12.929  0.00  0.00    +0.000 A 
ATOM     20  S   UNL     1      27.665  22.825  12.003  0.00  0.00    +0.000 S 
ENDBRANCH  14  16
ENDBRANCH   1  15
TORSDOF 2
ENDMDL
MODEL 3
REMARK VINA RESULT:      -6.2     33.106     34.259
REMARK  Name = 
REMARK  2 active torsions:
REMARK  status: ('A' for Active; 'I' for Inactive)
REMARK    1  A    between atoms: C_2  and  C_16
REMARK    2  A    between atoms: N_3  and  N_4
REMARK                            x       y       z     vdW  Elec       q    Type
REMARK                         _______ _______ _______ _____ _____    ______ ____
ROOT
ATOM      1  N   UNL     1      33.999  -5.250  32.706  0.00  0.00    +0.000 NA
ATOM      2  C   UNL     1      33.678  -5.975  31.718  0.00  0.00    +0.000 C 
ATOM      3  C   UNL     1      33.998  -7.479  31.921  0.00  0.00    +0.000 C 
ATOM      4  C   UNL     1      32.550  -8.097  31.436  0.00  0.00    +0.000 C 
ATOM      5  C   UNL     1      32.082  -7.543  30.236  0.00  0.00    +0.000 C 
ATOM      6  C   UNL     1      31.765  -6.180  30.232  0.00  0.00    +0.000 C 
ATOM      7  C   UNL     1      33.042  -5.189  30.548  0.00  0.00    +0.000 C 
ATOM      8  C   UNL     1      34.000  -5.734  29.359  0.00  0.00    +0.000 C 
ATOM      9  C   UNL     1      34.158  -7.166  29.389  0.00  0.00    +0.000 C 
ATOM     10  O   UNL     1      35.006  -7.459  28.305  0.00  0.00    +0.000 OA
ATOM     11  C   UNL     1      32.887  -7.962  29.034  0.00  0.00    +0.000 C 
ATOM     12  C   UNL     1      34.790  -7.743  30.535  0.00  0.00    +0.000 C 
ENDROOT
BRANCH   1  15
ATOM     13  O   UNL     1      33.638  -3.737  35.060  0.00  0.00    +0.000 OA
ATOM     14  C   UNL     1      33.634  -3.156  33.948  0.00  0.00    +0.000 C 
ATOM     15  N   UNL     1      33.810  -3.873  32.760  0.00  0.00    +0.000 NA
BRANCH  14  16
ATOM     16  C   UNL     1      33.440  -1.692  33.911  0.00  0.00    +0.000 A 
ATOM     17  C   UNL     1      34.064  -0.794  33.095  0.00  0.00    +0.000 A 
ATOM     18  C   UNL     1      33.745   0.489  33.221  0.00  0.00    +0.000 A 
ATOM     19  C   UNL     1      32.813   0.822  34.163  0.00  0.00    +0.000 A 
ATOM     20  S   UNL     1      32.418  -0.695  34.837  0.00  0.00    +0.000 S 
ENDBRANCH  14  16
ENDBRANCH   1  15
TORSDOF 2
ENDMDL
MODEL 4
REMARK VINA RESULT:      -6.1      3.632      6.667
REMARK  Name = 
REMARK  2 active torsions:
REMARK  status: ('A' for Active; 'I' for Inactive)
REMARK    1  A    between atoms: C_2  and  C_16
REMARK    2  A    between atoms: N_3  and  N_4
REMARK                            x       y       z     vdW  Elec       q    Type
REMARK                         _______ _______ _______ _____ _____    ______ ____
ROOT
ATOM      1  N   UNL     1      33.758  21.308  10.348  0.00  0.00    +0.000 NA
ATOM      2  C   UNL     1      32.500  21.379  10.478  0.00  0.00    +0.000 C 
ATOM      3  C   UNL     1      31.761  21.786   9.177  0.00  0.00    +0.000 C 
ATOM      4  C   UNL     1      30.591  20.626   9.196  0.00  0.00    +0.000 C 
ATOM      5  C   UNL     1      29.970  20.481  10.445  0.00  0.00    +0.000 C 
ATOM      6  C   UNL     1      30.758  20.034  11.512  0.00  0.00    +0.000 C 
ATOM      7  C   UNL     1      32.001  21.042  11.903  0.00  0.00    +0.000 C 
ATOM      8  C   UNL     1      31.098  22.365  12.149  0.00  0.00    +0.000 C 
ATOM      9  C   UNL     1      30.236  22.662  11.032  0.00  0.00    +0.000 C 
ATOM     10  O   UNL     1      29.538  23.822  11.413  0.00  0.00    +0.000 OA
ATOM     11  C   UNL     1      29.094  21.651  10.812  0.00  0.00    +0.000 C 
ATOM     12  C   UNL     1      30.853  22.980   9.781  0.00  0.00    +0.000 C 
ENDROOT
BRANCH   1  15
ATOM     13  O   UNL     1      35.336  18.971  10.437  0.00  0.00    +0.000 OA
ATOM     14  C   UNL     1      35.400  19.794  11.382  0.00  0.00    +0.000 C 
ATOM     15  N   UNL     1      34.632  20.963  11.372  0.00  0.00    +0.000 NA
BRANCH  14  16
ATOM     16  C   UNL     1      36.305  19.507  12.514  0.00  0.00    +0.000 A 
ATOM     17  C   UNL     1      36.030  18.765  13.626  0.00  0.00    +0.000 A 
ATOM     18  C   UNL     1      36.988  18.625  14.535  0.00  0.00    +0.000 A 
ATOM     19  C   UNL     1      38.186  19.238  14.294  0.00  0.00    +0.000 A 
ATOM     20  S   UNL     1      37.914  19.989  12.786  0.00  0.00    +0.000 S 
ENDBRANCH  14  16
ENDBRANCH   1  15
TORSDOF 2
ENDMDL
MODEL 5
REMARK VINA RESULT:      -6.1     13.551     16.030
REMARK  Name = 
REMARK  2 active torsions:
REMARK  status: ('A' for Active; 'I' for Inactive)
REMARK    1  A    between atoms: C_2  and  C_16
REMARK    2  A    between atoms: N_3  and  N_4
REMARK                            x       y       z     vdW  Elec       q    Type
REMARK                         _______ _______ _______ _____ _____    ______ ____
ROOT
ATOM      1  N   UNL     1      28.423  22.845  25.286  0.00  0.00    +0.000 NA
ATOM      2  C   UNL     1      28.438  23.743  24.392  0.00  0.00    +0.000 C 
ATOM      3  C   UNL     1      27.227  23.681  23.426  0.00  0.00    +0.000 C 
ATOM      4  C   UNL     1      26.813  25.275  23.462  0.00  0.00    +0.000 C 
ATOM      5  C   UNL     1      27.907  26.138  23.304  0.00  0.00    +0.000 C 
ATOM      6  C   UNL     1      28.887  26.130  24.302  0.00  0.00    +0.000 C 
ATOM      7  C   UNL     1      29.661  24.687  24.478  0.00  0.00    +0.000 C 
ATOM      8  C   UNL     1      30.161  24.555  22.943  0.00  0.00    +0.000 C 
ATOM      9  C   UNL     1      29.084  24.700  21.996  0.00  0.00    +0.000 C 
ATOM     10  O   UNL     1      29.691  24.559  20.734  0.00  0.00    +0.000 OA
ATOM     11  C   UNL     1      28.485  26.116  21.913  0.00  0.00    +0.000 C 
ATOM     12  C   UNL     1      28.036  23.727  22.026  0.00  0.00    +0.000 C 
ENDROOT
BRANCH   1  15
ATOM     13  O   UNL     1      27.939  22.545  28.049  0.00  0.00    +0.000 OA
ATOM     14  C   UNL     1      29.122  22.551  27.628  0.00  0.00    +0.000 C 
ATOM     15  N   UNL     1      29.399  22.698  26.264  0.00  0.00    +0.000 NA
BRANCH  14  16
ATOM     16  C   UNL     1      30.223  22.401  28.599  0.00  0.00    +0.000 A 
ATOM     17  C   UNL     1      31.499  21.986  28.347  0.00  0.00    +0.000 A 
ATOM     18  C   UNL     1      32.346  21.918  29.368  0.00  0.00    +0.000 A 
ATOM     19  C   UNL     1      31.880  22.268  30.604  0.00  0.00    +0.000 A 
ATOM     20  S   UNL     1      30.257  22.682  30.278  0.00  0.00    +0.000 S 
ENDBRANCH  14  16
ENDBRANCH   1  15
TORSDOF 2
ENDMDL
MODEL 6
REMARK VINA RESULT:      -6.0     30.035     31.100
REMARK  Name = 
REMARK  2 active torsions:
REMARK  status: ('A' for Active; 'I' for Inactive)
REMARK    1  A    between atoms: C_2  and  C_16
REMARK    2  A    between atoms: N_3  and  N_4
REMARK                            x       y       z     vdW  Elec       q    Type
REMARK                         _______ _______ _______ _____ _____    ______ ____
ROOT
ATOM      1  N   UNL     1      20.697   9.888  38.154  0.00  0.00    +0.000 NA
ATOM      2  C   UNL     1      21.963   9.885  38.108  0.00  0.00    +0.000 C 
ATOM      3  C   UNL     1      22.634   9.514  39.455  0.00  0.00    +0.000 C 
ATOM      4  C   UNL     1      23.711   8.404  38.886  0.00  0.00    +0.000 C 
ATOM      5  C   UNL     1      24.407   8.836  37.748  0.00  0.00    +0.000 C 
ATOM      6  C   UNL     1      23.667   9.061  36.582  0.00  0.00    +0.000 C 
ATOM      7  C   UNL     1      22.536  10.251  36.718  0.00  0.00    +0.000 C 
ATOM      8  C   UNL     1      23.553  11.421  37.191  0.00  0.00    +0.000 C 
ATOM      9  C   UNL     1      24.352  11.034  38.327  0.00  0.00    +0.000 C 
ATOM     10  O   UNL     1      25.163  12.152  38.597  0.00  0.00    +0.000 OA
ATOM     11  C   UNL     1      25.394   9.937  38.038  0.00  0.00    +0.000 C 
ATOM     12  C   UNL     1      23.672  10.751  39.554  0.00  0.00    +0.000 C 
ENDROOT
BRANCH   1  15
ATOM     13  O   UNL     1      17.908   9.472  38.053  0.00  0.00    +0.000 OA
ATOM     14  C   UNL     1      18.494   9.969  37.059  0.00  0.00    +0.000 C 
ATOM     15  N   UNL     1      19.875  10.189  37.074  0.00  0.00    +0.000 NA
BRANCH  14  16
ATOM     16  C   UNL     1      17.697  10.319  35.866  0.00  0.00    +0.000 A 
ATOM     17  C   UNL     1      17.887   9.883  34.587  0.00  0.00    +0.000 A 
ATOM     18  C   UNL     1      17.052  10.319  33.650  0.00  0.00    +0.000 A 
ATOM     19  C   UNL     1      16.060  11.177  34.032  0.00  0.00    +0.000 A 
ATOM     20  S   UNL     1      16.341  11.336  35.708  0.00  0.00    +0.000 S 
ENDBRANCH  14  16
ENDBRANCH   1  15
TORSDOF 2
ENDMDL
MODEL 7
REMARK VINA RESULT:      -6.0     32.476     35.132
REMARK  Name = 
REMARK  2 active torsions:
REMARK  status: ('A' for Active; 'I' for Inactive)
REMARK    1  A    between atoms: C_2  and  C_16
REMARK    2  A    between atoms: N_3  and  N_4
REMARK                            x       y       z     vdW  Elec       q    Type
REMARK                         _______ _______ _______ _____ _____    ______ ____
ROOT
ATOM      1  N   UNL     1      17.578   9.751  38.990  0.00  0.00    +0.000 NA
ATOM      2  C   UNL     1      17.658   9.159  40.107  0.00  0.00    +0.000 C 
ATOM      3  C   UNL     1      19.044   8.517  40.373  0.00  0.00    +0.000 C 
ATOM      4  C   UNL     1      19.277   9.083  41.903  0.00  0.00    +0.000 C 
ATOM      5  C   UNL     1      18.159   8.922  42.733  0.00  0.00    +0.000 C 
ATOM      6  C   UNL     1      16.997   9.627  42.399  0.00  0.00    +0.000 C 
ATOM      7  C   UNL     1      16.355   9.218  40.938  0.00  0.00    +0.000 C 
ATOM      8  C   UNL     1      16.203   7.633  41.238  0.00  0.00    +0.000 C 
ATOM      9  C   UNL     1      17.433   7.035  41.692  0.00  0.00    +0.000 C 
ATOM     10  O   UNL     1      17.121   5.679  41.900  0.00  0.00    +0.000 OA
ATOM     11  C   UNL     1      17.889   7.484  43.094  0.00  0.00    +0.000 C 
ATOM     12  C   UNL     1      18.545   7.037  40.793  0.00  0.00    +0.000 C 
ENDROOT
BRANCH   1  15
ATOM     13  O   UNL     1      17.339  11.075  36.509  0.00  0.00    +0.000 OA
ATOM     14  C   UNL     1      16.356  11.048  37.290  0.00  0.00    +0.000 C 
ATOM     15  N   UNL     1      16.439  10.401  38.528  0.00  0.00    +0.000 NA
BRANCH  14  16
ATOM     16  C   UNL     1      15.104  11.714  36.880  0.00  0.00    +0.000 A 
ATOM     17  C   UNL     1      14.947  12.648  35.898  0.00  0.00    +0.000 A 
ATOM     18  C   UNL     1      13.727  13.128  35.683  0.00  0.00    +0.000 A 
ATOM     19  C   UNL     1      12.711  12.653  36.465  0.00  0.00    +0.000 A 
ATOM     20  S   UNL     1      13.519  11.541  37.477  0.00  0.00    +0.000 S 
ENDBRANCH  14  16
ENDBRANCH   1  15
TORSDOF 2
ENDMDL
MODEL 8
REMARK VINA RESULT:      -6.0      9.388     11.404
REMARK  Name = 
REMARK  2 active torsions:
REMARK  status: ('A' for Active; 'I' for Inactive)
REMARK    1  A    between atoms: C_2  and  C_16
REMARK    2  A    between atoms: N_3  and  N_4
REMARK                            x       y       z     vdW  Elec       q    Type
REMARK                         _______ _______ _______ _____ _____    ______ ____
ROOT
ATOM      1  N   UNL     1      30.161  26.720  18.968  0.00  0.00    +0.000 NA
ATOM      2  C   UNL     1      29.983  27.540  18.019  0.00  0.00    +0.000 C 
ATOM      3  C   UNL     1      30.888  27.275  16.789  0.00  0.00    +0.000 C 
ATOM      4  C   UNL     1      29.732  27.368  15.619  0.00  0.00    +0.000 C 
ATOM      5  C   UNL     1      28.890  28.481  15.756  0.00  0.00    +0.000 C 
ATOM      6  C   UNL     1      28.076  28.542  16.893  0.00  0.00    +0.000 C 
ATOM      7  C   UNL     1      28.905  28.609  18.314  0.00  0.00    +0.000 C 
ATOM      8  C   UNL     1      29.782  29.924  17.956  0.00  0.00    +0.000 C 
ATOM      9  C   UNL     1      30.483  29.797  16.703  0.00  0.00    +0.000 C 
ATOM     10  O   UNL     1      31.182  31.010  16.555  0.00  0.00    +0.000 OA
ATOM     11  C   UNL     1      29.578  29.787  15.456  0.00  0.00    +0.000 C 
ATOM     12  C   UNL     1      31.474  28.770  16.595  0.00  0.00    +0.000 C 
ENDROOT
BRANCH   1  15
ATOM     13  O   UNL     1      29.710  24.508  20.660  0.00  0.00    +0.000 OA
ATOM     14  C   UNL     1      29.264  25.635  20.987  0.00  0.00    +0.000 C 
ATOM     15  N   UNL     1      29.468  26.754  20.172  0.00  0.00    +0.000 NA
BRANCH  14  16
ATOM     16  C   UNL     1      28.513  25.763  22.253  0.00  0.00    +0.000 A 
ATOM     17  C   UNL     1      27.447  25.016  22.661  0.00  0.00    +0.000 A 
ATOM     18  C   UNL     1      26.910  25.292  23.844  0.00  0.00    +0.000 A 
ATOM     19  C   UNL     1      27.463  26.308  24.571  0.00  0.00    +0.000 A 
ATOM     20  S   UNL     1      28.727  26.837  23.555  0.00  0.00    +0.000 S 
ENDBRANCH  14  16
ENDBRANCH   1  15
TORSDOF 2
ENDMDL
MODEL 9
REMARK VINA RESULT:      -5.9     11.803     14.224
REMARK  Name = 
REMARK  2 active torsions:
REMARK  status: ('A' for Active; 'I' for Inactive)
REMARK    1  A    between atoms: C_2  and  C_16
REMARK    2  A    between atoms: N_3  and  N_4
REMARK                            x       y       z     vdW  Elec       q    Type
REMARK                         _______ _______ _______ _____ _____    ______ ____
ROOT
ATOM      1  N   UNL     1      28.557  24.675  23.107  0.00  0.00    +0.000 NA
ATOM      2  C   UNL     1      29.295  24.309  24.070  0.00  0.00    +0.000 C 
ATOM      3  C   UNL     1      28.795  23.028  24.786  0.00  0.00    +0.000 C 
ATOM      4  C   UNL     1      30.222  22.206  24.825  0.00  0.00    +0.000 C 
ATOM      5  C   UNL     1      31.302  22.986  25.263  0.00  0.00    +0.000 C 
ATOM      6  C   UNL     1      31.682  24.072  24.466  0.00  0.00    +0.000 C 
ATOM      7  C   UNL     1      30.519  25.227  24.300  0.00  0.00    +0.000 C 
ATOM      8  C   UNL     1      30.303  25.504  25.881  0.00  0.00    +0.000 C 
ATOM      9  C   UNL     1      30.038  24.297  26.624  0.00  0.00    +0.000 C 
ATOM     10  O   UNL     1      29.879  24.720  27.956  0.00  0.00    +0.000 OA
ATOM     11  C   UNL     1      31.232  23.329  26.728  0.00  0.00    +0.000 C 
ATOM     12  C   UNL     1      28.847  23.570  26.309  0.00  0.00    +0.000 C 
ENDROOT
BRANCH   1  15
ATOM     13  O   UNL     1      29.668  24.635  20.514  0.00  0.00    +0.000 OA
ATOM     14  C   UNL     1      29.352  25.734  21.032  0.00  0.00    +0.000 C 
ATOM     15  N   UNL     1      28.799  25.792  22.316  0.00  0.00    +0.000 NA
BRANCH  14  16
ATOM     16  C   UNL     1      29.575  26.973  20.261  0.00  0.00    +0.000 A 
ATOM     17  C   UNL     1      30.264  27.107  19.090  0.00  0.00    +0.000 A 
ATOM     18  C   UNL     1      30.350  28.319  18.552  0.00  0.00    +0.000 A 
ATOM     19  C   UNL     1      29.743  29.350  19.211  0.00  0.00    +0.000 A 
ATOM     20  S   UNL     1      29.069  28.568  20.570  0.00  0.00    +0.000 S 
ENDBRANCH  14  16
ENDBRANCH   1  15
TORSDOF 2
ENDMDL
MODEL 10
REMARK VINA RESULT:      -5.8     30.807     32.801
REMARK  Name = 
REMARK  2 active torsions:
REMARK  status: ('A' for Active; 'I' for Inactive)
REMARK    1  A    between atoms: C_2  and  C_16
REMARK    2  A    between atoms: N_3  and  N_4
REMARK                            x       y       z     vdW  Elec       q    Type
REMARK                         _______ _______ _______ _____ _____    ______ ____
ROOT
ATOM      1  N   UNL     1      21.816   8.783  39.589  0.00  0.00    +0.000 NA
ATOM      2  C   UNL     1      22.419   9.398  38.660  0.00  0.00    +0.000 C 
ATOM      3  C   UNL     1      23.920   9.030  38.542  0.00  0.00    +0.000 C 
ATOM      4  C   UNL     1      23.976   8.780  36.915  0.00  0.00    +0.000 C 
ATOM      5  C   UNL     1      23.350   9.793  36.174  0.00  0.00    +0.000 C 
ATOM      6  C   UNL     1      21.969   9.955  36.337  0.00  0.00    +0.000 C 
ATOM      7  C   UNL     1      21.513  10.368  37.865  0.00  0.00    +0.000 C 
ATOM      8  C   UNL     1      22.438  11.693  37.984  0.00  0.00    +0.000 C 
ATOM      9  C   UNL     1      23.822  11.432  37.676  0.00  0.00    +0.000 C 
ATOM     10  O   UNL     1      24.467  12.674  37.828  0.00  0.00    +0.000 OA
ATOM     11  C   UNL     1      24.102  11.098  36.199  0.00  0.00    +0.000 C 
ATOM     12  C   UNL     1      24.533  10.527  38.525  0.00  0.00    +0.000 C 
ENDROOT
BRANCH   1  15
ATOM     13  O   UNL     1      20.123   6.792  40.654  0.00  0.00    +0.000 OA
ATOM     14  C   UNL     1      19.659   7.934  40.417  0.00  0.00    +0.000 C 
ATOM     15  N   UNL     1      20.468   8.946  39.889  0.00  0.00    +0.000 NA
BRANCH  14  16
ATOM     16  C   UNL     1      18.234   8.196  40.706  0.00  0.00    +0.000 A 
ATOM     17  C   UNL     1      17.572   9.384  40.596  0.00  0.00    +0.000 A 
ATOM     18  C   UNL     1      16.280   9.408  40.906  0.00  0.00    +0.000 A 
ATOM     19  C   UNL     1      15.703   8.240  41.316  0.00  0.00    +0.000 A 
ATOM     20  S   UNL     1      17.010   7.144  41.247  0.00  0.00    +0.000 S 
ENDBRANCH  14  16
ENDBRANCH   1  15
TORSDOF 2
ENDMDL
