MODEL 1
REMARK VINA RESULT:      -6.5      0.000      0.000
REMARK  Name = 
REMARK  2 active torsions:
REMARK  status: ('A' for Active; 'I' for Inactive)
REMARK    1  A    between atoms: C_5  and  C_6
REMARK    2  A    between atoms: C_13  and  O_14
REMARK                            x       y       z     vdW  Elec       q    Type
REMARK                         _______ _______ _______ _____ _____    ______ ____
ROOT
ATOM      1  C   UNL     1      31.501  20.874   9.423  0.00  0.00    +0.000 A 
ATOM      2  C   UNL     1      32.705  20.458   9.953  0.00  0.00    +0.000 A 
ATOM      3  C   UNL     1      33.803  19.816   9.176  0.00  0.00    +0.000 C 
ATOM      4  N   UNL     1      32.706  20.733  11.279  0.00  0.00    +0.000 NA
ATOM      5  C   UNL     1      31.541  21.313  11.618  0.00  0.00    +0.000 A 
ATOM      6  C   UNL     1      30.998  21.796  12.797  0.00  0.00    +0.000 A 
ATOM      7  C   UNL     1      29.749  22.342  12.798  0.00  0.00    +0.000 A 
ATOM      8  C   UNL     1      28.970  22.448  11.664  0.00  0.00    +0.000 A 
ATOM      9  C   UNL     1      29.502  21.970  10.489  0.00  0.00    +0.000 A 
ATOM     10  C   UNL     1      30.778  21.410  10.482  0.00  0.00    +0.000 A 
ENDROOT
BRANCH   1  15
ATOM     11  C   UNL     1      28.904  18.818   4.235  0.00  0.00    +0.000 C 
ATOM     12  N   UNL     1      29.229  18.704   5.660  0.00  0.00    +0.000 NA
ATOM     13  C   UNL     1      30.001  19.750   6.294  0.00  0.00    +0.000 A 
ATOM     14  N   UNL     1      30.363  19.779   7.556  0.00  0.00    +0.000 NA
ATOM     15  C   UNL     1      31.056  20.775   8.009  0.00  0.00    +0.000 A 
ATOM     16  C   UNL     1      31.383  21.771   7.125  0.00  0.00    +0.000 A 
ATOM     17  S   UNL     1      30.655  21.195   5.673  0.00  0.00    +0.000 S 
ENDBRANCH   1  15
BRANCH   8  18
ATOM     18  O   UNL     1      27.688  23.020  11.720  0.00  0.00    +0.000 OA
ATOM     19  C   UNL     1      26.592  22.276  11.235  0.00  0.00    +0.000 C 
ENDBRANCH   8  18
TORSDOF 2
ENDMDL
MODEL 2
REMARK VINA RESULT:      -5.9     32.797     34.190
REMARK  Name = 
REMARK  2 active torsions:
REMARK  status: ('A' for Active; 'I' for Inactive)
REMARK    1  A    between atoms: C_5  and  C_6
REMARK    2  A    between atoms: C_13  and  O_14
REMARK                            x       y       z     vdW  Elec       q    Type
REMARK                         _______ _______ _______ _____ _____    ______ ____
ROOT
ATOM      1  C   UNL     1      33.058  -4.037  33.688  0.00  0.00    +0.000 A 
ATOM      2  C   UNL     1      32.251  -4.523  34.695  0.00  0.00    +0.000 A 
ATOM      3  C   UNL     1      31.885  -5.957  34.879  0.00  0.00    +0.000 C 
ATOM      4  N   UNL     1      31.859  -3.483  35.468  0.00  0.00    +0.000 NA
ATOM      5  C   UNL     1      32.389  -2.344  34.991  0.00  0.00    +0.000 A 
ATOM      6  C   UNL     1      32.335  -1.011  35.362  0.00  0.00    +0.000 A 
ATOM      7  C   UNL     1      33.011  -0.074  34.639  0.00  0.00    +0.000 A 
ATOM      8  C   UNL     1      33.768  -0.380  33.526  0.00  0.00    +0.000 A 
ATOM      9  C   UNL     1      33.826  -1.702  33.150  0.00  0.00    +0.000 A 
ATOM     10  C   UNL     1      33.137  -2.664  33.885  0.00  0.00    +0.000 A 
ENDROOT
BRANCH   1  15
ATOM     11  C   UNL     1      34.263  -6.597  28.221  0.00  0.00    +0.000 C 
ATOM     12  N   UNL     1      33.447  -5.776  29.121  0.00  0.00    +0.000 NA
ATOM     13  C   UNL     1      33.868  -5.600  30.493  0.00  0.00    +0.000 A 
ATOM     14  N   UNL     1      33.238  -4.897  31.406  0.00  0.00    +0.000 NA
ATOM     15  C   UNL     1      33.718  -4.814  32.606  0.00  0.00    +0.000 A 
ATOM     16  C   UNL     1      34.886  -5.482  32.867  0.00  0.00    +0.000 A 
ATOM     17  S   UNL     1      35.223  -6.198  31.337  0.00  0.00    +0.000 S 
ENDBRANCH   1  15
BRANCH   8  18
ATOM     18  O   UNL     1      34.445   0.626  32.815  0.00  0.00    +0.000 OA
ATOM     19  C   UNL     1      33.891   1.924  32.787  0.00  0.00    +0.000 C 
ENDBRANCH   8  18
TORSDOF 2
ENDMDL
MODEL 3
REMARK VINA RESULT:      -5.8     12.068     14.436
REMARK  Name = 
REMARK  2 active torsions:
REMARK  status: ('A' for Active; 'I' for Inactive)
REMARK    1  A    between atoms: C_5  and  C_6
REMARK    2  A    between atoms: C_13  and  O_14
REMARK                            x       y       z     vdW  Elec       q    Type
REMARK                         _______ _______ _______ _____ _____    ______ ____
ROOT
ATOM      1  C   UNL     1      28.984  24.651  22.513  0.00  0.00    +0.000 A 
ATOM      2  C   UNL     1      27.922  23.769  22.525  0.00  0.00    +0.000 A 
ATOM      3  C   UNL     1      26.725  23.862  21.641  0.00  0.00    +0.000 C 
ATOM      4  N   UNL     1      28.162  22.825  23.466  0.00  0.00    +0.000 NA
ATOM      5  C   UNL     1      29.342  23.071  24.060  0.00  0.00    +0.000 A 
ATOM      6  C   UNL     1      30.078  22.460  25.061  0.00  0.00    +0.000 A 
ATOM      7  C   UNL     1      31.279  22.982  25.440  0.00  0.00    +0.000 A 
ATOM      8  C   UNL     1      31.823  24.116  24.870  0.00  0.00    +0.000 A 
ATOM      9  C   UNL     1      31.098  24.729  23.875  0.00  0.00    +0.000 A 
ATOM     10  C   UNL     1      29.870  24.200  23.484  0.00  0.00    +0.000 A 
ENDROOT
BRANCH   1  15
ATOM     11  C   UNL     1      30.545  28.266  17.783  0.00  0.00    +0.000 C 
ATOM     12  N   UNL     1      30.488  26.970  18.466  0.00  0.00    +0.000 NA
ATOM     13  C   UNL     1      29.862  26.883  19.766  0.00  0.00    +0.000 A 
ATOM     14  N   UNL     1      29.741  25.793  20.488  0.00  0.00    +0.000 NA
ATOM     15  C   UNL     1      29.156  25.843  21.643  0.00  0.00    +0.000 A 
ATOM     16  C   UNL     1      28.683  27.060  22.060  0.00  0.00    +0.000 A 
ATOM     17  S   UNL     1      29.120  28.072  20.735  0.00  0.00    +0.000 S 
ENDBRANCH   1  15
BRANCH   8  18
ATOM     18  O   UNL     1      33.066  24.612  25.298  0.00  0.00    +0.000 OA
ATOM     19  C   UNL     1      34.221  24.269  24.564  0.00  0.00    +0.000 C 
ENDBRANCH   8  18
TORSDOF 2
ENDMDL
MODEL 4
REMARK VINA RESULT:      -5.8     34.873     35.477
REMARK  Name = 
REMARK  2 active torsions:
REMARK  status: ('A' for Active; 'I' for Inactive)
REMARK    1  A    between atoms: C_5  and  C_6
REMARK    2  A    between atoms: C_13  and  O_14
REMARK                            x       y       z     vdW  Elec       q    Type
REMARK                         _______ _______ _______ _____ _____    ______ ____
ROOT
ATOM      1  C   UNL     1      21.195  -7.809  25.357  0.00  0.00    +0.000 A 
ATOM      2  C   UNL     1      21.556  -6.595  24.808  0.00  0.00    +0.000 A 
ATOM      3  C   UNL     1      22.756  -6.367  23.954  0.00  0.00    +0.000 C 
ATOM      4  N   UNL     1      20.640  -5.671  25.180  0.00  0.00    +0.000 NA
ATOM      5  C   UNL     1      19.702  -6.250  25.949  0.00  0.00    +0.000 A 
ATOM      6  C   UNL     1      18.559  -5.809  26.595  0.00  0.00    +0.000 A 
ATOM      7  C   UNL     1      17.804  -6.684  27.318  0.00  0.00    +0.000 A 
ATOM      8  C   UNL     1      18.117  -8.022  27.450  0.00  0.00    +0.000 A 
ATOM      9  C   UNL     1      19.251  -8.468  26.812  0.00  0.00    +0.000 A 
ATOM     10  C   UNL     1      20.027  -7.578  26.072  0.00  0.00    +0.000 A 
ENDROOT
BRANCH   1  15
ATOM     11  C   UNL     1      25.082 -12.487  26.302  0.00  0.00    +0.000 C 
ATOM     12  N   UNL     1      24.530 -11.169  26.629  0.00  0.00    +0.000 NA
ATOM     13  C   UNL     1      23.451 -10.636  25.827  0.00  0.00    +0.000 A 
ATOM     14  N   UNL     1      22.864  -9.475  26.004  0.00  0.00    +0.000 NA
ATOM     15  C   UNL     1      21.904  -9.108  25.216  0.00  0.00    +0.000 A 
ATOM     16  C   UNL     1      21.542  -9.972  24.214  0.00  0.00    +0.000 A 
ATOM     17  S   UNL     1      22.631 -11.281  24.480  0.00  0.00    +0.000 S 
ENDBRANCH   1  15
BRANCH   8  18
ATOM     18  O   UNL     1      17.304  -8.882  28.208  0.00  0.00    +0.000 OA
ATOM     19  C   UNL     1      17.875  -9.560  29.306  0.00  0.00    +0.000 C 
ENDBRANCH   8  18
TORSDOF 2
ENDMDL
MODEL 5
REMARK VINA RESULT:      -5.8      3.118      5.431
REMARK  Name = 
REMARK  2 active torsions:
REMARK  status: ('A' for Active; 'I' for Inactive)
REMARK    1  A    between atoms: C_5  and  C_6
REMARK    2  A    between atoms: C_13  and  O_14
REMARK                            x       y       z     vdW  Elec       q    Type
REMARK                         _______ _______ _______ _____ _____    ______ ____
ROOT
ATOM      1  C   UNL     1      32.988  20.680  10.295  0.00  0.00    +0.000 A 
ATOM      2  C   UNL     1      32.711  20.356   8.983  0.00  0.00    +0.000 A 
ATOM      3  C   UNL     1      33.696  19.790   8.017  0.00  0.00    +0.000 C 
ATOM      4  N   UNL     1      31.410  20.639   8.738  0.00  0.00    +0.000 NA
ATOM      5  C   UNL     1      30.841  21.135   9.851  0.00  0.00    +0.000 A 
ATOM      6  C   UNL     1      29.574  21.584  10.182  0.00  0.00    +0.000 A 
ATOM      7  C   UNL     1      29.320  22.038  11.442  0.00  0.00    +0.000 A 
ATOM      8  C   UNL     1      30.276  22.078  12.438  0.00  0.00    +0.000 A 
ATOM      9  C   UNL     1      31.537  21.634  12.116  0.00  0.00    +0.000 A 
ATOM     10  C   UNL     1      31.802  21.169  10.830  0.00  0.00    +0.000 A 
ENDROOT
BRANCH   1  15
ATOM     11  C   UNL     1      37.514  18.462  13.827  0.00  0.00    +0.000 C 
ATOM     12  N   UNL     1      36.177  18.390  13.230  0.00  0.00    +0.000 NA
ATOM     13  C   UNL     1      35.734  19.458  12.361  0.00  0.00    +0.000 A 
ATOM     14  N   UNL     1      34.568  19.526  11.762  0.00  0.00    +0.000 NA
ATOM     15  C   UNL     1      34.286  20.538  11.004  0.00  0.00    +0.000 A 
ATOM     16  C   UNL     1      35.243  21.510  10.866  0.00  0.00    +0.000 A 
ATOM     17  S   UNL     1      36.510  20.888  11.855  0.00  0.00    +0.000 S 
ENDBRANCH   1  15
BRANCH   8  18
ATOM     18  O   UNL     1      29.961  22.556  13.721  0.00  0.00    +0.000 OA
ATOM     19  C   UNL     1      28.967  23.551  13.848  0.00  0.00    +0.000 C 
ENDBRANCH   8  18
TORSDOF 2
ENDMDL
MODEL 6
REMARK VINA RESULT:      -5.7     35.347     36.155
REMARK  Name = 
REMARK  2 active torsions:
REMARK  status: ('A' for Active; 'I' for Inactive)
REMARK    1  A    between atoms: C_5  and  C_6
REMARK    2  A    between atoms: C_13  and  O_14
REMARK                            x       y       z     vdW  Elec       q    Type
REMARK                         _______ _______ _______ _____ _____    ______ ____
ROOT
ATOM      1  C   UNL     1      19.547  -7.553  26.342  0.00  0.00    +0.000 A 
ATOM      2  C   UNL     1      19.373  -6.198  26.148  0.00  0.00    +0.000 A 
ATOM      3  C   UNL     1      18.187  -5.416  26.602  0.00  0.00    +0.000 C 
ATOM      4  N   UNL     1      20.452  -5.720  25.485  0.00  0.00    +0.000 NA
ATOM      5  C   UNL     1      21.314  -6.723  25.246  0.00  0.00    +0.000 A 
ATOM      6  C   UNL     1      22.547  -6.823  24.625  0.00  0.00    +0.000 A 
ATOM      7  C   UNL     1      23.176  -8.031  24.550  0.00  0.00    +0.000 A 
ATOM      8  C   UNL     1      22.645  -9.193  25.072  0.00  0.00    +0.000 A 
ATOM      9  C   UNL     1      21.420  -9.101  25.691  0.00  0.00    +0.000 A 
ATOM     10  C   UNL     1      20.772  -7.871  25.770  0.00  0.00    +0.000 A 
ENDROOT
BRANCH   1  15
ATOM     11  C   UNL     1      16.623 -10.747  30.716  0.00  0.00    +0.000 C 
ATOM     12  N   UNL     1      17.618  -9.769  30.266  0.00  0.00    +0.000 NA
ATOM     13  C   UNL     1      17.751  -9.496  28.852  0.00  0.00    +0.000 A 
ATOM     14  N   UNL     1      18.595  -8.650  28.309  0.00  0.00    +0.000 NA
ATOM     15  C   UNL     1      18.619  -8.493  27.024  0.00  0.00    +0.000 A 
ATOM     16  C   UNL     1      17.741  -9.237  26.279  0.00  0.00    +0.000 A 
ATOM     17  S   UNL     1      16.923 -10.131  27.504  0.00  0.00    +0.000 S 
ENDBRANCH   1  15
BRANCH   8  18
ATOM     18  O   UNL     1      23.336 -10.412  24.967  0.00  0.00    +0.000 OA
ATOM     19  C   UNL     1      24.273 -10.746  25.968  0.00  0.00    +0.000 C 
ENDBRANCH   8  18
TORSDOF 2
ENDMDL
MODEL 7
REMARK VINA RESULT:      -5.6     14.313     17.661
REMARK  Name = 
REMARK  2 active torsions:
REMARK  status: ('A' for Active; 'I' for Inactive)
REMARK    1  A    between atoms: C_5  and  C_6
REMARK    2  A    between atoms: C_13  and  O_14
REMARK                            x       y       z     vdW  Elec       q    Type
REMARK                         _______ _______ _______ _____ _____    ______ ____
ROOT
ATOM      1  C   UNL     1      27.938  23.538  26.351  0.00  0.00    +0.000 A 
ATOM      2  C   UNL     1      26.695  23.425  26.939  0.00  0.00    +0.000 A 
ATOM      3  C   UNL     1      26.448  23.348  28.407  0.00  0.00    +0.000 C 
ATOM      4  N   UNL     1      25.760  23.397  25.959  0.00  0.00    +0.000 NA
ATOM      5  C   UNL     1      26.362  23.489  24.761  0.00  0.00    +0.000 A 
ATOM      6  C   UNL     1      25.924  23.510  23.448  0.00  0.00    +0.000 A 
ATOM      7  C   UNL     1      26.826  23.616  22.430  0.00  0.00    +0.000 A 
ATOM      8  C   UNL     1      28.188  23.706  22.635  0.00  0.00    +0.000 A 
ATOM      9  C   UNL     1      28.631  23.686  23.936  0.00  0.00    +0.000 A 
ATOM     10  C   UNL     1      27.715  23.577  24.980  0.00  0.00    +0.000 A 
ENDROOT
BRANCH   1  15
ATOM     11  C   UNL     1      33.095  21.918  29.293  0.00  0.00    +0.000 C 
ATOM     12  N   UNL     1      31.809  21.612  28.659  0.00  0.00    +0.000 NA
ATOM     13  C   UNL     1      31.026  22.689  28.095  0.00  0.00    +0.000 A 
ATOM     14  N   UNL     1      29.862  22.562  27.501  0.00  0.00    +0.000 NA
ATOM     15  C   UNL     1      29.256  23.607  27.035  0.00  0.00    +0.000 A 
ATOM     16  C   UNL     1      29.875  24.820  27.191  0.00  0.00    +0.000 A 
ATOM     17  S   UNL     1      31.319  24.365  28.014  0.00  0.00    +0.000 S 
ENDBRANCH   1  15
BRANCH   8  18
ATOM     18  O   UNL     1      29.075  23.814  21.549  0.00  0.00    +0.000 OA
ATOM     19  C   UNL     1      29.382  25.099  21.052  0.00  0.00    +0.000 C 
ENDBRANCH   8  18
TORSDOF 2
ENDMDL
MODEL 8
REMARK VINA RESULT:      -5.6     12.774     15.722
REMARK  Name = 
REMARK  2 active torsions:
REMARK  status: ('A' for Active; 'I' for Inactive)
REMARK    1  A    between atoms: C_5  and  C_6
REMARK    2  A    between atoms: C_13  and  O_14
REMARK                            x       y       z     vdW  Elec       q    Type
REMARK                         _______ _______ _______ _____ _____    ______ ____
ROOT
ATOM      1  C   UNL     1      28.047  24.009  24.219  0.00  0.00    +0.000 A 
ATOM      2  C   UNL     1      26.902  23.283  24.475  0.00  0.00    +0.000 A 
ATOM      3  C   UNL     1      25.630  23.394  23.705  0.00  0.00    +0.000 C 
ATOM      4  N   UNL     1      27.140  22.469  25.531  0.00  0.00    +0.000 NA
ATOM      5  C   UNL     1      28.401  22.648  25.961  0.00  0.00    +0.000 A 
ATOM      6  C   UNL     1      29.173  22.106  26.974  0.00  0.00    +0.000 A 
ATOM      7  C   UNL     1      30.460  22.521  27.147  0.00  0.00    +0.000 A 
ATOM      8  C   UNL     1      31.059  23.476  26.351  0.00  0.00    +0.000 A 
ATOM      9  C   UNL     1      30.299  24.020  25.342  0.00  0.00    +0.000 A 
ATOM     10  C   UNL     1      28.983  23.600  25.161  0.00  0.00    +0.000 A 
ENDROOT
BRANCH   1  15
ATOM     11  C   UNL     1      29.882  26.752  19.024  0.00  0.00    +0.000 C 
ATOM     12  N   UNL     1      29.814  25.605  19.934  0.00  0.00    +0.000 NA
ATOM     13  C   UNL     1      29.079  25.730  21.174  0.00  0.00    +0.000 A 
ATOM     14  N   UNL     1      28.936  24.791  22.079  0.00  0.00    +0.000 NA
ATOM     15  C   UNL     1      28.251  25.025  23.153  0.00  0.00    +0.000 A 
ATOM     16  C   UNL     1      27.699  26.272  23.291  0.00  0.00    +0.000 A 
ATOM     17  S   UNL     1      28.213  27.039  21.837  0.00  0.00    +0.000 S 
ENDBRANCH   1  15
BRANCH   8  18
ATOM     18  O   UNL     1      32.390  23.868  26.573  0.00  0.00    +0.000 OA
ATOM     19  C   UNL     1      33.086  24.520  25.532  0.00  0.00    +0.000 C 
ENDBRANCH   8  18
TORSDOF 2
ENDMDL
MODEL 9
REMARK VINA RESULT:      -5.5     31.800     33.789
REMARK  Name = 
REMARK  2 active torsions:
REMARK  status: ('A' for Active; 'I' for Inactive)
REMARK    1  A    between atoms: C_5  and  C_6
REMARK    2  A    between atoms: C_13  and  O_14
REMARK                            x       y       z     vdW  Elec       q    Type
REMARK                         _______ _______ _______ _____ _____    ______ ____
ROOT
ATOM      1  C   UNL     1      33.725   0.490  35.278  0.00  0.00    +0.000 A 
ATOM      2  C   UNL     1      33.508  -0.209  34.108  0.00  0.00    +0.000 A 
ATOM      3  C   UNL     1      33.416  -1.694  34.005  0.00  0.00    +0.000 C 
ATOM      4  N   UNL     1      33.395   0.680  33.094  0.00  0.00    +0.000 NA
ATOM      5  C   UNL     1      33.533   1.929  33.573  0.00  0.00    +0.000 A 
ATOM      6  C   UNL     1      33.511   3.196  33.017  0.00  0.00    +0.000 A 
ATOM      7  C   UNL     1      33.689   4.291  33.809  0.00  0.00    +0.000 A 
ATOM      8  C   UNL     1      33.896   4.213  35.172  0.00  0.00    +0.000 A 
ATOM      9  C   UNL     1      33.919   2.957  35.732  0.00  0.00    +0.000 A 
ATOM     10  C   UNL     1      33.738   1.834  34.927  0.00  0.00    +0.000 A 
ENDROOT
BRANCH   1  15
ATOM     11  C   UNL     1      32.745  -1.012  41.166  0.00  0.00    +0.000 C 
ATOM     12  N   UNL     1      32.353  -0.379  39.903  0.00  0.00    +0.000 NA
ATOM     13  C   UNL     1      33.246  -0.454  38.768  0.00  0.00    +0.000 A 
ATOM     14  N   UNL     1      33.026   0.065  37.583  0.00  0.00    +0.000 NA
ATOM     15  C   UNL     1      33.907  -0.071  36.642  0.00  0.00    +0.000 A 
ATOM     16  C   UNL     1      35.050  -0.766  36.942  0.00  0.00    +0.000 A 
ATOM     17  S   UNL     1      34.774  -1.186  38.590  0.00  0.00    +0.000 S 
ENDBRANCH   1  15
BRANCH   8  18
ATOM     18  O   UNL     1      34.074   5.374  35.943  0.00  0.00    +0.000 OA
ATOM     19  C   UNL     1      33.531   5.412  37.245  0.00  0.00    +0.000 C 
ENDBRANCH   8  18
TORSDOF 2
ENDMDL
MODEL 10
REMARK VINA RESULT:      -5.4     15.957     19.091
REMARK  Name = 
REMARK  2 active torsions:
REMARK  status: ('A' for Active; 'I' for Inactive)
REMARK    1  A    between atoms: C_5  and  C_6
REMARK    2  A    between atoms: C_13  and  O_14
REMARK                            x       y       z     vdW  Elec       q    Type
REMARK                         _______ _______ _______ _____ _____    ______ ____
ROOT
ATOM      1  C   UNL     1      29.286  23.047  27.803  0.00  0.00    +0.000 A 
ATOM      2  C   UNL     1      30.616  22.848  28.115  0.00  0.00    +0.000 A 
ATOM      3  C   UNL     1      31.176  22.828  29.496  0.00  0.00    +0.000 C 
ATOM      4  N   UNL     1      31.303  22.680  26.961  0.00  0.00    +0.000 NA
ATOM      5  C   UNL     1      30.459  22.763  25.918  0.00  0.00    +0.000 A 
ATOM      6  C   UNL     1      30.594  22.672  24.543  0.00  0.00    +0.000 A 
ATOM      7  C   UNL     1      29.500  22.807  23.740  0.00  0.00    +0.000 A 
ATOM      8  C   UNL     1      28.229  23.035  24.228  0.00  0.00    +0.000 A 
ATOM      9  C   UNL     1      28.087  23.127  25.593  0.00  0.00    +0.000 A 
ATOM     10  C   UNL     1      29.201  22.990  26.418  0.00  0.00    +0.000 A 
ENDROOT
BRANCH   1  15
ATOM     11  C   UNL     1      25.153  25.823  31.422  0.00  0.00    +0.000 C 
ATOM     12  N   UNL     1      26.282  25.840  30.487  0.00  0.00    +0.000 NA
ATOM     13  C   UNL     1      26.794  24.588  29.975  0.00  0.00    +0.000 A 
ATOM     14  N   UNL     1      27.795  24.454  29.137  0.00  0.00    +0.000 NA
ATOM     15  C   UNL     1      28.163  23.273  28.750  0.00  0.00    +0.000 A 
ATOM     16  C   UNL     1      27.470  22.200  29.249  0.00  0.00    +0.000 A 
ATOM     17  S   UNL     1      26.314  22.978  30.262  0.00  0.00    +0.000 S 
ENDBRANCH   1  15
BRANCH   8  18
ATOM     18  O   UNL     1      27.135  23.167  23.355  0.00  0.00    +0.000 OA
ATOM     19  C   UNL     1      25.855  23.390  23.905  0.00  0.00    +0.000 C 
ENDBRANCH   8  18
TORSDOF 2
ENDMDL
