MODEL 1
REMARK VINA RESULT:      -8.6      0.000      0.000
REMARK  Name = 
REMARK  7 active torsions:
REMARK  status: ('A' for Active; 'I' for Inactive)
REMARK    1  A    between atoms: C_5  and  S_6
REMARK    2  A    between atoms: S_6  and  C_7
REMARK    3  A    between atoms: C_8  and  N_9
REMARK    4  A    between atoms: N_9  and  C_10
REMARK    5  A    between atoms: C_13  and  C_14
REMARK    6  A    between atoms: N_21  and  C_22
REMARK    7  A    between atoms: C_22  and  C_23
REMARK                            x       y       z     vdW  Elec       q    Type
REMARK                         _______ _______ _______ _____ _____    ______ ____
ROOT
ATOM      1  C   UNL     1      36.428   4.046  14.739  0.00  0.00    +0.000 C 
ATOM      2  C   UNL     1      37.734   3.762  14.933  0.00  0.00    +0.000 C 
ATOM      3  C   UNL     1      37.840   2.325  15.133  0.00  0.00    +0.000 C 
ATOM      4  O   UNL     1      38.891   1.652  15.346  0.00  0.00    +0.000 OA
ATOM      5  N   UNL     1      36.563   1.714  15.058  0.00  0.00    +0.000 N 
ATOM      6  C   UNL     1      35.658   2.811  14.807  0.00  0.00    +0.000 C 
ATOM      7  O   UNL     1      34.409   2.692  14.672  0.00  0.00    +0.000 OA
ENDROOT
BRANCH   1   8
ATOM      8  S   UNL     1      35.929   5.728  14.461  0.00  0.00    +0.000 S 
BRANCH   8  13
ATOM      9  C   UNL     1      34.111   7.319   8.945  0.00  0.00    +0.000 C 
ATOM     10  C   UNL     1      34.601   6.901  10.277  0.00  0.00    +0.000 A 
ATOM     11  C   UNL     1      35.740   6.137  10.427  0.00  0.00    +0.000 A 
ATOM     12  C   UNL     1      36.176   5.761  11.670  0.00  0.00    +0.000 A 
ATOM     13  C   UNL     1      35.510   6.122  12.800  0.00  0.00    +0.000 A 
ATOM     14  C   UNL     1      34.352   6.899  12.641  0.00  0.00    +0.000 A 
ATOM     15  C   UNL     1      33.926   7.267  11.415  0.00  0.00    +0.000 A 
ENDBRANCH   8  13
ENDBRANCH   1   8
BRANCH   2  16
ATOM     16  N   UNL     1      38.834   4.686  14.946  0.00  0.00    +0.000 NA
BRANCH  16  17
ATOM     17  C   UNL     1      39.299   5.154  16.210  0.00  0.00    +0.000 A 
ATOM     18  C   UNL     1      38.630   4.846  17.378  0.00  0.00    +0.000 A 
ATOM     19  C   UNL     1      39.082   5.300  18.612  0.00  0.00    +0.000 A 
ATOM     20  C   UNL     1      40.216   6.076  18.715  0.00  0.00    +0.000 A 
ATOM     21  C   UNL     1      40.894   6.391  17.559  0.00  0.00    +0.000 A 
ATOM     22  C   UNL     1      40.431   5.930  16.331  0.00  0.00    +0.000 A 
BRANCH  20  23
ATOM     23  C   UNL     1      40.735   6.585  20.019  0.00  0.00    +0.000 C 
ATOM     24  C   UNL     1      40.419   8.036  20.206  0.00  0.00    +0.000 C 
ATOM     25  C   UNL     1      42.237   6.400  20.105  0.00  0.00    +0.000 C 
ENDBRANCH  20  23
ENDBRANCH  16  17
ENDBRANCH   2  16
BRANCH   5  26
ATOM     26  C   UNL     1      36.164   0.344  15.189  0.00  0.00    +0.000 C 
BRANCH  26  27
ATOM     27  C   UNL     1      36.257  -0.156  16.577  0.00  0.00    +0.000 A 
ATOM     28  C   UNL     1      35.480   0.277  17.613  0.00  0.00    +0.000 A 
ATOM     29  C   UNL     1      35.653  -0.261  18.873  0.00  0.00    +0.000 A 
ATOM     30  C   UNL     1      36.595  -1.237  19.138  0.00  0.00    +0.000 A 
ATOM     31  C   UNL     1      37.370  -1.666  18.093  0.00  0.00    +0.000 A 
ATOM     32  C   UNL     1      37.198  -1.129  16.838  0.00  0.00    +0.000 A 
ENDBRANCH  26  27
ENDBRANCH   5  26
TORSDOF 7
ENDMDL
MODEL 2
REMARK VINA RESULT:      -8.6      0.934      6.847
REMARK  Name = 
REMARK  7 active torsions:
REMARK  status: ('A' for Active; 'I' for Inactive)
REMARK    1  A    between atoms: C_5  and  S_6
REMARK    2  A    between atoms: S_6  and  C_7
REMARK    3  A    between atoms: C_8  and  N_9
REMARK    4  A    between atoms: N_9  and  C_10
REMARK    5  A    between atoms: C_13  and  C_14
REMARK    6  A    between atoms: N_21  and  C_22
REMARK    7  A    between atoms: C_22  and  C_23
REMARK                            x       y       z     vdW  Elec       q    Type
REMARK                         _______ _______ _______ _____ _____    ______ ____
ROOT
ATOM      1  C   UNL     1      37.746   3.785  14.893  0.00  0.00    +0.000 C 
ATOM      2  C   UNL     1      36.467   4.212  14.815  0.00  0.00    +0.000 C 
ATOM      3  C   UNL     1      35.612   3.039  14.923  0.00  0.00    +0.000 C 
ATOM      4  O   UNL     1      34.347   3.003  14.897  0.00  0.00    +0.000 OA
ATOM      5  N   UNL     1      36.392   1.864  15.070  0.00  0.00    +0.000 N 
ATOM      6  C   UNL     1      37.756   2.337  15.051  0.00  0.00    +0.000 C 
ATOM      7  O   UNL     1      38.772   1.596  15.157  0.00  0.00    +0.000 OA
ENDROOT
BRANCH   1   8
ATOM      8  S   UNL     1      39.070   4.965  14.796  0.00  0.00    +0.000 S 
BRANCH   8  13
ATOM      9  C   UNL     1      40.942   6.542  20.297  0.00  0.00    +0.000 C 
ATOM     10  C   UNL     1      40.528   6.178  18.924  0.00  0.00    +0.000 A 
ATOM     11  C   UNL     1      41.293   6.504  17.823  0.00  0.00    +0.000 A 
ATOM     12  C   UNL     1      40.891   6.157  16.560  0.00  0.00    +0.000 A 
ATOM     13  C   UNL     1      39.730   5.483  16.340  0.00  0.00    +0.000 A 
ATOM     14  C   UNL     1      38.956   5.155  17.464  0.00  0.00    +0.000 A 
ATOM     15  C   UNL     1      39.356   5.498  18.706  0.00  0.00    +0.000 A 
ENDBRANCH   8  13
ENDBRANCH   1   8
BRANCH   2  16
ATOM     16  N   UNL     1      36.007   5.563  14.656  0.00  0.00    +0.000 NA
BRANCH  16  17
ATOM     17  C   UNL     1      35.573   5.973  13.362  0.00  0.00    +0.000 A 
ATOM     18  C   UNL     1      34.400   6.679  13.190  0.00  0.00    +0.000 A 
ATOM     19  C   UNL     1      33.974   7.081  11.929  0.00  0.00    +0.000 A 
ATOM     20  C   UNL     1      34.708   6.787  10.801  0.00  0.00    +0.000 A 
ATOM     21  C   UNL     1      35.881   6.083  10.956  0.00  0.00    +0.000 A 
ATOM     22  C   UNL     1      36.296   5.688  12.223  0.00  0.00    +0.000 A 
BRANCH  20  23
ATOM     23  C   UNL     1      34.288   7.198   9.428  0.00  0.00    +0.000 C 
ATOM     24  C   UNL     1      34.884   6.308   8.383  0.00  0.00    +0.000 C 
ATOM     25  C   UNL     1      34.707   8.627   9.146  0.00  0.00    +0.000 C 
ENDBRANCH  20  23
ENDBRANCH  16  17
ENDBRANCH   2  16
BRANCH   5  26
ATOM     26  C   UNL     1      36.009   0.490  15.211  0.00  0.00    +0.000 C 
BRANCH  26  27
ATOM     27  C   UNL     1      36.147  -0.011  16.595  0.00  0.00    +0.000 A 
ATOM     28  C   UNL     1      35.453   0.469  17.669  0.00  0.00    +0.000 A 
ATOM     29  C   UNL     1      35.662  -0.075  18.920  0.00  0.00    +0.000 A 
ATOM     30  C   UNL     1      36.560  -1.102  19.140  0.00  0.00    +0.000 A 
ATOM     31  C   UNL     1      37.252  -1.578  18.057  0.00  0.00    +0.000 A 
ATOM     32  C   UNL     1      37.044  -1.035  16.811  0.00  0.00    +0.000 A 
ENDBRANCH  26  27
ENDBRANCH   5  26
TORSDOF 7
ENDMDL
MODEL 3
REMARK VINA RESULT:      -8.3      3.448      7.985
REMARK  Name = 
REMARK  7 active torsions:
REMARK  status: ('A' for Active; 'I' for Inactive)
REMARK    1  A    between atoms: C_5  and  S_6
REMARK    2  A    between atoms: S_6  and  C_7
REMARK    3  A    between atoms: C_8  and  N_9
REMARK    4  A    between atoms: N_9  and  C_10
REMARK    5  A    between atoms: C_13  and  C_14
REMARK    6  A    between atoms: N_21  and  C_22
REMARK    7  A    between atoms: C_22  and  C_23
REMARK                            x       y       z     vdW  Elec       q    Type
REMARK                         _______ _______ _______ _____ _____    ______ ____
ROOT
ATOM      1  C   UNL     1      37.306   1.654  15.118  0.00  0.00    +0.000 C 
ATOM      2  C   UNL     1      38.271   1.902  14.207  0.00  0.00    +0.000 C 
ATOM      3  C   UNL     1      38.615   3.311  14.313  0.00  0.00    +0.000 C 
ATOM      4  O   UNL     1      39.475   3.948  13.637  0.00  0.00    +0.000 OA
ATOM      5  N   UNL     1      37.838   3.941  15.318  0.00  0.00    +0.000 N 
ATOM      6  C   UNL     1      37.000   2.885  15.834  0.00  0.00    +0.000 C 
ATOM      7  O   UNL     1      36.151   3.031  16.756  0.00  0.00    +0.000 OA
ENDROOT
BRANCH   1   8
ATOM      8  S   UNL     1      36.642   0.013  15.266  0.00  0.00    +0.000 S 
BRANCH   8  13
ATOM      9  C   UNL     1      37.687  -2.626  20.576  0.00  0.00    +0.000 C 
ATOM     10  C   UNL     1      37.471  -2.009  19.249  0.00  0.00    +0.000 A 
ATOM     11  C   UNL     1      38.227  -2.362  18.150  0.00  0.00    +0.000 A 
ATOM     12  C   UNL     1      38.010  -1.778  16.931  0.00  0.00    +0.000 A 
ATOM     13  C   UNL     1      37.049  -0.832  16.752  0.00  0.00    +0.000 A 
ATOM     14  C   UNL     1      36.284  -0.477  17.873  0.00  0.00    +0.000 A 
ATOM     15  C   UNL     1      36.500  -1.055  19.073  0.00  0.00    +0.000 A 
ENDBRANCH   8  13
ENDBRANCH   1   8
BRANCH   2  16
ATOM     16  N   UNL     1      38.865   0.969  13.290  0.00  0.00    +0.000 NA
BRANCH  16  17
ATOM     17  C   UNL     1      40.132   0.411  13.631  0.00  0.00    +0.000 A 
ATOM     18  C   UNL     1      41.309   1.047  13.292  0.00  0.00    +0.000 A 
ATOM     19  C   UNL     1      42.546   0.507  13.624  0.00  0.00    +0.000 A 
ATOM     20  C   UNL     1      42.644  -0.687  14.305  0.00  0.00    +0.000 A 
ATOM     21  C   UNL     1      41.478  -1.333  14.651  0.00  0.00    +0.000 A 
ATOM     22  C   UNL     1      40.247  -0.781  14.313  0.00  0.00    +0.000 A 
BRANCH  20  23
ATOM     23  C   UNL     1      43.950  -1.303  14.680  0.00  0.00    +0.000 C 
ATOM     24  C   UNL     1      44.781  -0.369  15.503  0.00  0.00    +0.000 C 
ATOM     25  C   UNL     1      44.735  -1.690  13.442  0.00  0.00    +0.000 C 
ENDBRANCH  20  23
ENDBRANCH  16  17
ENDBRANCH   2  16
BRANCH   5  26
ATOM     26  C   UNL     1      37.817   5.297  15.782  0.00  0.00    +0.000 C 
BRANCH  26  27
ATOM     27  C   UNL     1      38.907   5.600  16.735  0.00  0.00    +0.000 A 
ATOM     28  C   UNL     1      40.161   6.005  16.377  0.00  0.00    +0.000 A 
ATOM     29  C   UNL     1      41.103   6.261  17.354  0.00  0.00    +0.000 A 
ATOM     30  C   UNL     1      40.829   6.124  18.701  0.00  0.00    +0.000 A 
ATOM     31  C   UNL     1      39.568   5.718  19.050  0.00  0.00    +0.000 A 
ATOM     32  C   UNL     1      38.629   5.462  18.078  0.00  0.00    +0.000 A 
ENDBRANCH  26  27
ENDBRANCH   5  26
TORSDOF 7
ENDMDL
MODEL 4
REMARK VINA RESULT:      -8.3      2.260      6.327
REMARK  Name = 
REMARK  7 active torsions:
REMARK  status: ('A' for Active; 'I' for Inactive)
REMARK    1  A    between atoms: C_5  and  S_6
REMARK    2  A    between atoms: S_6  and  C_7
REMARK    3  A    between atoms: C_8  and  N_9
REMARK    4  A    between atoms: N_9  and  C_10
REMARK    5  A    between atoms: C_13  and  C_14
REMARK    6  A    between atoms: N_21  and  C_22
REMARK    7  A    between atoms: C_22  and  C_23
REMARK                            x       y       z     vdW  Elec       q    Type
REMARK                         _______ _______ _______ _____ _____    ______ ____
ROOT
ATOM      1  C   UNL     1      36.393   5.725  14.347  0.00  0.00    +0.000 C 
ATOM      2  C   UNL     1      36.736   4.422  14.256  0.00  0.00    +0.000 C 
ATOM      3  C   UNL     1      38.136   4.314  14.639  0.00  0.00    +0.000 C 
ATOM      4  O   UNL     1      38.843   3.266  14.688  0.00  0.00    +0.000 OA
ATOM      5  N   UNL     1      38.661   5.588  14.973  0.00  0.00    +0.000 N 
ATOM      6  C   UNL     1      37.551   6.491  14.788  0.00  0.00    +0.000 C 
ATOM      7  O   UNL     1      37.602   7.737  14.983  0.00  0.00    +0.000 OA
ENDROOT
BRANCH   1   8
ATOM      8  S   UNL     1      34.736   6.224  13.948  0.00  0.00    +0.000 S 
BRANCH   8  13
ATOM      9  C   UNL     1      33.824  12.175  13.805  0.00  0.00    +0.000 C 
ATOM     10  C   UNL     1      34.031  10.713  13.894  0.00  0.00    +0.000 A 
ATOM     11  C   UNL     1      33.782  10.011  15.055  0.00  0.00    +0.000 A 
ATOM     12  C   UNL     1      33.980   8.657  15.115  0.00  0.00    +0.000 A 
ATOM     13  C   UNL     1      34.429   7.952  14.041  0.00  0.00    +0.000 A 
ATOM     14  C   UNL     1      34.682   8.671  12.863  0.00  0.00    +0.000 A 
ATOM     15  C   UNL     1      34.485  10.005  12.808  0.00  0.00    +0.000 A 
ENDBRANCH   8  13
ENDBRANCH   1   8
BRANCH   2  16
ATOM     16  N   UNL     1      35.897   3.326  13.858  0.00  0.00    +0.000 NA
BRANCH  16  17
ATOM     17  C   UNL     1      35.731   2.245  14.772  0.00  0.00    +0.000 A 
ATOM     18  C   UNL     1      36.257   0.997  14.509  0.00  0.00    +0.000 A 
ATOM     19  C   UNL     1      36.097  -0.059  15.399  0.00  0.00    +0.000 A 
ATOM     20  C   UNL     1      35.405   0.101  16.579  0.00  0.00    +0.000 A 
ATOM     21  C   UNL     1      34.874   1.341  16.856  0.00  0.00    +0.000 A 
ATOM     22  C   UNL     1      35.042   2.389  15.957  0.00  0.00    +0.000 A 
BRANCH  20  23
ATOM     23  C   UNL     1      35.208  -1.004  17.563  0.00  0.00    +0.000 C 
ATOM     24  C   UNL     1      33.815  -1.548  17.506  0.00  0.00    +0.000 C 
ATOM     25  C   UNL     1      35.485  -0.522  18.973  0.00  0.00    +0.000 C 
ENDBRANCH  20  23
ENDBRANCH  16  17
ENDBRANCH   2  16
BRANCH   5  26
ATOM     26  C   UNL     1      39.970   5.984  15.403  0.00  0.00    +0.000 C 
BRANCH  26  27
ATOM     27  C   UNL     1      40.103   6.042  16.874  0.00  0.00    +0.000 A 
ATOM     28  C   UNL     1      39.105   5.745  17.758  0.00  0.00    +0.000 A 
ATOM     29  C   UNL     1      39.341   5.834  19.115  0.00  0.00    +0.000 A 
ATOM     30  C   UNL     1      40.565   6.216  19.630  0.00  0.00    +0.000 A 
ATOM     31  C   UNL     1      41.561   6.511  18.737  0.00  0.00    +0.000 A 
ATOM     32  C   UNL     1      41.326   6.424  17.384  0.00  0.00    +0.000 A 
ENDBRANCH  26  27
ENDBRANCH   5  26
TORSDOF 7
ENDMDL
MODEL 5
REMARK VINA RESULT:      -8.2      2.957      8.130
REMARK  Name = 
REMARK  7 active torsions:
REMARK  status: ('A' for Active; 'I' for Inactive)
REMARK    1  A    between atoms: C_5  and  S_6
REMARK    2  A    between atoms: S_6  and  C_7
REMARK    3  A    between atoms: C_8  and  N_9
REMARK    4  A    between atoms: N_9  and  C_10
REMARK    5  A    between atoms: C_13  and  C_14
REMARK    6  A    between atoms: N_21  and  C_22
REMARK    7  A    between atoms: C_22  and  C_23
REMARK                            x       y       z     vdW  Elec       q    Type
REMARK                         _______ _______ _______ _____ _____    ______ ____
ROOT
ATOM      1  C   UNL     1      37.464   5.994  14.464  0.00  0.00    +0.000 C 
ATOM      2  C   UNL     1      36.482   5.431  13.728  0.00  0.00    +0.000 C 
ATOM      3  C   UNL     1      35.531   6.483  13.399  0.00  0.00    +0.000 C 
ATOM      4  O   UNL     1      34.467   6.376  12.722  0.00  0.00    +0.000 OA
ATOM      5  N   UNL     1      35.946   7.722  13.950  0.00  0.00    +0.000 N 
ATOM      6  C   UNL     1      37.180   7.413  14.631  0.00  0.00    +0.000 C 
ATOM      7  O   UNL     1      37.880   8.254  15.261  0.00  0.00    +0.000 OA
ENDROOT
BRANCH   1   8
ATOM      8  S   UNL     1      38.808   4.988  15.046  0.00  0.00    +0.000 S 
BRANCH   8  13
ATOM      9  C   UNL     1      41.430   6.688  20.193  0.00  0.00    +0.000 C 
ATOM     10  C   UNL     1      40.742   6.253  18.958  0.00  0.00    +0.000 A 
ATOM     11  C   UNL     1      39.491   5.671  18.988  0.00  0.00    +0.000 A 
ATOM     12  C   UNL     1      38.872   5.276  17.832  0.00  0.00    +0.000 A 
ATOM     13  C   UNL     1      39.458   5.437  16.615  0.00  0.00    +0.000 A 
ATOM     14  C   UNL     1      40.731   6.028  16.591  0.00  0.00    +0.000 A 
ATOM     15  C   UNL     1      41.338   6.417  17.732  0.00  0.00    +0.000 A 
ENDBRANCH   8  13
ENDBRANCH   1   8
BRANCH   2  16
ATOM     16  N   UNL     1      36.369   4.056  13.330  0.00  0.00    +0.000 NA
BRANCH  16  17
ATOM     17  C   UNL     1      35.999   3.102  14.322  0.00  0.00    +0.000 A 
ATOM     18  C   UNL     1      34.965   3.349  15.203  0.00  0.00    +0.000 A 
ATOM     19  C   UNL     1      34.601   2.420  16.171  0.00  0.00    +0.000 A 
ATOM     20  C   UNL     1      35.259   1.215  16.288  0.00  0.00    +0.000 A 
ATOM     21  C   UNL     1      36.293   0.954  15.416  0.00  0.00    +0.000 A 
ATOM     22  C   UNL     1      36.646   1.892  14.452  0.00  0.00    +0.000 A 
BRANCH  20  23
ATOM     23  C   UNL     1      34.902   0.190  17.312  0.00  0.00    +0.000 C 
ATOM     24  C   UNL     1      35.768   0.304  18.527  0.00  0.00    +0.000 C 
ATOM     25  C   UNL     1      35.044  -1.207  16.742  0.00  0.00    +0.000 C 
ENDBRANCH  20  23
ENDBRANCH  16  17
ENDBRANCH   2  16
BRANCH   5  26
ATOM     26  C   UNL     1      35.349   9.024  13.897  0.00  0.00    +0.000 C 
BRANCH  26  27
ATOM     27  C   UNL     1      34.750   9.438  15.184  0.00  0.00    +0.000 A 
ATOM     28  C   UNL     1      35.219  10.454  15.968  0.00  0.00    +0.000 A 
ATOM     29  C   UNL     1      34.580  10.756  17.154  0.00  0.00    +0.000 A 
ATOM     30  C   UNL     1      33.467  10.064  17.593  0.00  0.00    +0.000 A 
ATOM     31  C   UNL     1      33.004   9.047  16.800  0.00  0.00    +0.000 A 
ATOM     32  C   UNL     1      33.640   8.745  15.618  0.00  0.00    +0.000 A 
ENDBRANCH  26  27
ENDBRANCH   5  26
TORSDOF 7
ENDMDL
MODEL 6
REMARK VINA RESULT:      -8.2      2.532      4.747
REMARK  Name = 
REMARK  7 active torsions:
REMARK  status: ('A' for Active; 'I' for Inactive)
REMARK    1  A    between atoms: C_5  and  S_6
REMARK    2  A    between atoms: S_6  and  C_7
REMARK    3  A    between atoms: C_8  and  N_9
REMARK    4  A    between atoms: N_9  and  C_10
REMARK    5  A    between atoms: C_13  and  C_14
REMARK    6  A    between atoms: N_21  and  C_22
REMARK    7  A    between atoms: C_22  and  C_23
REMARK                            x       y       z     vdW  Elec       q    Type
REMARK                         _______ _______ _______ _____ _____    ______ ____
ROOT
ATOM      1  C   UNL     1      37.800   6.361  14.830  0.00  0.00    +0.000 C 
ATOM      2  C   UNL     1      38.787   5.439  14.831  0.00  0.00    +0.000 C 
ATOM      3  C   UNL     1      38.184   4.159  14.493  0.00  0.00    +0.000 C 
ATOM      4  O   UNL     1      38.763   3.039  14.388  0.00  0.00    +0.000 OA
ATOM      5  N   UNL     1      36.790   4.304  14.280  0.00  0.00    +0.000 N 
ATOM      6  C   UNL     1      36.542   5.710  14.494  0.00  0.00    +0.000 C 
ATOM      7  O   UNL     1      35.409   6.259  14.400  0.00  0.00    +0.000 OA
ENDROOT
BRANCH   1   8
ATOM      8  S   UNL     1      38.183   8.055  15.206  0.00  0.00    +0.000 S 
BRANCH   8  13
ATOM      9  C   UNL     1      38.673   9.710  20.974  0.00  0.00    +0.000 C 
ATOM     10  C   UNL     1      38.508   9.272  19.571  0.00  0.00    +0.000 A 
ATOM     11  C   UNL     1      37.502   8.408  19.191  0.00  0.00    +0.000 A 
ATOM     12  C   UNL     1      37.367   8.015  17.886  0.00  0.00    +0.000 A 
ATOM     13  C   UNL     1      38.213   8.457  16.916  0.00  0.00    +0.000 A 
ATOM     14  C   UNL     1      39.235   9.335  17.309  0.00  0.00    +0.000 A 
ATOM     15  C   UNL     1      39.364   9.720  18.595  0.00  0.00    +0.000 A 
ENDBRANCH   8  13
ENDBRANCH   1   8
BRANCH   2  16
ATOM     16  N   UNL     1      40.180   5.654  15.111  0.00  0.00    +0.000 NA
BRANCH  16  17
ATOM     17  C   UNL     1      40.552   5.966  16.451  0.00  0.00    +0.000 A 
ATOM     18  C   UNL     1      39.811   5.512  17.524  0.00  0.00    +0.000 A 
ATOM     19  C   UNL     1      40.172   5.813  18.833  0.00  0.00    +0.000 A 
ATOM     20  C   UNL     1      41.284   6.579  19.108  0.00  0.00    +0.000 A 
ATOM     21  C   UNL     1      42.033   7.040  18.048  0.00  0.00    +0.000 A 
ATOM     22  C   UNL     1      41.661   6.729  16.744  0.00  0.00    +0.000 A 
BRANCH  20  23
ATOM     23  C   UNL     1      41.707   6.928  20.496  0.00  0.00    +0.000 C 
ATOM     24  C   UNL     1      42.236   8.325  20.574  0.00  0.00    +0.000 C 
ATOM     25  C   UNL     1      42.779   5.974  20.984  0.00  0.00    +0.000 C 
ENDBRANCH  20  23
ENDBRANCH  16  17
ENDBRANCH   2  16
BRANCH   5  26
ATOM     26  C   UNL     1      35.785   3.343  13.931  0.00  0.00    +0.000 C 
BRANCH  26  27
ATOM     27  C   UNL     1      35.616   2.287  14.952  0.00  0.00    +0.000 A 
ATOM     28  C   UNL     1      34.998   2.462  16.157  0.00  0.00    +0.000 A 
ATOM     29  C   UNL     1      34.897   1.402  17.036  0.00  0.00    +0.000 A 
ATOM     30  C   UNL     1      35.401   0.149  16.747  0.00  0.00    +0.000 A 
ATOM     31  C   UNL     1      36.018  -0.018  15.535  0.00  0.00    +0.000 A 
ATOM     32  C   UNL     1      36.121   1.038  14.659  0.00  0.00    +0.000 A 
ENDBRANCH  26  27
ENDBRANCH   5  26
TORSDOF 7
ENDMDL
MODEL 7
REMARK VINA RESULT:      -8.2      1.647      8.101
REMARK  Name = 
REMARK  7 active torsions:
REMARK  status: ('A' for Active; 'I' for Inactive)
REMARK    1  A    between atoms: C_5  and  S_6
REMARK    2  A    between atoms: S_6  and  C_7
REMARK    3  A    between atoms: C_8  and  N_9
REMARK    4  A    between atoms: N_9  and  C_10
REMARK    5  A    between atoms: C_13  and  C_14
REMARK    6  A    between atoms: N_21  and  C_22
REMARK    7  A    between atoms: C_22  and  C_23
REMARK                            x       y       z     vdW  Elec       q    Type
REMARK                         _______ _______ _______ _____ _____    ______ ____
ROOT
ATOM      1  C   UNL     1      36.710   4.011  14.714  0.00  0.00    +0.000 C 
ATOM      2  C   UNL     1      36.436   5.314  14.493  0.00  0.00    +0.000 C 
ATOM      3  C   UNL     1      37.645   6.067  14.792  0.00  0.00    +0.000 C 
ATOM      4  O   UNL     1      37.811   7.319  14.714  0.00  0.00    +0.000 OA
ATOM      5  N   UNL     1      38.685   5.199  15.207  0.00  0.00    +0.000 N 
ATOM      6  C   UNL     1      38.091   3.883  15.158  0.00  0.00    +0.000 C 
ATOM      7  O   UNL     1      38.693   2.815  15.457  0.00  0.00    +0.000 OA
ENDROOT
BRANCH   1   8
ATOM      8  S   UNL     1      35.445   2.792  14.446  0.00  0.00    +0.000 S 
BRANCH   8  13
ATOM      9  C   UNL     1      35.969  -2.250  17.695  0.00  0.00    +0.000 C 
ATOM     10  C   UNL     1      35.811  -0.989  16.939  0.00  0.00    +0.000 A 
ATOM     11  C   UNL     1      35.117   0.087  17.454  0.00  0.00    +0.000 A 
ATOM     12  C   UNL     1      34.983   1.246  16.736  0.00  0.00    +0.000 A 
ATOM     13  C   UNL     1      35.523   1.385  15.495  0.00  0.00    +0.000 A 
ATOM     14  C   UNL     1      36.227   0.287  14.977  0.00  0.00    +0.000 A 
ATOM     15  C   UNL     1      36.358  -0.853  15.687  0.00  0.00    +0.000 A 
ENDBRANCH   8  13
ENDBRANCH   1   8
BRANCH   2  16
ATOM     16  N   UNL     1      35.194   5.880  14.047  0.00  0.00    +0.000 NA
BRANCH  16  17
ATOM     17  C   UNL     1      35.076   6.232  12.670  0.00  0.00    +0.000 A 
ATOM     18  C   UNL     1      34.092   7.096  12.234  0.00  0.00    +0.000 A 
ATOM     19  C   UNL     1      33.975   7.442  10.892  0.00  0.00    +0.000 A 
ATOM     20  C   UNL     1      34.837   6.933   9.947  0.00  0.00    +0.000 A 
ATOM     21  C   UNL     1      35.824   6.068  10.366  0.00  0.00    +0.000 A 
ATOM     22  C   UNL     1      35.930   5.732  11.711  0.00  0.00    +0.000 A 
BRANCH  20  23
ATOM     23  C   UNL     1      34.747   7.276   8.496  0.00  0.00    +0.000 C 
ATOM     24  C   UNL     1      34.648   8.754   8.287  0.00  0.00    +0.000 C 
ATOM     25  C   UNL     1      33.539   6.614   7.864  0.00  0.00    +0.000 C 
ENDBRANCH  20  23
ENDBRANCH  16  17
ENDBRANCH   2  16
BRANCH   5  26
ATOM     26  C   UNL     1      40.037   5.467  15.601  0.00  0.00    +0.000 C 
BRANCH  26  27
ATOM     27  C   UNL     1      40.166   5.799  17.036  0.00  0.00    +0.000 A 
ATOM     28  C   UNL     1      39.170   5.653  17.960  0.00  0.00    +0.000 A 
ATOM     29  C   UNL     1      39.402   5.995  19.278  0.00  0.00    +0.000 A 
ATOM     30  C   UNL     1      40.618   6.487  19.712  0.00  0.00    +0.000 A 
ATOM     31  C   UNL     1      41.611   6.628  18.779  0.00  0.00    +0.000 A 
ATOM     32  C   UNL     1      41.380   6.288  17.466  0.00  0.00    +0.000 A 
ENDBRANCH  26  27
ENDBRANCH   5  26
TORSDOF 7
ENDMDL
MODEL 8
REMARK VINA RESULT:      -8.1      2.236      7.196
REMARK  Name = 
REMARK  7 active torsions:
REMARK  status: ('A' for Active; 'I' for Inactive)
REMARK    1  A    between atoms: C_5  and  S_6
REMARK    2  A    between atoms: S_6  and  C_7
REMARK    3  A    between atoms: C_8  and  N_9
REMARK    4  A    between atoms: N_9  and  C_10
REMARK    5  A    between atoms: C_13  and  C_14
REMARK    6  A    between atoms: N_21  and  C_22
REMARK    7  A    between atoms: C_22  and  C_23
REMARK                            x       y       z     vdW  Elec       q    Type
REMARK                         _______ _______ _______ _____ _____    ______ ____
ROOT
ATOM      1  C   UNL     1      37.437   3.046  14.874  0.00  0.00    +0.000 C 
ATOM      2  C   UNL     1      37.713   2.268  13.805  0.00  0.00    +0.000 C 
ATOM      3  C   UNL     1      37.105   0.969  14.046  0.00  0.00    +0.000 C 
ATOM      4  O   UNL     1      37.129  -0.046  13.290  0.00  0.00    +0.000 OA
ATOM      5  N   UNL     1      36.438   0.953  15.297  0.00  0.00    +0.000 N 
ATOM      6  C   UNL     1      36.648   2.279  15.829  0.00  0.00    +0.000 C 
ATOM      7  O   UNL     1      36.209   2.682  16.942  0.00  0.00    +0.000 OA
ENDROOT
BRANCH   1   8
ATOM      8  S   UNL     1      38.033   4.719  14.917  0.00  0.00    +0.000 S 
BRANCH   8  13
ATOM      9  C   UNL     1      41.252   6.463  19.698  0.00  0.00    +0.000 C 
ATOM     10  C   UNL     1      40.421   6.017  18.558  0.00  0.00    +0.000 A 
ATOM     11  C   UNL     1      39.184   5.435  18.743  0.00  0.00    +0.000 A 
ATOM     12  C   UNL     1      38.431   5.029  17.673  0.00  0.00    +0.000 A 
ATOM     13  C   UNL     1      38.867   5.181  16.394  0.00  0.00    +0.000 A 
ATOM     14  C   UNL     1      40.126   5.773  16.212  0.00  0.00    +0.000 A 
ATOM     15  C   UNL     1      40.865   6.172  17.268  0.00  0.00    +0.000 A 
ENDBRANCH   8  13
ENDBRANCH   1   8
BRANCH   2  16
ATOM     16  N   UNL     1      38.465   2.629  12.636  0.00  0.00    +0.000 NA
BRANCH  16  17
ATOM     17  C   UNL     1      37.746   2.896  11.435  0.00  0.00    +0.000 A 
ATOM     18  C   UNL     1      37.242   4.153  11.166  0.00  0.00    +0.000 A 
ATOM     19  C   UNL     1      36.540   4.417   9.995  0.00  0.00    +0.000 A 
ATOM     20  C   UNL     1      36.321   3.432   9.058  0.00  0.00    +0.000 A 
ATOM     21  C   UNL     1      36.817   2.173   9.311  0.00  0.00    +0.000 A 
ATOM     22  C   UNL     1      37.518   1.923  10.486  0.00  0.00    +0.000 A 
BRANCH  20  23
ATOM     23  C   UNL     1      35.573   3.671   7.788  0.00  0.00    +0.000 C 
ATOM     24  C   UNL     1      36.104   2.828   6.671  0.00  0.00    +0.000 C 
ATOM     25  C   UNL     1      35.661   5.128   7.382  0.00  0.00    +0.000 C 
ENDBRANCH  20  23
ENDBRANCH  16  17
ENDBRANCH   2  16
BRANCH   5  26
ATOM     26  C   UNL     1      35.704  -0.083  15.962  0.00  0.00    +0.000 C 
BRANCH  26  27
ATOM     27  C   UNL     1      36.480  -0.748  17.030  0.00  0.00    +0.000 A 
ATOM     28  C   UNL     1      36.211  -0.646  18.365  0.00  0.00    +0.000 A 
ATOM     29  C   UNL     1      37.005  -1.312  19.277  0.00  0.00    +0.000 A 
ATOM     30  C   UNL     1      38.078  -2.094  18.894  0.00  0.00    +0.000 A 
ATOM     31  C   UNL     1      38.340  -2.191  17.552  0.00  0.00    +0.000 A 
ATOM     32  C   UNL     1      37.550  -1.527  16.643  0.00  0.00    +0.000 A 
ENDBRANCH  26  27
ENDBRANCH   5  26
TORSDOF 7
ENDMDL
MODEL 9
REMARK VINA RESULT:      -8.1      2.897      7.587
REMARK  Name = 
REMARK  7 active torsions:
REMARK  status: ('A' for Active; 'I' for Inactive)
REMARK    1  A    between atoms: C_5  and  S_6
REMARK    2  A    between atoms: S_6  and  C_7
REMARK    3  A    between atoms: C_8  and  N_9
REMARK    4  A    between atoms: N_9  and  C_10
REMARK    5  A    between atoms: C_13  and  C_14
REMARK    6  A    between atoms: N_21  and  C_22
REMARK    7  A    between atoms: C_22  and  C_23
REMARK                            x       y       z     vdW  Elec       q    Type
REMARK                         _______ _______ _______ _____ _____    ______ ____
ROOT
ATOM      1  C   UNL     1      38.898   3.578  13.262  0.00  0.00    +0.000 C 
ATOM      2  C   UNL     1      37.651   3.770  13.744  0.00  0.00    +0.000 C 
ATOM      3  C   UNL     1      37.689   4.958  14.582  0.00  0.00    +0.000 C 
ATOM      4  O   UNL     1      36.729   5.481  15.221  0.00  0.00    +0.000 OA
ATOM      5  N   UNL     1      38.995   5.508  14.612  0.00  0.00    +0.000 N 
ATOM      6  C   UNL     1      39.771   4.628  13.770  0.00  0.00    +0.000 C 
ATOM      7  O   UNL     1      41.002   4.769  13.530  0.00  0.00    +0.000 OA
ENDROOT
BRANCH   1   8
ATOM      8  S   UNL     1      39.221   2.200  12.189  0.00  0.00    +0.000 S 
BRANCH   8  13
ATOM      9  C   UNL     1      40.135  -2.852  15.335  0.00  0.00    +0.000 C 
ATOM     10  C   UNL     1      39.891  -1.642  14.520  0.00  0.00    +0.000 A 
ATOM     11  C   UNL     1      39.372  -1.717  13.243  0.00  0.00    +0.000 A 
ATOM     12  C   UNL     1      39.154  -0.583  12.506  0.00  0.00    +0.000 A 
ATOM     13  C   UNL     1      39.438   0.654  12.996  0.00  0.00    +0.000 A 
ATOM     14  C   UNL     1      39.966   0.723  14.294  0.00  0.00    +0.000 A 
ATOM     15  C   UNL     1      40.179  -0.395  15.018  0.00  0.00    +0.000 A 
ENDBRANCH   8  13
ENDBRANCH   1   8
BRANCH   2  16
ATOM     16  N   UNL     1      36.488   2.966  13.493  0.00  0.00    +0.000 NA
BRANCH  16  17
ATOM     17  C   UNL     1      36.063   2.068  14.515  0.00  0.00    +0.000 A 
ATOM     18  C   UNL     1      36.411   0.733  14.485  0.00  0.00    +0.000 A 
ATOM     19  C   UNL     1      35.998  -0.145  15.482  0.00  0.00    +0.000 A 
ATOM     20  C   UNL     1      35.225   0.285  16.537  0.00  0.00    +0.000 A 
ATOM     21  C   UNL     1      34.870   1.615  16.581  0.00  0.00    +0.000 A 
ATOM     22  C   UNL     1      35.290   2.482  15.578  0.00  0.00    +0.000 A 
BRANCH  20  23
ATOM     23  C   UNL     1      34.760  -0.623  17.627  0.00  0.00    +0.000 C 
ATOM     24  C   UNL     1      35.603  -0.481  18.856  0.00  0.00    +0.000 C 
ATOM     25  C   UNL     1      34.801  -2.068  17.173  0.00  0.00    +0.000 C 
ENDBRANCH  20  23
ENDBRANCH  16  17
ENDBRANCH   2  16
BRANCH   5  26
ATOM     26  C   UNL     1      39.519   6.658  15.289  0.00  0.00    +0.000 C 
BRANCH  26  27
ATOM     27  C   UNL     1      39.782   6.415  16.723  0.00  0.00    +0.000 A 
ATOM     28  C   UNL     1      38.827   6.093  17.645  0.00  0.00    +0.000 A 
ATOM     29  C   UNL     1      39.187   5.888  18.962  0.00  0.00    +0.000 A 
ATOM     30  C   UNL     1      40.494   5.995  19.398  0.00  0.00    +0.000 A 
ATOM     31  C   UNL     1      41.445   6.319  18.467  0.00  0.00    +0.000 A 
ATOM     32  C   UNL     1      41.087   6.524  17.155  0.00  0.00    +0.000 A 
ENDBRANCH  26  27
ENDBRANCH   5  26
TORSDOF 7
ENDMDL
MODEL 10
REMARK VINA RESULT:      -8.0      2.233      2.980
REMARK  Name = 
REMARK  7 active torsions:
REMARK  status: ('A' for Active; 'I' for Inactive)
REMARK    1  A    between atoms: C_5  and  S_6
REMARK    2  A    between atoms: S_6  and  C_7
REMARK    3  A    between atoms: C_8  and  N_9
REMARK    4  A    between atoms: N_9  and  C_10
REMARK    5  A    between atoms: C_13  and  C_14
REMARK    6  A    between atoms: N_21  and  C_22
REMARK    7  A    between atoms: C_22  and  C_23
REMARK                            x       y       z     vdW  Elec       q    Type
REMARK                         _______ _______ _______ _____ _____    ______ ____
ROOT
ATOM      1  C   UNL     1      37.538   1.692  14.043  0.00  0.00    +0.000 C 
ATOM      2  C   UNL     1      36.943   2.432  15.003  0.00  0.00    +0.000 C 
ATOM      3  C   UNL     1      36.248   1.513  15.891  0.00  0.00    +0.000 C 
ATOM      4  O   UNL     1      35.566   1.799  16.917  0.00  0.00    +0.000 OA
ATOM      5  N   UNL     1      36.425   0.173  15.460  0.00  0.00    +0.000 N 
ATOM      6  C   UNL     1      37.248   0.284  14.280  0.00  0.00    +0.000 C 
ATOM      7  O   UNL     1      37.639  -0.694  13.585  0.00  0.00    +0.000 OA
ENDROOT
BRANCH   1   8
ATOM      8  S   UNL     1      38.484   2.500  12.775  0.00  0.00    +0.000 S 
BRANCH   8  13
ATOM      9  C   UNL     1      35.632   3.662   7.601  0.00  0.00    +0.000 C 
ATOM     10  C   UNL     1      36.335   3.322   8.857  0.00  0.00    +0.000 A 
ATOM     11  C   UNL     1      36.708   2.028   9.155  0.00  0.00    +0.000 A 
ATOM     12  C   UNL     1      37.359   1.736  10.325  0.00  0.00    +0.000 A 
ATOM     13  C   UNL     1      37.660   2.701  11.235  0.00  0.00    +0.000 A 
ATOM     14  C   UNL     1      37.277   4.015  10.927  0.00  0.00    +0.000 A 
ATOM     15  C   UNL     1      36.637   4.299   9.773  0.00  0.00    +0.000 A 
ENDBRANCH   8  13
ENDBRANCH   1   8
BRANCH   2  16
ATOM     16  N   UNL     1      36.972   3.861  15.145  0.00  0.00    +0.000 NA
BRANCH  16  17
ATOM     17  C   UNL     1      37.912   4.423  16.058  0.00  0.00    +0.000 A 
ATOM     18  C   UNL     1      37.800   4.217  17.418  0.00  0.00    +0.000 A 
ATOM     19  C   UNL     1      38.716   4.763  18.311  0.00  0.00    +0.000 A 
ATOM     20  C   UNL     1      39.771   5.531  17.870  0.00  0.00    +0.000 A 
ATOM     21  C   UNL     1      39.896   5.745  16.516  0.00  0.00    +0.000 A 
ATOM     22  C   UNL     1      38.973   5.193  15.634  0.00  0.00    +0.000 A 
BRANCH  20  23
ATOM     23  C   UNL     1      40.776   6.137  18.793  0.00  0.00    +0.000 C 
ATOM     24  C   UNL     1      40.116   6.831  19.943  0.00  0.00    +0.000 C 
ATOM     25  C   UNL     1      41.645   7.135  18.056  0.00  0.00    +0.000 C 
ENDBRANCH  20  23
ENDBRANCH  16  17
ENDBRANCH   2  16
BRANCH   5  26
ATOM     26  C   UNL     1      35.941  -1.062  16.001  0.00  0.00    +0.000 C 
BRANCH  26  27
ATOM     27  C   UNL     1      36.855  -1.654  17.001  0.00  0.00    +0.000 A 
ATOM     28  C   UNL     1      37.927  -2.447  16.701  0.00  0.00    +0.000 A 
ATOM     29  C   UNL     1      38.715  -2.947  17.718  0.00  0.00    +0.000 A 
ATOM     30  C   UNL     1      38.465  -2.677  19.051  0.00  0.00    +0.000 A 
ATOM     31  C   UNL     1      37.389  -1.881  19.341  0.00  0.00    +0.000 A 
ATOM     32  C   UNL     1      36.602  -1.383  18.329  0.00  0.00    +0.000 A 
ENDBRANCH  26  27
ENDBRANCH   5  26
TORSDOF 7
ENDMDL
