MODEL 1
REMARK VINA RESULT:      -7.6      0.000      0.000
REMARK  Name = 
REMARK  7 active torsions:
REMARK  status: ('A' for Active; 'I' for Inactive)
REMARK    1  A    between atoms: C_2  and  O_3
REMARK    2  A    between atoms: O_3  and  C_4
REMARK    3  A    between atoms: C_16  and  C_17
REMARK    4  A    between atoms: C_21  and  O_22
REMARK    5  A    between atoms: C_24  and  O_25
REMARK    6  A    between atoms: O_25  and  C_26
REMARK    7  A    between atoms: C_26  and  C_27
REMARK                            x       y       z     vdW  Elec       q    Type
REMARK                         _______ _______ _______ _____ _____    ______ ____
ROOT
ATOM      1  C   UNL     1      35.634  -1.838  15.546  0.00  0.00    +0.000 A 
ATOM      2  C   UNL     1      34.895  -1.520  16.666  0.00  0.00    +0.000 A 
ATOM      3  C   UNL     1      35.043  -0.290  17.274  0.00  0.00    +0.000 A 
ATOM      4  C   UNL     1      35.926   0.661  16.794  0.00  0.00    +0.000 A 
ATOM      5  N   UNL     1      36.285   1.923  17.163  0.00  0.00    +0.000 NA
ATOM      6  C   UNL     1      37.218   2.396  16.313  0.00  0.00    +0.000 A 
ATOM      7  C   UNL     1      37.446   1.451  15.422  0.00  0.00    +0.000 A 
ATOM      8  C   UNL     1      36.648   0.315  15.677  0.00  0.00    +0.000 A 
ATOM      9  C   UNL     1      36.521  -0.903  15.048  0.00  0.00    +0.000 A 
ATOM     10  C   UNL     1      38.424   1.604  14.317  0.00  0.00    +0.000 C 
ATOM     11  C   UNL     1      38.713   3.075  14.231  0.00  0.00    +0.000 C 
ATOM     12  N   UNL     1      39.109   3.598  15.469  0.00  0.00    +0.000 NA
ATOM     13  C   UNL     1      37.883   3.807  16.404  0.00  0.00    +0.000 C 
ENDROOT
BRANCH  13  14
ATOM     14  C   UNL     1      36.998   4.604  15.358  0.00  0.00    +0.000 A 
ATOM     15  C   UNL     1      36.000   4.052  14.675  0.00  0.00    +0.000 A 
ATOM     16  C   UNL     1      35.291   4.856  13.789  0.00  0.00    +0.000 A 
ATOM     17  C   UNL     1      35.657   6.178  13.665  0.00  0.00    +0.000 A 
ATOM     18  C   UNL     1      36.679   6.739  14.366  0.00  0.00    +0.000 A 
ATOM     19  C   UNL     1      37.384   5.914  15.255  0.00  0.00    +0.000 A 
BRANCH  18  20
ATOM     20  O   UNL     1      37.075   8.055  14.269  0.00  0.00    +0.000 OA
ATOM     21  C   UNL     1      36.207   9.148  14.247  0.00  0.00    +0.000 C 
ENDBRANCH  18  20
BRANCH  19  22
ATOM     22  O   UNL     1      38.426   6.431  15.989  0.00  0.00    +0.000 OA
BRANCH  22  23
ATOM     23  C   UNL     1      38.290   7.161  17.180  0.00  0.00    +0.000 C 
BRANCH  23  24
ATOM     24  C   UNL     1      39.489   6.883  18.014  0.00  0.00    +0.000 A 
ATOM     25  C   UNL     1      39.422   6.690  19.356  0.00  0.00    +0.000 A 
ATOM     26  C   UNL     1      40.532   6.433  20.101  0.00  0.00    +0.000 A 
ATOM     27  C   UNL     1      41.771   6.364  19.472  0.00  0.00    +0.000 A 
ATOM     28  C   UNL     1      41.848   6.557  18.109  0.00  0.00    +0.000 A 
ATOM     29  C   UNL     1      40.727   6.815  17.372  0.00  0.00    +0.000 A 
ENDBRANCH  23  24
ENDBRANCH  22  23
ENDBRANCH  19  22
ENDBRANCH  13  14
BRANCH   1  30
ATOM     30  O   UNL     1      35.481  -3.093  14.926  0.00  0.00    +0.000 OA
BRANCH  30  32
ATOM     31  C   UNL     1      33.711  -4.586  14.429  0.00  0.00    +0.000 C 
ATOM     32  C   UNL     1      34.643  -4.070  15.485  0.00  0.00    +0.000 C 
ENDBRANCH  30  32
ENDBRANCH   1  30
TORSDOF 7
ENDMDL
MODEL 2
REMARK VINA RESULT:      -7.3      2.119      8.132
REMARK  Name = 
REMARK  7 active torsions:
REMARK  status: ('A' for Active; 'I' for Inactive)
REMARK    1  A    between atoms: C_2  and  O_3
REMARK    2  A    between atoms: O_3  and  C_4
REMARK    3  A    between atoms: C_16  and  C_17
REMARK    4  A    between atoms: C_21  and  O_22
REMARK    5  A    between atoms: C_24  and  O_25
REMARK    6  A    between atoms: O_25  and  C_26
REMARK    7  A    between atoms: C_26  and  C_27
REMARK                            x       y       z     vdW  Elec       q    Type
REMARK                         _______ _______ _______ _____ _____    ______ ____
ROOT
ATOM      1  C   UNL     1      39.449   7.664  17.597  0.00  0.00    +0.000 A 
ATOM      2  C   UNL     1      39.707   6.939  18.741  0.00  0.00    +0.000 A 
ATOM      3  C   UNL     1      39.283   5.630  18.848  0.00  0.00    +0.000 A 
ATOM      4  C   UNL     1      38.592   5.000  17.829  0.00  0.00    +0.000 A 
ATOM      5  N   UNL     1      38.059   3.759  17.643  0.00  0.00    +0.000 NA
ATOM      6  C   UNL     1      37.481   3.691  16.427  0.00  0.00    +0.000 A 
ATOM      7  C   UNL     1      37.645   4.866  15.853  0.00  0.00    +0.000 A 
ATOM      8  C   UNL     1      38.349   5.747  16.701  0.00  0.00    +0.000 A 
ATOM      9  C   UNL     1      38.760   7.055  16.565  0.00  0.00    +0.000 A 
ATOM     10  C   UNL     1      37.135   5.179  14.496  0.00  0.00    +0.000 C 
ATOM     11  C   UNL     1      36.823   3.853  13.864  0.00  0.00    +0.000 C 
ATOM     12  N   UNL     1      35.974   3.083  14.668  0.00  0.00    +0.000 NA
ATOM     13  C   UNL     1      36.758   2.434  15.845  0.00  0.00    +0.000 C 
ENDROOT
BRANCH  13  14
ATOM     14  C   UNL     1      37.925   1.822  14.963  0.00  0.00    +0.000 A 
ATOM     15  C   UNL     1      39.099   2.418  14.790  0.00  0.00    +0.000 A 
ATOM     16  C   UNL     1      40.046   1.779  13.998  0.00  0.00    +0.000 A 
ATOM     17  C   UNL     1      39.720   0.565  13.434  0.00  0.00    +0.000 A 
ATOM     18  C   UNL     1      38.516  -0.043  13.614  0.00  0.00    +0.000 A 
ATOM     19  C   UNL     1      37.572   0.616  14.416  0.00  0.00    +0.000 A 
BRANCH  18  20
ATOM     20  O   UNL     1      38.153  -1.254  13.068  0.00  0.00    +0.000 OA
ATOM     21  C   UNL     1      38.977  -2.380  13.008  0.00  0.00    +0.000 C 
ENDBRANCH  18  20
BRANCH  19  22
ATOM     22  O   UNL     1      36.339   0.046  14.630  0.00  0.00    +0.000 OA
BRANCH  22  23
ATOM     23  C   UNL     1      36.125  -1.245  15.139  0.00  0.00    +0.000 C 
BRANCH  23  24
ATOM     24  C   UNL     1      36.488  -1.223  16.581  0.00  0.00    +0.000 A 
ATOM     25  C   UNL     1      35.726  -0.606  17.520  0.00  0.00    +0.000 A 
ATOM     26  C   UNL     1      36.074  -0.600  18.836  0.00  0.00    +0.000 A 
ATOM     27  C   UNL     1      37.243  -1.244  19.233  0.00  0.00    +0.000 A 
ATOM     28  C   UNL     1      38.020  -1.874  18.285  0.00  0.00    +0.000 A 
ATOM     29  C   UNL     1      37.661  -1.873  16.968  0.00  0.00    +0.000 A 
ENDBRANCH  23  24
ENDBRANCH  22  23
ENDBRANCH  19  22
ENDBRANCH  13  14
BRANCH   1  30
ATOM     30  O   UNL     1      39.882   8.999  17.488  0.00  0.00    +0.000 OA
BRANCH  30  32
ATOM     31  C   UNL     1      38.247  10.382  18.501  0.00  0.00    +0.000 C 
ATOM     32  C   UNL     1      39.670   9.908  18.536  0.00  0.00    +0.000 C 
ENDBRANCH  30  32
ENDBRANCH   1  30
TORSDOF 7
ENDMDL
MODEL 3
REMARK VINA RESULT:      -7.1      5.059      8.236
REMARK  Name = 
REMARK  7 active torsions:
REMARK  status: ('A' for Active; 'I' for Inactive)
REMARK    1  A    between atoms: C_2  and  O_3
REMARK    2  A    between atoms: O_3  and  C_4
REMARK    3  A    between atoms: C_16  and  C_17
REMARK    4  A    between atoms: C_21  and  O_22
REMARK    5  A    between atoms: C_24  and  O_25
REMARK    6  A    between atoms: O_25  and  C_26
REMARK    7  A    between atoms: C_26  and  C_27
REMARK                            x       y       z     vdW  Elec       q    Type
REMARK                         _______ _______ _______ _____ _____    ______ ____
ROOT
ATOM      1  C   UNL     1      44.293  -3.621  12.458  0.00  0.00    +0.000 A 
ATOM      2  C   UNL     1      44.981  -2.772  13.298  0.00  0.00    +0.000 A 
ATOM      3  C   UNL     1      44.304  -1.835  14.051  0.00  0.00    +0.000 A 
ATOM      4  C   UNL     1      42.928  -1.707  13.994  0.00  0.00    +0.000 A 
ATOM      5  N   UNL     1      42.004  -0.905  14.594  0.00  0.00    +0.000 NA
ATOM      6  C   UNL     1      40.770  -1.226  14.154  0.00  0.00    +0.000 A 
ATOM      7  C   UNL     1      40.910  -2.213  13.293  0.00  0.00    +0.000 A 
ATOM      8  C   UNL     1      42.269  -2.566  13.147  0.00  0.00    +0.000 A 
ATOM      9  C   UNL     1      42.917  -3.512  12.385  0.00  0.00    +0.000 A 
ATOM     10  C   UNL     1      39.763  -2.837  12.588  0.00  0.00    +0.000 C 
ATOM     11  C   UNL     1      38.540  -2.410  13.347  0.00  0.00    +0.000 C 
ATOM     12  N   UNL     1      38.480  -1.018  13.490  0.00  0.00    +0.000 NA
ATOM     13  C   UNL     1      39.446  -0.530  14.607  0.00  0.00    +0.000 C 
ENDROOT
BRANCH  13  14
ATOM     14  C   UNL     1      38.959  -1.548  15.719  0.00  0.00    +0.000 A 
ATOM     15  C   UNL     1      39.584  -2.689  15.990  0.00  0.00    +0.000 A 
ATOM     16  C   UNL     1      39.062  -3.498  16.994  0.00  0.00    +0.000 A 
ATOM     17  C   UNL     1      37.929  -3.077  17.654  0.00  0.00    +0.000 A 
ATOM     18  C   UNL     1      37.291  -1.908  17.374  0.00  0.00    +0.000 A 
ATOM     19  C   UNL     1      37.831  -1.104  16.358  0.00  0.00    +0.000 A 
BRANCH  18  20
ATOM     20  O   UNL     1      36.157  -1.454  18.011  0.00  0.00    +0.000 OA
ATOM     21  C   UNL     1      36.150  -0.735  19.208  0.00  0.00    +0.000 C 
ENDBRANCH  18  20
BRANCH  19  22
ATOM     22  O   UNL     1      37.225   0.088  16.035  0.00  0.00    +0.000 OA
BRANCH  22  23
ATOM     23  C   UNL     1      35.935   0.218  15.498  0.00  0.00    +0.000 C 
BRANCH  23  24
ATOM     24  C   UNL     1      35.780   1.625  15.043  0.00  0.00    +0.000 A 
ATOM     25  C   UNL     1      34.787   2.436  15.489  0.00  0.00    +0.000 A 
ATOM     26  C   UNL     1      34.666   3.723  15.062  0.00  0.00    +0.000 A 
ATOM     27  C   UNL     1      35.584   4.224  14.145  0.00  0.00    +0.000 A 
ATOM     28  C   UNL     1      36.596   3.408  13.689  0.00  0.00    +0.000 A 
ATOM     29  C   UNL     1      36.708   2.117  14.123  0.00  0.00    +0.000 A 
ENDBRANCH  23  24
ENDBRANCH  22  23
ENDBRANCH  19  22
ENDBRANCH  13  14
BRANCH   1  30
ATOM     30  O   UNL     1      44.984  -4.578  11.690  0.00  0.00    +0.000 OA
BRANCH  30  32
ATOM     31  C   UNL     1      45.038  -4.064   9.379  0.00  0.00    +0.000 C 
ATOM     32  C   UNL     1      44.496  -4.979  10.437  0.00  0.00    +0.000 C 
ENDBRANCH  30  32
ENDBRANCH   1  30
TORSDOF 7
ENDMDL
MODEL 4
REMARK VINA RESULT:      -6.9      2.393      8.556
REMARK  Name = 
REMARK  7 active torsions:
REMARK  status: ('A' for Active; 'I' for Inactive)
REMARK    1  A    between atoms: C_2  and  O_3
REMARK    2  A    between atoms: O_3  and  C_4
REMARK    3  A    between atoms: C_16  and  C_17
REMARK    4  A    between atoms: C_21  and  O_22
REMARK    5  A    between atoms: C_24  and  O_25
REMARK    6  A    between atoms: O_25  and  C_26
REMARK    7  A    between atoms: C_26  and  C_27
REMARK                            x       y       z     vdW  Elec       q    Type
REMARK                         _______ _______ _______ _____ _____    ______ ____
ROOT
ATOM      1  C   UNL     1      39.745   8.557  19.101  0.00  0.00    +0.000 A 
ATOM      2  C   UNL     1      40.213   7.617  19.994  0.00  0.00    +0.000 A 
ATOM      3  C   UNL     1      39.992   6.273  19.773  0.00  0.00    +0.000 A 
ATOM      4  C   UNL     1      39.302   5.819  18.663  0.00  0.00    +0.000 A 
ATOM      5  N   UNL     1      38.936   4.597  18.184  0.00  0.00    +0.000 NA
ATOM      6  C   UNL     1      38.258   4.748  17.028  0.00  0.00    +0.000 A 
ATOM      7  C   UNL     1      38.198   6.040  16.780  0.00  0.00    +0.000 A 
ATOM      8  C   UNL     1      38.848   6.779  17.791  0.00  0.00    +0.000 A 
ATOM      9  C   UNL     1      39.054   8.127  17.985  0.00  0.00    +0.000 A 
ATOM     10  C   UNL     1      37.519   6.601  15.585  0.00  0.00    +0.000 C 
ATOM     11  C   UNL     1      37.340   5.447  14.641  0.00  0.00    +0.000 C 
ATOM     12  N   UNL     1      36.691   4.370  15.258  0.00  0.00    +0.000 NA
ATOM     13  C   UNL     1      37.669   3.580  16.173  0.00  0.00    +0.000 C 
ENDROOT
BRANCH  13  14
ATOM     14  C   UNL     1      38.820   3.409  15.097  0.00  0.00    +0.000 A 
ATOM     15  C   UNL     1      39.600   4.408  14.698  0.00  0.00    +0.000 A 
ATOM     16  C   UNL     1      40.580   4.133  13.751  0.00  0.00    +0.000 A 
ATOM     17  C   UNL     1      40.691   2.845  13.275  0.00  0.00    +0.000 A 
ATOM     18  C   UNL     1      39.890   1.826  13.685  0.00  0.00    +0.000 A 
ATOM     19  C   UNL     1      38.906   2.120  14.642  0.00  0.00    +0.000 A 
BRANCH  18  20
ATOM     20  O   UNL     1      39.970   0.526  13.234  0.00  0.00    +0.000 OA
ATOM     21  C   UNL     1      40.140   0.157  11.898  0.00  0.00    +0.000 C 
ENDBRANCH  18  20
BRANCH  19  22
ATOM     22  O   UNL     1      38.070   1.125  15.092  0.00  0.00    +0.000 OA
BRANCH  22  23
ATOM     23  C   UNL     1      36.976   0.608  14.379  0.00  0.00    +0.000 C 
BRANCH  23  24
ATOM     24  C   UNL     1      36.153  -0.180  15.335  0.00  0.00    +0.000 A 
ATOM     25  C   UNL     1      36.084  -1.535  15.300  0.00  0.00    +0.000 A 
ATOM     26  C   UNL     1      35.327  -2.238  16.187  0.00  0.00    +0.000 A 
ATOM     27  C   UNL     1      34.605  -1.551  17.159  0.00  0.00    +0.000 A 
ATOM     28  C   UNL     1      34.671  -0.175  17.201  0.00  0.00    +0.000 A 
ATOM     29  C   UNL     1      35.433   0.520  16.306  0.00  0.00    +0.000 A 
ENDBRANCH  23  24
ENDBRANCH  22  23
ENDBRANCH  19  22
ENDBRANCH  13  14
BRANCH   1  30
ATOM     30  O   UNL     1      39.972   9.929  19.327  0.00  0.00    +0.000 OA
BRANCH  30  32
ATOM     31  C   UNL     1      38.592  10.853  21.016  0.00  0.00    +0.000 C 
ATOM     32  C   UNL     1      39.984  10.446  20.632  0.00  0.00    +0.000 C 
ENDBRANCH  30  32
ENDBRANCH   1  30
TORSDOF 7
ENDMDL
MODEL 5
REMARK VINA RESULT:      -6.9      2.701      8.058
REMARK  Name = 
REMARK  7 active torsions:
REMARK  status: ('A' for Active; 'I' for Inactive)
REMARK    1  A    between atoms: C_2  and  O_3
REMARK    2  A    between atoms: O_3  and  C_4
REMARK    3  A    between atoms: C_16  and  C_17
REMARK    4  A    between atoms: C_21  and  O_22
REMARK    5  A    between atoms: C_24  and  O_25
REMARK    6  A    between atoms: O_25  and  C_26
REMARK    7  A    between atoms: C_26  and  C_27
REMARK                            x       y       z     vdW  Elec       q    Type
REMARK                         _______ _______ _______ _____ _____    ______ ____
ROOT
ATOM      1  C   UNL     1      35.922   8.194  12.679  0.00  0.00    +0.000 A 
ATOM      2  C   UNL     1      35.504   7.522  11.550  0.00  0.00    +0.000 A 
ATOM      3  C   UNL     1      35.728   6.167  11.422  0.00  0.00    +0.000 A 
ATOM      4  C   UNL     1      36.372   5.436  12.405  0.00  0.00    +0.000 A 
ATOM      5  N   UNL     1      36.729   4.131  12.564  0.00  0.00    +0.000 NA
ATOM      6  C   UNL     1      37.353   3.972  13.749  0.00  0.00    +0.000 A 
ATOM      7  C   UNL     1      37.389   5.154  14.329  0.00  0.00    +0.000 A 
ATOM      8  C   UNL     1      36.777   6.133  13.518  0.00  0.00    +0.000 A 
ATOM      9  C   UNL     1      36.567   7.485  13.674  0.00  0.00    +0.000 A 
ATOM     10  C   UNL     1      38.007   5.381  15.659  0.00  0.00    +0.000 C 
ATOM     11  C   UNL     1      38.155   4.019  16.275  0.00  0.00    +0.000 C 
ATOM     12  N   UNL     1      38.843   3.141  15.428  0.00  0.00    +0.000 NA
ATOM     13  C   UNL     1      37.915   2.619  14.294  0.00  0.00    +0.000 C 
ENDROOT
BRANCH  13  14
ATOM     14  C   UNL     1      36.718   2.176  15.234  0.00  0.00    +0.000 A 
ATOM     15  C   UNL     1      35.598   2.877  15.370  0.00  0.00    +0.000 A 
ATOM     16  C   UNL     1      34.617   2.381  16.222  0.00  0.00    +0.000 A 
ATOM     17  C   UNL     1      34.855   1.193  16.878  0.00  0.00    +0.000 A 
ATOM     18  C   UNL     1      36.003   0.478  16.736  0.00  0.00    +0.000 A 
ATOM     19  C   UNL     1      36.983   0.993  15.872  0.00  0.00    +0.000 A 
BRANCH  18  20
ATOM     20  O   UNL     1      36.278  -0.711  17.374  0.00  0.00    +0.000 OA
ATOM     21  C   UNL     1      35.591  -1.908  17.158  0.00  0.00    +0.000 C 
ENDBRANCH  18  20
BRANCH  19  22
ATOM     22  O   UNL     1      38.163   0.309  15.692  0.00  0.00    +0.000 OA
BRANCH  22  23
ATOM     23  C   UNL     1      38.344  -0.770  14.812  0.00  0.00    +0.000 C 
BRANCH  23  24
ATOM     24  C   UNL     1      39.806  -0.926  14.593  0.00  0.00    +0.000 A 
ATOM     25  C   UNL     1      40.448  -2.113  14.742  0.00  0.00    +0.000 A 
ATOM     26  C   UNL     1      41.787  -2.236  14.532  0.00  0.00    +0.000 A 
ATOM     27  C   UNL     1      42.521  -1.116  14.153  0.00  0.00    +0.000 A 
ATOM     28  C   UNL     1      41.877   0.092  13.998  0.00  0.00    +0.000 A 
ATOM     29  C   UNL     1      40.533   0.204  14.212  0.00  0.00    +0.000 A 
ENDBRANCH  23  24
ENDBRANCH  22  23
ENDBRANCH  19  22
ENDBRANCH  13  14
BRANCH   1  30
ATOM     30  O   UNL     1      35.692   9.578  12.810  0.00  0.00    +0.000 OA
BRANCH  30  32
ATOM     31  C   UNL     1      33.925  11.076  13.303  0.00  0.00    +0.000 C 
ATOM     32  C   UNL     1      34.532  10.163  12.279  0.00  0.00    +0.000 C 
ENDBRANCH  30  32
ENDBRANCH   1  30
TORSDOF 7
ENDMDL
MODEL 6
REMARK VINA RESULT:      -6.8      2.693      5.587
REMARK  Name = 
REMARK  7 active torsions:
REMARK  status: ('A' for Active; 'I' for Inactive)
REMARK    1  A    between atoms: C_2  and  O_3
REMARK    2  A    between atoms: O_3  and  C_4
REMARK    3  A    between atoms: C_16  and  C_17
REMARK    4  A    between atoms: C_21  and  O_22
REMARK    5  A    between atoms: C_24  and  O_25
REMARK    6  A    between atoms: O_25  and  C_26
REMARK    7  A    between atoms: C_26  and  C_27
REMARK                            x       y       z     vdW  Elec       q    Type
REMARK                         _______ _______ _______ _____ _____    ______ ____
ROOT
ATOM      1  C   UNL     1      37.963  -2.387  17.192  0.00  0.00    +0.000 A 
ATOM      2  C   UNL     1      38.983  -2.433  16.265  0.00  0.00    +0.000 A 
ATOM      3  C   UNL     1      39.078  -1.467  15.284  0.00  0.00    +0.000 A 
ATOM      4  C   UNL     1      38.168  -0.430  15.189  0.00  0.00    +0.000 A 
ATOM      5  N   UNL     1      38.000   0.638  14.359  0.00  0.00    +0.000 NA
ATOM      6  C   UNL     1      36.915   1.342  14.739  0.00  0.00    +0.000 A 
ATOM      7  C   UNL     1      36.405   0.731  15.789  0.00  0.00    +0.000 A 
ATOM      8  C   UNL     1      37.163  -0.411  16.126  0.00  0.00    +0.000 A 
ATOM      9  C   UNL     1      37.043  -1.359  17.117  0.00  0.00    +0.000 A 
ATOM     10  C   UNL     1      35.189   1.212  16.491  0.00  0.00    +0.000 C 
ATOM     11  C   UNL     1      34.987   2.627  16.028  0.00  0.00    +0.000 C 
ATOM     12  N   UNL     1      34.956   2.715  14.631  0.00  0.00    +0.000 NA
ATOM     13  C   UNL     1      36.391   2.635  14.035  0.00  0.00    +0.000 C 
ENDROOT
BRANCH  13  14
ATOM     14  C   UNL     1      37.032   3.743  14.970  0.00  0.00    +0.000 A 
ATOM     15  C   UNL     1      37.663   3.465  16.106  0.00  0.00    +0.000 A 
ATOM     16  C   UNL     1      38.188   4.525  16.838  0.00  0.00    +0.000 A 
ATOM     17  C   UNL     1      38.029   5.803  16.350  0.00  0.00    +0.000 A 
ATOM     18  C   UNL     1      37.382   6.084  15.186  0.00  0.00    +0.000 A 
ATOM     19  C   UNL     1      36.858   5.003  14.460  0.00  0.00    +0.000 A 
BRANCH  18  20
ATOM     20  O   UNL     1      37.203   7.347  14.667  0.00  0.00    +0.000 OA
ATOM     21  C   UNL     1      36.821   8.466  15.408  0.00  0.00    +0.000 C 
ENDBRANCH  18  20
BRANCH  19  22
ATOM     22  O   UNL     1      36.196   5.231  13.277  0.00  0.00    +0.000 OA
BRANCH  22  23
ATOM     23  C   UNL     1      36.813   5.432  12.032  0.00  0.00    +0.000 C 
BRANCH  23  24
ATOM     24  C   UNL     1      35.815   6.076  11.137  0.00  0.00    +0.000 A 
ATOM     25  C   UNL     1      35.874   5.982   9.784  0.00  0.00    +0.000 A 
ATOM     26  C   UNL     1      34.948   6.576   8.983  0.00  0.00    +0.000 A 
ATOM     27  C   UNL     1      33.910   7.299   9.564  0.00  0.00    +0.000 A 
ATOM     28  C   UNL     1      33.842   7.397  10.937  0.00  0.00    +0.000 A 
ATOM     29  C   UNL     1      34.778   6.798  11.731  0.00  0.00    +0.000 A 
ENDBRANCH  23  24
ENDBRANCH  22  23
ENDBRANCH  19  22
ENDBRANCH  13  14
BRANCH   1  30
ATOM     30  O   UNL     1      37.868  -3.372  18.194  0.00  0.00    +0.000 OA
BRANCH  30  32
ATOM     31  C   UNL     1      37.751  -2.787  20.486  0.00  0.00    +0.000 C 
ATOM     32  C   UNL     1      38.628  -3.272  19.370  0.00  0.00    +0.000 C 
ENDBRANCH  30  32
ENDBRANCH   1  30
TORSDOF 7
ENDMDL
MODEL 7
REMARK VINA RESULT:      -6.8      2.515      7.966
REMARK  Name = 
REMARK  7 active torsions:
REMARK  status: ('A' for Active; 'I' for Inactive)
REMARK    1  A    between atoms: C_2  and  O_3
REMARK    2  A    between atoms: O_3  and  C_4
REMARK    3  A    between atoms: C_16  and  C_17
REMARK    4  A    between atoms: C_21  and  O_22
REMARK    5  A    between atoms: C_24  and  O_25
REMARK    6  A    between atoms: O_25  and  C_26
REMARK    7  A    between atoms: C_26  and  C_27
REMARK                            x       y       z     vdW  Elec       q    Type
REMARK                         _______ _______ _______ _____ _____    ______ ____
ROOT
ATOM      1  C   UNL     1      43.013   7.131  19.748  0.00  0.00    +0.000 A 
ATOM      2  C   UNL     1      43.778   7.428  18.640  0.00  0.00    +0.000 A 
ATOM      3  C   UNL     1      43.317   7.131  17.374  0.00  0.00    +0.000 A 
ATOM      4  C   UNL     1      42.087   6.532  17.166  0.00  0.00    +0.000 A 
ATOM      5  N   UNL     1      41.380   6.128  16.074  0.00  0.00    +0.000 NA
ATOM      6  C   UNL     1      40.207   5.591  16.466  0.00  0.00    +0.000 A 
ATOM      7  C   UNL     1      40.172   5.656  17.782  0.00  0.00    +0.000 A 
ATOM      8  C   UNL     1      41.348   6.248  18.289  0.00  0.00    +0.000 A 
ATOM      9  C   UNL     1      41.781   6.533  19.565  0.00  0.00    +0.000 A 
ATOM     10  C   UNL     1      39.029   5.154  18.584  0.00  0.00    +0.000 C 
ATOM     11  C   UNL     1      37.894   4.990  17.614  0.00  0.00    +0.000 C 
ATOM     12  N   UNL     1      38.260   4.199  16.518  0.00  0.00    +0.000 NA
ATOM     13  C   UNL     1      39.119   5.011  15.506  0.00  0.00    +0.000 C 
ENDROOT
BRANCH  13  14
ATOM     14  C   UNL     1      38.142   6.254  15.403  0.00  0.00    +0.000 A 
ATOM     15  C   UNL     1      38.389   7.427  15.975  0.00  0.00    +0.000 A 
ATOM     16  C   UNL     1      37.457   8.446  15.808  0.00  0.00    +0.000 A 
ATOM     17  C   UNL     1      36.329   8.188  15.061  0.00  0.00    +0.000 A 
ATOM     18  C   UNL     1      36.079   6.985  14.476  0.00  0.00    +0.000 A 
ATOM     19  C   UNL     1      37.030   5.968  14.655  0.00  0.00    +0.000 A 
BRANCH  18  20
ATOM     20  O   UNL     1      34.964   6.689  13.723  0.00  0.00    +0.000 OA
ATOM     21  C   UNL     1      33.672   7.138  14.002  0.00  0.00    +0.000 C 
ENDBRANCH  18  20
BRANCH  19  22
ATOM     22  O   UNL     1      36.826   4.733  14.085  0.00  0.00    +0.000 OA
BRANCH  22  23
ATOM     23  C   UNL     1      35.579   4.103  13.949  0.00  0.00    +0.000 C 
BRANCH  23  24
ATOM     24  C   UNL     1      35.624   2.847  14.744  0.00  0.00    +0.000 A 
ATOM     25  C   UNL     1      36.360   1.769  14.372  0.00  0.00    +0.000 A 
ATOM     26  C   UNL     1      36.391   0.630  15.116  0.00  0.00    +0.000 A 
ATOM     27  C   UNL     1      35.649   0.567  16.293  0.00  0.00    +0.000 A 
ATOM     28  C   UNL     1      34.901   1.658  16.678  0.00  0.00    +0.000 A 
ATOM     29  C   UNL     1      34.877   2.795  15.923  0.00  0.00    +0.000 A 
ENDBRANCH  23  24
ENDBRANCH  22  23
ENDBRANCH  19  22
ENDBRANCH  13  14
BRANCH   1  30
ATOM     30  O   UNL     1      43.484   7.435  21.040  0.00  0.00    +0.000 OA
BRANCH  30  32
ATOM     31  C   UNL     1      44.518   5.418  21.728  0.00  0.00    +0.000 C 
ATOM     32  C   UNL     1      43.487   6.459  22.049  0.00  0.00    +0.000 C 
ENDBRANCH  30  32
ENDBRANCH   1  30
TORSDOF 7
ENDMDL
MODEL 8
REMARK VINA RESULT:      -6.8      4.025      8.095
REMARK  Name = 
REMARK  7 active torsions:
REMARK  status: ('A' for Active; 'I' for Inactive)
REMARK    1  A    between atoms: C_2  and  O_3
REMARK    2  A    between atoms: O_3  and  C_4
REMARK    3  A    between atoms: C_16  and  C_17
REMARK    4  A    between atoms: C_21  and  O_22
REMARK    5  A    between atoms: C_24  and  O_25
REMARK    6  A    between atoms: O_25  and  C_26
REMARK    7  A    between atoms: C_26  and  C_27
REMARK                            x       y       z     vdW  Elec       q    Type
REMARK                         _______ _______ _______ _____ _____    ______ ____
ROOT
ATOM      1  C   UNL     1      36.603   3.989   9.392  0.00  0.00    +0.000 A 
ATOM      2  C   UNL     1      36.470   2.746   8.811  0.00  0.00    +0.000 A 
ATOM      3  C   UNL     1      36.831   1.609   9.505  0.00  0.00    +0.000 A 
ATOM      4  C   UNL     1      37.335   1.668  10.792  0.00  0.00    +0.000 A 
ATOM      5  N   UNL     1      37.767   0.754  11.705  0.00  0.00    +0.000 NA
ATOM      6  C   UNL     1      38.162   1.386  12.829  0.00  0.00    +0.000 A 
ATOM      7  C   UNL     1      37.983   2.676  12.630  0.00  0.00    +0.000 A 
ATOM      8  C   UNL     1      37.456   2.921  11.344  0.00  0.00    +0.000 A 
ATOM      9  C   UNL     1      37.103   4.072  10.677  0.00  0.00    +0.000 A 
ATOM     10  C   UNL     1      38.312   3.702  13.651  0.00  0.00    +0.000 C 
ATOM     11  C   UNL     1      38.457   2.954  14.945  0.00  0.00    +0.000 C 
ATOM     12  N   UNL     1      39.368   1.896  14.833  0.00  0.00    +0.000 NA
ATOM     13  C   UNL     1      38.724   0.682  14.105  0.00  0.00    +0.000 C 
ENDROOT
BRANCH  13  14
ATOM     14  C   UNL     1      37.413   0.619  14.993  0.00  0.00    +0.000 A 
ATOM     15  C   UNL     1      36.330   1.350  14.749  0.00  0.00    +0.000 A 
ATOM     16  C   UNL     1      35.238   1.203  15.597  0.00  0.00    +0.000 A 
ATOM     17  C   UNL     1      35.333   0.310  16.642  0.00  0.00    +0.000 A 
ATOM     18  C   UNL     1      36.443  -0.437  16.888  0.00  0.00    +0.000 A 
ATOM     19  C   UNL     1      37.536  -0.276  16.023  0.00  0.00    +0.000 A 
BRANCH  18  20
ATOM     20  O   UNL     1      36.575  -1.338  17.921  0.00  0.00    +0.000 OA
ATOM     21  C   UNL     1      36.867  -0.998  19.243  0.00  0.00    +0.000 C 
ENDBRANCH  18  20
BRANCH  19  22
ATOM     22  O   UNL     1      38.683  -1.007  16.227  0.00  0.00    +0.000 OA
BRANCH  22  23
ATOM     23  C   UNL     1      38.812  -2.386  15.994  0.00  0.00    +0.000 C 
BRANCH  23  24
ATOM     24  C   UNL     1      39.582  -2.556  14.734  0.00  0.00    +0.000 A 
ATOM     25  C   UNL     1      40.939  -2.546  14.695  0.00  0.00    +0.000 A 
ATOM     26  C   UNL     1      41.625  -2.707  13.530  0.00  0.00    +0.000 A 
ATOM     27  C   UNL     1      40.918  -2.888  12.345  0.00  0.00    +0.000 A 
ATOM     28  C   UNL     1      39.541  -2.902  12.376  0.00  0.00    +0.000 A 
ATOM     29  C   UNL     1      38.863  -2.738  13.550  0.00  0.00    +0.000 A 
ENDBRANCH  23  24
ENDBRANCH  22  23
ENDBRANCH  19  22
ENDBRANCH  13  14
BRANCH   1  30
ATOM     30  O   UNL     1      36.233   5.149   8.684  0.00  0.00    +0.000 OA
BRANCH  30  32
ATOM     31  C   UNL     1      34.289   6.001   7.633  0.00  0.00    +0.000 C 
ATOM     32  C   UNL     1      35.450   5.059   7.522  0.00  0.00    +0.000 C 
ENDBRANCH  30  32
ENDBRANCH   1  30
TORSDOF 7
ENDMDL
MODEL 9
REMARK VINA RESULT:      -6.7      1.965      2.524
REMARK  Name = 
REMARK  7 active torsions:
REMARK  status: ('A' for Active; 'I' for Inactive)
REMARK    1  A    between atoms: C_2  and  O_3
REMARK    2  A    between atoms: O_3  and  C_4
REMARK    3  A    between atoms: C_16  and  C_17
REMARK    4  A    between atoms: C_21  and  O_22
REMARK    5  A    between atoms: C_24  and  O_25
REMARK    6  A    between atoms: O_25  and  C_26
REMARK    7  A    between atoms: C_26  and  C_27
REMARK                            x       y       z     vdW  Elec       q    Type
REMARK                         _______ _______ _______ _____ _____    ______ ____
ROOT
ATOM      1  C   UNL     1      36.223  -3.880  15.223  0.00  0.00    +0.000 A 
ATOM      2  C   UNL     1      36.583  -3.689  16.540  0.00  0.00    +0.000 A 
ATOM      3  C   UNL     1      37.161  -2.501  16.939  0.00  0.00    +0.000 A 
ATOM      4  C   UNL     1      37.401  -1.469  16.050  0.00  0.00    +0.000 A 
ATOM      5  N   UNL     1      37.938  -0.220  16.138  0.00  0.00    +0.000 NA
ATOM      6  C   UNL     1      37.925   0.367  14.924  0.00  0.00    +0.000 A 
ATOM      7  C   UNL     1      37.388  -0.495  14.083  0.00  0.00    +0.000 A 
ATOM      8  C   UNL     1      37.031  -1.689  14.744  0.00  0.00    +0.000 A 
ATOM      9  C   UNL     1      36.453  -2.863  14.316  0.00  0.00    +0.000 A 
ATOM     10  C   UNL     1      37.206  -0.206  12.640  0.00  0.00    +0.000 C 
ATOM     11  C   UNL     1      37.360   1.282  12.501  0.00  0.00    +0.000 C 
ATOM     12  N   UNL     1      38.561   1.732  13.063  0.00  0.00    +0.000 NA
ATOM     13  C   UNL     1      38.458   1.802  14.614  0.00  0.00    +0.000 C 
ENDROOT
BRANCH  13  14
ATOM     14  C   UNL     1      37.104   2.623  14.665  0.00  0.00    +0.000 A 
ATOM     15  C   UNL     1      35.924   2.071  14.925  0.00  0.00    +0.000 A 
ATOM     16  C   UNL     1      34.806   2.897  14.948  0.00  0.00    +0.000 A 
ATOM     17  C   UNL     1      34.977   4.241  14.699  0.00  0.00    +0.000 A 
ATOM     18  C   UNL     1      36.187   4.803  14.432  0.00  0.00    +0.000 A 
ATOM     19  C   UNL     1      37.305   3.955  14.414  0.00  0.00    +0.000 A 
BRANCH  18  20
ATOM     20  O   UNL     1      36.398   6.141  14.179  0.00  0.00    +0.000 OA
ATOM     21  C   UNL     1      35.486   6.985  13.544  0.00  0.00    +0.000 C 
ENDBRANCH  18  20
BRANCH  19  22
ATOM     22  O   UNL     1      38.552   4.472  14.150  0.00  0.00    +0.000 OA
BRANCH  22  23
ATOM     23  C   UNL     1      39.629   4.480  15.050  0.00  0.00    +0.000 C 
BRANCH  23  24
ATOM     24  C   UNL     1      39.257   5.367  16.184  0.00  0.00    +0.000 A 
ATOM     25  C   UNL     1      38.973   4.894  17.424  0.00  0.00    +0.000 A 
ATOM     26  C   UNL     1      38.638   5.724  18.450  0.00  0.00    +0.000 A 
ATOM     27  C   UNL     1      38.586   7.097  18.223  0.00  0.00    +0.000 A 
ATOM     28  C   UNL     1      38.875   7.585  16.968  0.00  0.00    +0.000 A 
ATOM     29  C   UNL     1      39.209   6.743  15.946  0.00  0.00    +0.000 A 
ENDBRANCH  23  24
ENDBRANCH  22  23
ENDBRANCH  19  22
ENDBRANCH  13  14
BRANCH   1  30
ATOM     30  O   UNL     1      35.633  -5.092  14.816  0.00  0.00    +0.000 OA
BRANCH  30  32
ATOM     31  C   UNL     1      33.314  -4.620  14.923  0.00  0.00    +0.000 C 
ATOM     32  C   UNL     1      34.421  -5.523  15.380  0.00  0.00    +0.000 C 
ENDBRANCH  30  32
ENDBRANCH   1  30
TORSDOF 7
ENDMDL
MODEL 10
REMARK VINA RESULT:      -6.7      4.635      6.235
REMARK  Name = 
REMARK  7 active torsions:
REMARK  status: ('A' for Active; 'I' for Inactive)
REMARK    1  A    between atoms: C_2  and  O_3
REMARK    2  A    between atoms: O_3  and  C_4
REMARK    3  A    between atoms: C_16  and  C_17
REMARK    4  A    between atoms: C_21  and  O_22
REMARK    5  A    between atoms: C_24  and  O_25
REMARK    6  A    between atoms: O_25  and  C_26
REMARK    7  A    between atoms: C_26  and  C_27
REMARK                            x       y       z     vdW  Elec       q    Type
REMARK                         _______ _______ _______ _____ _____    ______ ____
ROOT
ATOM      1  C   UNL     1      41.247  -3.629   9.595  0.00  0.00    +0.000 A 
ATOM      2  C   UNL     1      42.039  -4.079  10.629  0.00  0.00    +0.000 A 
ATOM      3  C   UNL     1      42.083  -3.391  11.825  0.00  0.00    +0.000 A 
ATOM      4  C   UNL     1      41.346  -2.238  12.032  0.00  0.00    +0.000 A 
ATOM      5  N   UNL     1      41.185  -1.365  13.066  0.00  0.00    +0.000 NA
ATOM      6  C   UNL     1      40.323  -0.392  12.708  0.00  0.00    +0.000 A 
ATOM      7  C   UNL     1      39.945  -0.645  11.471  0.00  0.00    +0.000 A 
ATOM      8  C   UNL     1      40.566  -1.815  10.983  0.00  0.00    +0.000 A 
ATOM      9  C   UNL     1      40.501  -2.480   9.779  0.00  0.00    +0.000 A 
ATOM     10  C   UNL     1      38.993   0.216  10.726  0.00  0.00    +0.000 C 
ATOM     11  C   UNL     1      38.327   1.074  11.763  0.00  0.00    +0.000 C 
ATOM     12  N   UNL     1      39.263   1.749  12.556  0.00  0.00    +0.000 NA
ATOM     13  C   UNL     1      39.882   0.797  13.619  0.00  0.00    +0.000 C 
ENDROOT
BRANCH  13  14
ATOM     14  C   UNL     1      38.508   0.234  14.173  0.00  0.00    +0.000 A 
ATOM     15  C   UNL     1      37.958  -0.899  13.747  0.00  0.00    +0.000 A 
ATOM     16  C   UNL     1      36.751  -1.292  14.314  0.00  0.00    +0.000 A 
ATOM     17  C   UNL     1      36.187  -0.492  15.283  0.00  0.00    +0.000 A 
ATOM     18  C   UNL     1      36.753   0.667  15.716  0.00  0.00    +0.000 A 
ATOM     19  C   UNL     1      37.971   1.050  15.134  0.00  0.00    +0.000 A 
BRANCH  18  20
ATOM     20  O   UNL     1      36.221   1.494  16.681  0.00  0.00    +0.000 OA
ATOM     21  C   UNL     1      35.010   2.178  16.564  0.00  0.00    +0.000 C 
ENDBRANCH  18  20
BRANCH  19  22
ATOM     22  O   UNL     1      38.586   2.213  15.535  0.00  0.00    +0.000 OA
BRANCH  22  23
ATOM     23  C   UNL     1      38.112   3.508  15.273  0.00  0.00    +0.000 C 
BRANCH  23  24
ATOM     24  C   UNL     1      38.814   4.436  16.199  0.00  0.00    +0.000 A 
ATOM     25  C   UNL     1      39.796   5.278  15.789  0.00  0.00    +0.000 A 
ATOM     26  C   UNL     1      40.424   6.123  16.652  0.00  0.00    +0.000 A 
ATOM     27  C   UNL     1      40.049   6.127  17.993  0.00  0.00    +0.000 A 
ATOM     28  C   UNL     1      39.050   5.277  18.416  0.00  0.00    +0.000 A 
ATOM     29  C   UNL     1      38.428   4.432  17.541  0.00  0.00    +0.000 A 
ENDBRANCH  23  24
ENDBRANCH  22  23
ENDBRANCH  19  22
ENDBRANCH  13  14
BRANCH   1  30
ATOM     30  O   UNL     1      41.202  -4.333   8.376  0.00  0.00    +0.000 OA
BRANCH  30  32
ATOM     31  C   UNL     1      40.469  -6.550   7.976  0.00  0.00    +0.000 C 
ATOM     32  C   UNL     1      41.636  -5.665   8.302  0.00  0.00    +0.000 C 
ENDBRANCH  30  32
ENDBRANCH   1  30
TORSDOF 7
ENDMDL
