MODEL 1
REMARK VINA RESULT:      -7.6      0.000      0.000
REMARK  Name = 
REMARK  4 active torsions:
REMARK  status: ('A' for Active; 'I' for Inactive)
REMARK    1  A    between atoms: C_2  and  C_4
REMARK    2  A    between atoms: C_4  and  C_5
REMARK    3  A    between atoms: C_5  and  C_6
REMARK    4  A    between atoms: C_9  and  C_10
REMARK                            x       y       z     vdW  Elec       q    Type
REMARK                         _______ _______ _______ _____ _____    ______ ____
ROOT
ATOM      1  C   UNL     1      16.109  11.171  32.763  0.00  0.00    +0.000 A 
ATOM      2  C   UNL     1      17.234  10.448  33.164  0.00  0.00    +0.000 A 
ATOM      3  C   UNL     1      17.487  10.331  34.518  0.00  0.00    +0.000 A 
ATOM      4  C   UNL     1      16.647  10.915  35.442  0.00  0.00    +0.000 A 
ATOM      5  C   UNL     1      15.533  11.632  35.028  0.00  0.00    +0.000 A 
ATOM      6  C   UNL     1      15.261  11.761  33.689  0.00  0.00    +0.000 A 
ENDROOT
BRANCH   4   7
ATOM      7  C   UNL     1      16.904  10.800  36.898  0.00  0.00    +0.000 C 
ATOM      8  C   UNL     1      15.630  10.919  37.689  0.00  0.00    +0.000 C 
ATOM      9  N   UNL     1      17.550   9.507  37.144  0.00  0.00    +0.000 NA
ATOM     10  C   UNL     1      18.559   9.716  38.115  0.00  0.00    +0.000 C 
ATOM     11  O   UNL     1      19.186   8.858  38.791  0.00  0.00    +0.000 OA
ATOM     12  N   UNL     1      18.781  11.119  38.227  0.00  0.00    +0.000 NA
ATOM     13  C   UNL     1      17.919  11.796  37.333  0.00  0.00    +0.000 C 
ATOM     14  O   UNL     1      18.010  12.994  36.991  0.00  0.00    +0.000 OA
ENDBRANCH   4   7
BRANCH   1  15
ATOM     15  C   UNL     1      15.871  11.274  31.299  0.00  0.00    +0.000 C 
BRANCH  15  16
ATOM     16  C   UNL     1      14.556  11.954  31.027  0.00  0.00    +0.000 C 
BRANCH  16  18
ATOM     17  C   UNL     1      16.264  13.608  30.235  0.00  0.00    +0.000 C 
ATOM     18  C   UNL     1      14.799  13.363  30.502  0.00  0.00    +0.000 C 
ATOM     19  C   UNL     1      14.173  14.399  31.378  0.00  0.00    +0.000 C 
ENDBRANCH  16  18
ENDBRANCH  15  16
ENDBRANCH   1  15
TORSDOF 4
ENDMDL
MODEL 2
REMARK VINA RESULT:      -6.6     18.960     21.108
REMARK  Name = 
REMARK  4 active torsions:
REMARK  status: ('A' for Active; 'I' for Inactive)
REMARK    1  A    between atoms: C_2  and  C_4
REMARK    2  A    between atoms: C_4  and  C_5
REMARK    3  A    between atoms: C_5  and  C_6
REMARK    4  A    between atoms: C_9  and  C_10
REMARK                            x       y       z     vdW  Elec       q    Type
REMARK                         _______ _______ _______ _____ _____    ______ ____
ROOT
ATOM      1  C   UNL     1      33.664   1.446  33.080  0.00  0.00    +0.000 A 
ATOM      2  C   UNL     1      32.691   1.158  34.040  0.00  0.00    +0.000 A 
ATOM      3  C   UNL     1      32.552  -0.152  34.457  0.00  0.00    +0.000 A 
ATOM      4  C   UNL     1      33.355  -1.143  33.935  0.00  0.00    +0.000 A 
ATOM      5  C   UNL     1      34.317  -0.843  32.981  0.00  0.00    +0.000 A 
ATOM      6  C   UNL     1      34.474   0.451  32.551  0.00  0.00    +0.000 A 
ENDROOT
BRANCH   4   7
ATOM      7  C   UNL     1      33.219  -2.554  34.371  0.00  0.00    +0.000 C 
ATOM      8  C   UNL     1      31.891  -2.794  35.037  0.00  0.00    +0.000 C 
ATOM      9  N   UNL     1      33.371  -3.410  33.191  0.00  0.00    +0.000 NA
ATOM     10  C   UNL     1      34.140  -4.534  33.579  0.00  0.00    +0.000 C 
ATOM     11  O   UNL     1      34.305  -5.622  32.966  0.00  0.00    +0.000 OA
ATOM     12  N   UNL     1      34.740  -4.244  34.838  0.00  0.00    +0.000 NA
ATOM     13  C   UNL     1      34.354  -2.947  35.247  0.00  0.00    +0.000 C 
ATOM     14  O   UNL     1      34.878  -2.279  36.164  0.00  0.00    +0.000 OA
ENDBRANCH   4   7
BRANCH   1  15
ATOM     15  C   UNL     1      33.782   2.867  32.657  0.00  0.00    +0.000 C 
BRANCH  15  16
ATOM     16  C   UNL     1      32.996   3.757  33.581  0.00  0.00    +0.000 C 
BRANCH  16  18
ATOM     17  C   UNL     1      34.433   3.923  35.627  0.00  0.00    +0.000 C 
ATOM     18  C   UNL     1      33.945   4.633  34.389  0.00  0.00    +0.000 C 
ATOM     19  C   UNL     1      33.359   5.979  34.667  0.00  0.00    +0.000 C 
ENDBRANCH  16  18
ENDBRANCH  15  16
ENDBRANCH   1  15
TORSDOF 4
ENDMDL
MODEL 3
REMARK VINA RESULT:      -6.4      3.470      6.713
REMARK  Name = 
REMARK  4 active torsions:
REMARK  status: ('A' for Active; 'I' for Inactive)
REMARK    1  A    between atoms: C_2  and  C_4
REMARK    2  A    between atoms: C_4  and  C_5
REMARK    3  A    between atoms: C_5  and  C_6
REMARK    4  A    between atoms: C_9  and  C_10
REMARK                            x       y       z     vdW  Elec       q    Type
REMARK                         _______ _______ _______ _____ _____    ______ ____
ROOT
ATOM      1  C   UNL     1      17.490   9.938  35.814  0.00  0.00    +0.000 A 
ATOM      2  C   UNL     1      16.440  10.767  36.216  0.00  0.00    +0.000 A 
ATOM      3  C   UNL     1      15.725  11.436  35.241  0.00  0.00    +0.000 A 
ATOM      4  C   UNL     1      16.045  11.284  33.908  0.00  0.00    +0.000 A 
ATOM      5  C   UNL     1      17.091  10.458  33.524  0.00  0.00    +0.000 A 
ATOM      6  C   UNL     1      17.815   9.782  34.474  0.00  0.00    +0.000 A 
ENDROOT
BRANCH   4   7
ATOM      7  C   UNL     1      15.289  11.995  32.849  0.00  0.00    +0.000 C 
ATOM      8  C   UNL     1      14.224  12.879  33.438  0.00  0.00    +0.000 C 
ATOM      9  N   UNL     1      16.242  12.782  32.062  0.00  0.00    +0.000 NA
ATOM     10  C   UNL     1      15.862  12.672  30.702  0.00  0.00    +0.000 C 
ATOM     11  O   UNL     1      16.241  13.367  29.723  0.00  0.00    +0.000 OA
ATOM     12  N   UNL     1      14.933  11.599  30.589  0.00  0.00    +0.000 NA
ATOM     13  C   UNL     1      14.725  11.030  31.868  0.00  0.00    +0.000 C 
ATOM     14  O   UNL     1      14.174   9.934  32.104  0.00  0.00    +0.000 OA
ENDBRANCH   4   7
BRANCH   1  15
ATOM     15  C   UNL     1      18.235   9.236  36.893  0.00  0.00    +0.000 C 
BRANCH  15  16
ATOM     16  C   UNL     1      19.585   9.869  37.097  0.00  0.00    +0.000 C 
BRANCH  16  18
ATOM     17  C   UNL     1      18.609  10.080  39.395  0.00  0.00    +0.000 C 
ATOM     18  C   UNL     1      19.601  10.643  38.409  0.00  0.00    +0.000 C 
ATOM     19  C   UNL     1      19.451  12.114  38.189  0.00  0.00    +0.000 C 
ENDBRANCH  16  18
ENDBRANCH  15  16
ENDBRANCH   1  15
TORSDOF 4
ENDMDL
MODEL 4
REMARK VINA RESULT:      -6.3      1.392      2.001
REMARK  Name = 
REMARK  4 active torsions:
REMARK  status: ('A' for Active; 'I' for Inactive)
REMARK    1  A    between atoms: C_2  and  C_4
REMARK    2  A    between atoms: C_4  and  C_5
REMARK    3  A    between atoms: C_5  and  C_6
REMARK    4  A    between atoms: C_9  and  C_10
REMARK                            x       y       z     vdW  Elec       q    Type
REMARK                         _______ _______ _______ _____ _____    ______ ____
ROOT
ATOM      1  C   UNL     1      16.885  10.404  34.346  0.00  0.00    +0.000 A 
ATOM      2  C   UNL     1      17.969   9.583  34.662  0.00  0.00    +0.000 A 
ATOM      3  C   UNL     1      18.332   9.464  35.991  0.00  0.00    +0.000 A 
ATOM      4  C   UNL     1      17.638  10.140  36.971  0.00  0.00    +0.000 A 
ATOM      5  C   UNL     1      16.563  10.953  36.641  0.00  0.00    +0.000 A 
ATOM      6  C   UNL     1      16.183  11.087  35.329  0.00  0.00    +0.000 A 
ENDROOT
BRANCH   4   7
ATOM      7  C   UNL     1      18.015  10.024  38.401  0.00  0.00    +0.000 C 
ATOM      8  C   UNL     1      16.822  10.217  39.297  0.00  0.00    +0.000 C 
ATOM      9  N   UNL     1      18.612   8.701  38.607  0.00  0.00    +0.000 NA
ATOM     10  C   UNL     1      19.711   8.864  39.484  0.00  0.00    +0.000 C 
ATOM     11  O   UNL     1      20.349   7.980  40.115  0.00  0.00    +0.000 OA
ATOM     12  N   UNL     1      20.014  10.254  39.558  0.00  0.00    +0.000 NA
ATOM     13  C   UNL     1      19.114  10.968  38.734  0.00  0.00    +0.000 C 
ATOM     14  O   UNL     1      19.236  12.157  38.369  0.00  0.00    +0.000 OA
ENDBRANCH   4   7
BRANCH   1  15
ATOM     15  C   UNL     1      16.525  10.506  32.906  0.00  0.00    +0.000 C 
BRANCH  15  16
ATOM     16  C   UNL     1      16.274  11.941  32.528  0.00  0.00    +0.000 C 
BRANCH  16  18
ATOM     17  C   UNL     1      16.380  13.398  30.492  0.00  0.00    +0.000 C 
ATOM     18  C   UNL     1      15.998  12.043  31.033  0.00  0.00    +0.000 C 
ATOM     19  C   UNL     1      14.600  11.640  30.697  0.00  0.00    +0.000 C 
ENDBRANCH  16  18
ENDBRANCH  15  16
ENDBRANCH   1  15
TORSDOF 4
ENDMDL
MODEL 5
REMARK VINA RESULT:      -6.1     18.698     20.403
REMARK  Name = 
REMARK  4 active torsions:
REMARK  status: ('A' for Active; 'I' for Inactive)
REMARK    1  A    between atoms: C_2  and  C_4
REMARK    2  A    between atoms: C_4  and  C_5
REMARK    3  A    between atoms: C_5  and  C_6
REMARK    4  A    between atoms: C_9  and  C_10
REMARK                            x       y       z     vdW  Elec       q    Type
REMARK                         _______ _______ _______ _____ _____    ______ ____
ROOT
ATOM      1  C   UNL     1      33.605   3.825  34.617  0.00  0.00    +0.000 A 
ATOM      2  C   UNL     1      33.913   3.231  35.843  0.00  0.00    +0.000 A 
ATOM      3  C   UNL     1      34.008   1.853  35.897  0.00  0.00    +0.000 A 
ATOM      4  C   UNL     1      33.801   1.092  34.766  0.00  0.00    +0.000 A 
ATOM      5  C   UNL     1      33.495   1.695  33.555  0.00  0.00    +0.000 A 
ATOM      6  C   UNL     1      33.396   3.062  33.476  0.00  0.00    +0.000 A 
ENDROOT
BRANCH   4   7
ATOM      7  C   UNL     1      33.898  -0.388  34.806  0.00  0.00    +0.000 C 
ATOM      8  C   UNL     1      33.998  -0.966  33.421  0.00  0.00    +0.000 C 
ATOM      9  N   UNL     1      35.074  -0.744  35.606  0.00  0.00    +0.000 NA
ATOM     10  C   UNL     1      34.722  -1.861  36.402  0.00  0.00    +0.000 C 
ATOM     11  O   UNL     1      35.479  -2.635  37.045  0.00  0.00    +0.000 OA
ATOM     12  N   UNL     1      33.305  -1.994  36.374  0.00  0.00    +0.000 NA
ATOM     13  C   UNL     1      32.759  -0.969  35.566  0.00  0.00    +0.000 C 
ATOM     14  O   UNL     1      31.557  -0.634  35.515  0.00  0.00    +0.000 OA
ENDBRANCH   4   7
BRANCH   1  15
ATOM     15  C   UNL     1      33.513   5.309  34.600  0.00  0.00    +0.000 C 
BRANCH  15  16
ATOM     16  C   UNL     1      34.335   5.899  35.714  0.00  0.00    +0.000 C 
BRANCH  16  18
ATOM     17  C   UNL     1      36.779   5.373  35.544  0.00  0.00    +0.000 C 
ATOM     18  C   UNL     1      35.688   6.349  35.177  0.00  0.00    +0.000 C 
ATOM     19  C   UNL     1      35.998   7.759  35.561  0.00  0.00    +0.000 C 
ENDBRANCH  16  18
ENDBRANCH  15  16
ENDBRANCH   1  15
TORSDOF 4
ENDMDL
MODEL 6
REMARK VINA RESULT:      -6.0     17.688     19.951
REMARK  Name = 
REMARK  4 active torsions:
REMARK  status: ('A' for Active; 'I' for Inactive)
REMARK    1  A    between atoms: C_2  and  C_4
REMARK    2  A    between atoms: C_4  and  C_5
REMARK    3  A    between atoms: C_5  and  C_6
REMARK    4  A    between atoms: C_9  and  C_10
REMARK                            x       y       z     vdW  Elec       q    Type
REMARK                         _______ _______ _______ _____ _____    ______ ____
ROOT
ATOM      1  C   UNL     1      27.452  22.807  27.805  0.00  0.00    +0.000 A 
ATOM      2  C   UNL     1      26.525  23.812  27.521  0.00  0.00    +0.000 A 
ATOM      3  C   UNL     1      26.515  24.351  26.248  0.00  0.00    +0.000 A 
ATOM      4  C   UNL     1      27.399  23.903  25.290  0.00  0.00    +0.000 A 
ATOM      5  C   UNL     1      28.315  22.905  25.587  0.00  0.00    +0.000 A 
ATOM      6  C   UNL     1      28.344  22.354  26.844  0.00  0.00    +0.000 A 
ENDROOT
BRANCH   4   7
ATOM      7  C   UNL     1      27.402  24.470  23.919  0.00  0.00    +0.000 C 
ATOM      8  C   UNL     1      26.838  25.865  23.904  0.00  0.00    +0.000 C 
ATOM      9  N   UNL     1      28.784  24.463  23.428  0.00  0.00    +0.000 NA
ATOM     10  C   UNL     1      28.747  24.079  22.066  0.00  0.00    +0.000 C 
ATOM     11  O   UNL     1      29.655  24.175  21.199  0.00  0.00    +0.000 OA
ATOM     12  N   UNL     1      27.458  23.536  21.795  0.00  0.00    +0.000 NA
ATOM     13  C   UNL     1      26.682  23.574  22.977  0.00  0.00    +0.000 C 
ATOM     14  O   UNL     1      25.608  22.966  23.170  0.00  0.00    +0.000 OA
ENDBRANCH   4   7
BRANCH   1  15
ATOM     15  C   UNL     1      27.432  22.253  29.185  0.00  0.00    +0.000 C 
BRANCH  15  16
ATOM     16  C   UNL     1      28.128  23.189  30.137  0.00  0.00    +0.000 C 
BRANCH  16  18
ATOM     17  C   UNL     1      29.897  22.444  31.747  0.00  0.00    +0.000 C 
ATOM     18  C   UNL     1      29.582  22.767  30.308  0.00  0.00    +0.000 C 
ATOM     19  C   UNL     1      30.522  23.756  29.700  0.00  0.00    +0.000 C 
ENDBRANCH  16  18
ENDBRANCH  15  16
ENDBRANCH   1  15
TORSDOF 4
ENDMDL
MODEL 7
REMARK VINA RESULT:      -5.7     18.960     20.801
REMARK  Name = 
REMARK  4 active torsions:
REMARK  status: ('A' for Active; 'I' for Inactive)
REMARK    1  A    between atoms: C_2  and  C_4
REMARK    2  A    between atoms: C_4  and  C_5
REMARK    3  A    between atoms: C_5  and  C_6
REMARK    4  A    between atoms: C_9  and  C_10
REMARK                            x       y       z     vdW  Elec       q    Type
REMARK                         _______ _______ _______ _____ _____    ______ ____
ROOT
ATOM      1  C   UNL     1      30.895  22.649  26.736  0.00  0.00    +0.000 A 
ATOM      2  C   UNL     1      31.530  23.377  25.728  0.00  0.00    +0.000 A 
ATOM      3  C   UNL     1      30.767  23.822  24.664  0.00  0.00    +0.000 A 
ATOM      4  C   UNL     1      29.417  23.549  24.606  0.00  0.00    +0.000 A 
ATOM      5  C   UNL     1      28.801  22.822  25.615  0.00  0.00    +0.000 A 
ATOM      6  C   UNL     1      29.536  22.371  26.682  0.00  0.00    +0.000 A 
ENDROOT
BRANCH   4   7
ATOM      7  C   UNL     1      28.585  24.017  23.471  0.00  0.00    +0.000 C 
ATOM      8  C   UNL     1      29.439  24.494  22.328  0.00  0.00    +0.000 C 
ATOM      9  N   UNL     1      27.725  22.906  23.051  0.00  0.00    +0.000 NA
ATOM     10  C   UNL     1      26.450  23.446  22.755  0.00  0.00    +0.000 C 
ATOM     11  O   UNL     1      25.495  22.908  22.136  0.00  0.00    +0.000 OA
ATOM     12  N   UNL     1      26.396  24.766  23.288  0.00  0.00    +0.000 NA
ATOM     13  C   UNL     1      27.627  25.062  23.918  0.00  0.00    +0.000 C 
ATOM     14  O   UNL     1      27.845  26.018  24.692  0.00  0.00    +0.000 OA
ENDBRANCH   4   7
BRANCH   1  15
ATOM     15  C   UNL     1      31.748  22.189  27.864  0.00  0.00    +0.000 C 
BRANCH  15  16
ATOM     16  C   UNL     1      31.019  22.342  29.172  0.00  0.00    +0.000 C 
BRANCH  16  18
ATOM     17  C   UNL     1      33.247  21.465  29.910  0.00  0.00    +0.000 C 
ATOM     18  C   UNL     1      31.996  22.197  30.331  0.00  0.00    +0.000 C 
ATOM     19  C   UNL     1      31.342  21.611  31.540  0.00  0.00    +0.000 C 
ENDBRANCH  16  18
ENDBRANCH  15  16
ENDBRANCH   1  15
TORSDOF 4
ENDMDL
MODEL 8
REMARK VINA RESULT:      -5.7     20.251     21.502
REMARK  Name = 
REMARK  4 active torsions:
REMARK  status: ('A' for Active; 'I' for Inactive)
REMARK    1  A    between atoms: C_2  and  C_4
REMARK    2  A    between atoms: C_4  and  C_5
REMARK    3  A    between atoms: C_5  and  C_6
REMARK    4  A    between atoms: C_9  and  C_10
REMARK                            x       y       z     vdW  Elec       q    Type
REMARK                         _______ _______ _______ _____ _____    ______ ____
ROOT
ATOM      1  C   UNL     1      24.998   2.878  17.939  0.00  0.00    +0.000 A 
ATOM      2  C   UNL     1      24.925   3.925  18.860  0.00  0.00    +0.000 A 
ATOM      3  C   UNL     1      25.854   4.945  18.764  0.00  0.00    +0.000 A 
ATOM      4  C   UNL     1      26.823   4.921  17.784  0.00  0.00    +0.000 A 
ATOM      5  C   UNL     1      26.883   3.873  16.877  0.00  0.00    +0.000 A 
ATOM      6  C   UNL     1      25.972   2.850  16.951  0.00  0.00    +0.000 A 
ENDROOT
BRANCH   4   7
ATOM      7  C   UNL     1      27.827   6.006  17.668  0.00  0.00    +0.000 C 
ATOM      8  C   UNL     1      27.918   6.805  18.940  0.00  0.00    +0.000 C 
ATOM      9  N   UNL     1      29.120   5.394  17.345  0.00  0.00    +0.000 NA
ATOM     10  C   UNL     1      29.755   6.225  16.390  0.00  0.00    +0.000 C 
ATOM     11  O   UNL     1      30.959   6.218  16.021  0.00  0.00    +0.000 OA
ATOM     12  N   UNL     1      28.780   7.126  15.873  0.00  0.00    +0.000 NA
ATOM     13  C   UNL     1      27.536   6.869  16.494  0.00  0.00    +0.000 C 
ATOM     14  O   UNL     1      26.424   7.294  16.115  0.00  0.00    +0.000 OA
ENDBRANCH   4   7
BRANCH   1  15
ATOM     15  C   UNL     1      23.981   1.801  18.075  0.00  0.00    +0.000 C 
BRANCH  15  16
ATOM     16  C   UNL     1      22.608   2.393  18.250  0.00  0.00    +0.000 C 
BRANCH  16  18
ATOM     17  C   UNL     1      21.980   0.776  16.442  0.00  0.00    +0.000 C 
ATOM     18  C   UNL     1      21.555   1.419  17.738  0.00  0.00    +0.000 C 
ATOM     19  C   UNL     1      20.201   2.048  17.675  0.00  0.00    +0.000 C 
ENDBRANCH  16  18
ENDBRANCH  15  16
ENDBRANCH   1  15
TORSDOF 4
ENDMDL
MODEL 9
REMARK VINA RESULT:      -5.7     17.711     19.264
REMARK  Name = 
REMARK  4 active torsions:
REMARK  status: ('A' for Active; 'I' for Inactive)
REMARK    1  A    between atoms: C_2  and  C_4
REMARK    2  A    between atoms: C_4  and  C_5
REMARK    3  A    between atoms: C_5  and  C_6
REMARK    4  A    between atoms: C_9  and  C_10
REMARK                            x       y       z     vdW  Elec       q    Type
REMARK                         _______ _______ _______ _____ _____    ______ ____
ROOT
ATOM      1  C   UNL     1      33.566   4.293  34.362  0.00  0.00    +0.000 A 
ATOM      2  C   UNL     1      33.010   5.571  34.275  0.00  0.00    +0.000 A 
ATOM      3  C   UNL     1      33.583   6.585  35.020  0.00  0.00    +0.000 A 
ATOM      4  C   UNL     1      34.673   6.334  35.825  0.00  0.00    +0.000 A 
ATOM      5  C   UNL     1      35.214   5.058  35.902  0.00  0.00    +0.000 A 
ATOM      6  C   UNL     1      34.663   4.036  35.171  0.00  0.00    +0.000 A 
ENDROOT
BRANCH   4   7
ATOM      7  C   UNL     1      35.300   7.409  36.632  0.00  0.00    +0.000 C 
ATOM      8  C   UNL     1      36.559   6.928  37.300  0.00  0.00    +0.000 C 
ATOM      9  N   UNL     1      35.582   8.538  35.740  0.00  0.00    +0.000 NA
ATOM     10  C   UNL     1      35.269   9.725  36.447  0.00  0.00    +0.000 C 
ATOM     11  O   UNL     1      35.581  10.912  36.165  0.00  0.00    +0.000 OA
ATOM     12  N   UNL     1      34.503   9.366  37.593  0.00  0.00    +0.000 NA
ATOM     13  C   UNL     1      34.331   7.962  37.614  0.00  0.00    +0.000 C 
ATOM     14  O   UNL     1      33.519   7.332  38.325  0.00  0.00    +0.000 OA
ENDBRANCH   4   7
BRANCH   1  15
ATOM     15  C   UNL     1      32.922   3.230  33.545  0.00  0.00    +0.000 C 
BRANCH  15  16
ATOM     16  C   UNL     1      33.958   2.464  32.768  0.00  0.00    +0.000 C 
BRANCH  16  18
ATOM     17  C   UNL     1      32.863   0.568  33.987  0.00  0.00    +0.000 C 
ATOM     18  C   UNL     1      33.593   0.986  32.734  0.00  0.00    +0.000 C 
ATOM     19  C   UNL     1      34.775   0.127  32.421  0.00  0.00    +0.000 C 
ENDBRANCH  16  18
ENDBRANCH  15  16
ENDBRANCH   1  15
TORSDOF 4
ENDMDL
MODEL 10
REMARK VINA RESULT:      -5.6     17.199     19.043
REMARK  Name = 
REMARK  4 active torsions:
REMARK  status: ('A' for Active; 'I' for Inactive)
REMARK    1  A    between atoms: C_2  and  C_4
REMARK    2  A    between atoms: C_4  and  C_5
REMARK    3  A    between atoms: C_5  and  C_6
REMARK    4  A    between atoms: C_9  and  C_10
REMARK                            x       y       z     vdW  Elec       q    Type
REMARK                         _______ _______ _______ _____ _____    ______ ____
ROOT
ATOM      1  C   UNL     1      35.279   6.104  35.915  0.00  0.00    +0.000 A 
ATOM      2  C   UNL     1      34.334   6.724  36.736  0.00  0.00    +0.000 A 
ATOM      3  C   UNL     1      34.326   8.105  36.794  0.00  0.00    +0.000 A 
ATOM      4  C   UNL     1      35.228   8.844  36.060  0.00  0.00    +0.000 A 
ATOM      5  C   UNL     1      36.162   8.214  35.249  0.00  0.00    +0.000 A 
ATOM      6  C   UNL     1      36.190   6.844  35.174  0.00  0.00    +0.000 A 
ENDROOT
BRANCH   4   7
ATOM      7  C   UNL     1      35.233  10.326  36.111  0.00  0.00    +0.000 C 
ATOM      8  C   UNL     1      35.833  10.914  34.863  0.00  0.00    +0.000 C 
ATOM      9  N   UNL     1      33.850  10.778  36.286  0.00  0.00    +0.000 NA
ATOM     10  C   UNL     1      33.870  11.859  37.201  0.00  0.00    +0.000 C 
ATOM     11  O   UNL     1      32.960  12.694  37.449  0.00  0.00    +0.000 OA
ATOM     12  N   UNL     1      35.143  11.872  37.840  0.00  0.00    +0.000 NA
ATOM     13  C   UNL     1      35.925  10.808  37.336  0.00  0.00    +0.000 C 
ATOM     14  O   UNL     1      36.984  10.373  37.836  0.00  0.00    +0.000 OA
ENDBRANCH   4   7
BRANCH   1  15
ATOM     15  C   UNL     1      35.256   4.617  35.879  0.00  0.00    +0.000 C 
BRANCH  15  16
ATOM     16  C   UNL     1      33.895   4.122  35.472  0.00  0.00    +0.000 C 
BRANCH  16  18
ATOM     17  C   UNL     1      32.432   5.296  33.811  0.00  0.00    +0.000 C 
ATOM     18  C   UNL     1      33.651   4.428  34.000  0.00  0.00    +0.000 C 
ATOM     19  C   UNL     1      33.631   3.186  33.169  0.00  0.00    +0.000 C 
ENDBRANCH  16  18
ENDBRANCH  15  16
ENDBRANCH   1  15
TORSDOF 4
ENDMDL
