MODEL 1
REMARK VINA RESULT:      -8.5      0.000      0.000
REMARK  Name = 
REMARK  6 active torsions:
REMARK  status: ('A' for Active; 'I' for Inactive)
REMARK    1  A    between atoms: C_2  and  C_3
REMARK    2  A    between atoms: C_3  and  C_6
REMARK    3  A    between atoms: C_9  and  O_10
REMARK    4  A    between atoms: O_10  and  C_11
REMARK    5  A    between atoms: C_14  and  N_15
REMARK    6  A    between atoms: N_18  and  C_19
REMARK                            x       y       z     vdW  Elec       q    Type
REMARK                         _______ _______ _______ _____ _____    ______ ____
ROOT
ATOM      1  C   UNL     1      38.250   4.672  15.938  0.00  0.00    +0.000 A 
ATOM      2  C   UNL     1      37.099   3.932  16.008  0.00  0.00    +0.000 A 
ATOM      3  C   UNL     1      36.962   2.739  15.336  0.00  0.00    +0.000 A 
ATOM      4  C   UNL     1      37.969   2.224  14.563  0.00  0.00    +0.000 A 
ATOM      5  C   UNL     1      39.133   2.949  14.484  0.00  0.00    +0.000 A 
ATOM      6  C   UNL     1      39.286   4.151  15.149  0.00  0.00    +0.000 A 
ENDROOT
BRANCH   4   7
ATOM      7  N   UNL     1      37.787   1.037  13.841  0.00  0.00    +0.000 NA
ATOM      8  C   UNL     1      37.834  -0.198  14.591  0.00  0.00    +0.000 C 
ATOM      9  N   UNL     1      37.859  -0.322  15.855  0.00  0.00    +0.000 NA
ATOM     10  N   UNL     1      37.899  -1.659  16.282  0.00  0.00    +0.000 N 
ATOM     11  C   UNL     1      37.900  -2.459  15.117  0.00  0.00    +0.000 C 
ATOM     12  O   UNL     1      37.923  -3.710  15.080  0.00  0.00    +0.000 OA
ATOM     13  C   UNL     1      37.866  -1.523  13.957  0.00  0.00    +0.000 C 
BRANCH  10  14
ATOM     14  C   UNL     1      37.916  -2.076  17.667  0.00  0.00    +0.000 A 
ATOM     15  C   UNL     1      37.108  -1.483  18.610  0.00  0.00    +0.000 A 
ATOM     16  C   UNL     1      37.108  -1.879  19.944  0.00  0.00    +0.000 A 
ATOM     17  C   UNL     1      37.934  -2.903  20.380  0.00  0.00    +0.000 A 
ATOM     18  C   UNL     1      38.744  -3.498  19.438  0.00  0.00    +0.000 A 
ATOM     19  C   UNL     1      38.741  -3.097  18.099  0.00  0.00    +0.000 A 
ENDBRANCH  10  14
ENDBRANCH   4   7
BRANCH   1  20
ATOM     20  O   UNL     1      38.429   5.887  16.601  0.00  0.00    +0.000 OA
BRANCH  20  24
ATOM     21  C   UNL     1      41.700   6.535  19.205  0.00  0.00    +0.000 A 
ATOM     22  C   UNL     1      41.816   6.631  17.821  0.00  0.00    +0.000 A 
ATOM     23  C   UNL     1      40.740   6.415  17.001  0.00  0.00    +0.000 A 
ATOM     24  C   UNL     1      39.467   6.088  17.494  0.00  0.00    +0.000 A 
ATOM     25  C   UNL     1      39.367   5.996  18.856  0.00  0.00    +0.000 A 
ATOM     26  C   UNL     1      40.455   6.214  19.682  0.00  0.00    +0.000 A 
BRANCH  21  27
ATOM     27  C   UNL     1      42.889   6.787  20.078  0.00  0.00    +0.000 C 
ATOM     28  C   UNL     1      42.773   8.186  20.692  0.00  0.00    +0.000 C 
ATOM     29  C   UNL     1      44.190   6.744  19.323  0.00  0.00    +0.000 C 
BRANCH  27  31
ATOM     30  C   UNL     1      44.217   6.069  22.041  0.00  0.00    +0.000 C 
ATOM     31  C   UNL     1      42.937   5.828  21.253  0.00  0.00    +0.000 C 
ENDBRANCH  27  31
ENDBRANCH  21  27
ENDBRANCH  20  24
ENDBRANCH   1  20
TORSDOF 6
ENDMDL
MODEL 2
REMARK VINA RESULT:      -8.4      2.279      3.298
REMARK  Name = 
REMARK  6 active torsions:
REMARK  status: ('A' for Active; 'I' for Inactive)
REMARK    1  A    between atoms: C_2  and  C_3
REMARK    2  A    between atoms: C_3  and  C_6
REMARK    3  A    between atoms: C_9  and  O_10
REMARK    4  A    between atoms: O_10  and  C_11
REMARK    5  A    between atoms: C_14  and  N_15
REMARK    6  A    between atoms: N_18  and  C_19
REMARK                            x       y       z     vdW  Elec       q    Type
REMARK                         _______ _______ _______ _____ _____    ______ ____
ROOT
ATOM      1  C   UNL     1      36.851   3.905  15.735  0.00  0.00    +0.000 A 
ATOM      2  C   UNL     1      36.167   3.285  14.722  0.00  0.00    +0.000 A 
ATOM      3  C   UNL     1      35.605   2.039  14.884  0.00  0.00    +0.000 A 
ATOM      4  C   UNL     1      35.694   1.353  16.067  0.00  0.00    +0.000 A 
ATOM      5  C   UNL     1      36.371   1.961  17.095  0.00  0.00    +0.000 A 
ATOM      6  C   UNL     1      36.945   3.209  16.949  0.00  0.00    +0.000 A 
ENDROOT
BRANCH   4   7
ATOM      7  N   UNL     1      35.164   0.062  16.192  0.00  0.00    +0.000 NA
ATOM      8  C   UNL     1      35.953  -1.023  15.653  0.00  0.00    +0.000 C 
ATOM      9  N   UNL     1      37.147  -0.959  15.226  0.00  0.00    +0.000 NA
ATOM     10  N   UNL     1      37.641  -2.191  14.769  0.00  0.00    +0.000 N 
ATOM     11  C   UNL     1      36.604  -3.135  14.940  0.00  0.00    +0.000 C 
ATOM     12  O   UNL     1      36.659  -4.353  14.655  0.00  0.00    +0.000 OA
ATOM     13  C   UNL     1      35.447  -2.397  15.522  0.00  0.00    +0.000 C 
BRANCH  10  14
ATOM     14  C   UNL     1      38.976  -2.395  14.249  0.00  0.00    +0.000 A 
ATOM     15  C   UNL     1      39.197  -2.713  12.929  0.00  0.00    +0.000 A 
ATOM     16  C   UNL     1      40.475  -2.905  12.413  0.00  0.00    +0.000 A 
ATOM     17  C   UNL     1      41.592  -2.781  13.224  0.00  0.00    +0.000 A 
ATOM     18  C   UNL     1      41.374  -2.464  14.546  0.00  0.00    +0.000 A 
ATOM     19  C   UNL     1      40.088  -2.272  15.060  0.00  0.00    +0.000 A 
ENDBRANCH  10  14
ENDBRANCH   4   7
BRANCH   1  20
ATOM     20  O   UNL     1      37.437   5.166  15.611  0.00  0.00    +0.000 OA
BRANCH  20  24
ATOM     21  C   UNL     1      40.530   6.491  18.175  0.00  0.00    +0.000 A 
ATOM     22  C   UNL     1      40.778   6.005  16.893  0.00  0.00    +0.000 A 
ATOM     23  C   UNL     1      39.756   5.582  16.084  0.00  0.00    +0.000 A 
ATOM     24  C   UNL     1      38.412   5.609  16.487  0.00  0.00    +0.000 A 
ATOM     25  C   UNL     1      38.183   6.088  17.748  0.00  0.00    +0.000 A 
ATOM     26  C   UNL     1      39.215   6.514  18.564  0.00  0.00    +0.000 A 
BRANCH  21  27
ATOM     27  C   UNL     1      41.664   6.957  19.033  0.00  0.00    +0.000 C 
ATOM     28  C   UNL     1      41.529   8.466  19.266  0.00  0.00    +0.000 C 
ATOM     29  C   UNL     1      43.011   6.728  18.403  0.00  0.00    +0.000 C 
BRANCH  27  31
ATOM     30  C   UNL     1      43.037   6.226  20.959  0.00  0.00    +0.000 C 
ATOM     31  C   UNL     1      41.620   6.326  20.413  0.00  0.00    +0.000 C 
ENDBRANCH  27  31
ENDBRANCH  21  27
ENDBRANCH  20  24
ENDBRANCH   1  20
TORSDOF 6
ENDMDL
MODEL 3
REMARK VINA RESULT:      -8.4      2.170      2.956
REMARK  Name = 
REMARK  6 active torsions:
REMARK  status: ('A' for Active; 'I' for Inactive)
REMARK    1  A    between atoms: C_2  and  C_3
REMARK    2  A    between atoms: C_3  and  C_6
REMARK    3  A    between atoms: C_9  and  O_10
REMARK    4  A    between atoms: O_10  and  C_11
REMARK    5  A    between atoms: C_14  and  N_15
REMARK    6  A    between atoms: N_18  and  C_19
REMARK                            x       y       z     vdW  Elec       q    Type
REMARK                         _______ _______ _______ _____ _____    ______ ____
ROOT
ATOM      1  C   UNL     1      38.988   5.726  16.945  0.00  0.00    +0.000 A 
ATOM      2  C   UNL     1      38.641   4.861  17.950  0.00  0.00    +0.000 A 
ATOM      3  C   UNL     1      37.708   3.867  17.761  0.00  0.00    +0.000 A 
ATOM      4  C   UNL     1      37.078   3.686  16.558  0.00  0.00    +0.000 A 
ATOM      5  C   UNL     1      37.415   4.540  15.538  0.00  0.00    +0.000 A 
ATOM      6  C   UNL     1      38.347   5.546  15.711  0.00  0.00    +0.000 A 
ENDROOT
BRANCH   4   7
ATOM      7  N   UNL     1      36.089   2.705  16.405  0.00  0.00    +0.000 NA
ATOM      8  C   UNL     1      36.521   1.408  15.935  0.00  0.00    +0.000 C 
ATOM      9  N   UNL     1      37.719   1.006  15.801  0.00  0.00    +0.000 NA
ATOM     10  N   UNL     1      37.813  -0.311  15.325  0.00  0.00    +0.000 N 
ATOM     11  C   UNL     1      36.491  -0.775  15.143  0.00  0.00    +0.000 C 
ATOM     12  O   UNL     1      36.156  -1.910  14.736  0.00  0.00    +0.000 OA
ATOM     13  C   UNL     1      35.589   0.347  15.531  0.00  0.00    +0.000 C 
BRANCH  10  14
ATOM     14  C   UNL     1      39.058  -1.014  15.101  0.00  0.00    +0.000 A 
ATOM     15  C   UNL     1      40.101  -0.436  14.415  0.00  0.00    +0.000 A 
ATOM     16  C   UNL     1      41.307  -1.097  14.198  0.00  0.00    +0.000 A 
ATOM     17  C   UNL     1      41.506  -2.383  14.676  0.00  0.00    +0.000 A 
ATOM     18  C   UNL     1      40.463  -2.964  15.363  0.00  0.00    +0.000 A 
ATOM     19  C   UNL     1      39.254  -2.296  15.577  0.00  0.00    +0.000 A 
ENDBRANCH  10  14
ENDBRANCH   4   7
BRANCH   1  20
ATOM     20  O   UNL     1      39.927   6.748  17.096  0.00  0.00    +0.000 OA
BRANCH  20  24
ATOM     21  C   UNL     1      43.027   6.645  19.972  0.00  0.00    +0.000 A 
ATOM     22  C   UNL     1      43.274   6.818  18.612  0.00  0.00    +0.000 A 
ATOM     23  C   UNL     1      42.250   6.847  17.702  0.00  0.00    +0.000 A 
ATOM     24  C   UNL     1      40.904   6.706  18.074  0.00  0.00    +0.000 A 
ATOM     25  C   UNL     1      40.676   6.536  19.413  0.00  0.00    +0.000 A 
ATOM     26  C   UNL     1      41.711   6.507  20.330  0.00  0.00    +0.000 A 
BRANCH  21  27
ATOM     27  C   UNL     1      44.164   6.629  20.945  0.00  0.00    +0.000 C 
ATOM     28  C   UNL     1      44.376   8.045  21.491  0.00  0.00    +0.000 C 
ATOM     29  C   UNL     1      45.464   6.198  20.322  0.00  0.00    +0.000 C 
BRANCH  27  31
ATOM     30  C   UNL     1      44.207   6.539  23.419  0.00  0.00    +0.000 C 
ATOM     31  C   UNL     1      43.855   5.767  22.155  0.00  0.00    +0.000 C 
ENDBRANCH  27  31
ENDBRANCH  21  27
ENDBRANCH  20  24
ENDBRANCH   1  20
TORSDOF 6
ENDMDL
MODEL 4
REMARK VINA RESULT:      -8.1     18.630     22.069
REMARK  Name = 
REMARK  6 active torsions:
REMARK  status: ('A' for Active; 'I' for Inactive)
REMARK    1  A    between atoms: C_2  and  C_3
REMARK    2  A    between atoms: C_3  and  C_6
REMARK    3  A    between atoms: C_9  and  O_10
REMARK    4  A    between atoms: O_10  and  C_11
REMARK    5  A    between atoms: C_14  and  N_15
REMARK    6  A    between atoms: N_18  and  C_19
REMARK                            x       y       z     vdW  Elec       q    Type
REMARK                         _______ _______ _______ _____ _____    ______ ____
ROOT
ATOM      1  C   UNL     1      25.755  17.980  21.362  0.00  0.00    +0.000 A 
ATOM      2  C   UNL     1      26.274  16.719  21.493  0.00  0.00    +0.000 A 
ATOM      3  C   UNL     1      27.505  16.384  20.978  0.00  0.00    +0.000 A 
ATOM      4  C   UNL     1      28.282  17.295  20.310  0.00  0.00    +0.000 A 
ATOM      5  C   UNL     1      27.781  18.566  20.172  0.00  0.00    +0.000 A 
ATOM      6  C   UNL     1      26.544  18.918  20.679  0.00  0.00    +0.000 A 
ENDROOT
BRANCH   4   7
ATOM      7  N   UNL     1      29.506  16.917  19.743  0.00  0.00    +0.000 NA
ATOM      8  C   UNL     1      30.687  17.100  20.557  0.00  0.00    +0.000 C 
ATOM      9  N   UNL     1      30.724  17.411  21.788  0.00  0.00    +0.000 NA
ATOM     10  N   UNL     1      32.028  17.510  22.298  0.00  0.00    +0.000 N 
ATOM     11  C   UNL     1      32.906  17.219  21.230  0.00  0.00    +0.000 C 
ATOM     12  O   UNL     1      34.157  17.197  21.286  0.00  0.00    +0.000 OA
ATOM     13  C   UNL     1      32.053  16.947  20.038  0.00  0.00    +0.000 C 
BRANCH  10  14
ATOM     14  C   UNL     1      32.348  17.832  23.671  0.00  0.00    +0.000 A 
ATOM     15  C   UNL     1      32.689  16.859  24.582  0.00  0.00    +0.000 A 
ATOM     16  C   UNL     1      33.006  17.155  25.904  0.00  0.00    +0.000 A 
ATOM     17  C   UNL     1      32.992  18.464  26.360  0.00  0.00    +0.000 A 
ATOM     18  C   UNL     1      32.651  19.440  25.451  0.00  0.00    +0.000 A 
ATOM     19  C   UNL     1      32.333  19.138  24.124  0.00  0.00    +0.000 A 
ENDBRANCH  10  14
ENDBRANCH   4   7
BRANCH   1  20
ATOM     20  O   UNL     1      24.510  18.360  21.867  0.00  0.00    +0.000 OA
BRANCH  20  24
ATOM     21  C   UNL     1      21.228  19.028  19.283  0.00  0.00    +0.000 A 
ATOM     22  C   UNL     1      21.889  17.804  19.351  0.00  0.00    +0.000 A 
ATOM     23  C   UNL     1      22.950  17.615  20.198  0.00  0.00    +0.000 A 
ATOM     24  C   UNL     1      23.435  18.628  21.039  0.00  0.00    +0.000 A 
ATOM     25  C   UNL     1      22.777  19.826  20.961  0.00  0.00    +0.000 A 
ATOM     26  C   UNL     1      21.707  20.015  20.106  0.00  0.00    +0.000 A 
BRANCH  21  27
ATOM     27  C   UNL     1      20.065  19.203  18.358  0.00  0.00    +0.000 C 
ATOM     28  C   UNL     1      20.429  18.632  16.982  0.00  0.00    +0.000 C 
ATOM     29  C   UNL     1      19.691  20.645  18.151  0.00  0.00    +0.000 C 
BRANCH  27  31
ATOM     30  C   UNL     1      18.000  18.058  17.612  0.00  0.00    +0.000 C 
ATOM     31  C   UNL     1      18.855  18.411  18.820  0.00  0.00    +0.000 C 
ENDBRANCH  27  31
ENDBRANCH  21  27
ENDBRANCH  20  24
ENDBRANCH   1  20
TORSDOF 6
ENDMDL
MODEL 5
REMARK VINA RESULT:      -8.1      2.440      3.668
REMARK  Name = 
REMARK  6 active torsions:
REMARK  status: ('A' for Active; 'I' for Inactive)
REMARK    1  A    between atoms: C_2  and  C_3
REMARK    2  A    between atoms: C_3  and  C_6
REMARK    3  A    between atoms: C_9  and  O_10
REMARK    4  A    between atoms: O_10  and  C_11
REMARK    5  A    between atoms: C_14  and  N_15
REMARK    6  A    between atoms: N_18  and  C_19
REMARK                            x       y       z     vdW  Elec       q    Type
REMARK                         _______ _______ _______ _____ _____    ______ ____
ROOT
ATOM      1  C   UNL     1      39.797   6.260  17.173  0.00  0.00    +0.000 A 
ATOM      2  C   UNL     1      39.194   5.428  18.080  0.00  0.00    +0.000 A 
ATOM      3  C   UNL     1      38.226   4.525  17.703  0.00  0.00    +0.000 A 
ATOM      4  C   UNL     1      37.815   4.406  16.402  0.00  0.00    +0.000 A 
ATOM      5  C   UNL     1      38.410   5.228  15.477  0.00  0.00    +0.000 A 
ATOM      6  C   UNL     1      39.381   6.144  15.838  0.00  0.00    +0.000 A 
ENDROOT
BRANCH   4   7
ATOM      7  N   UNL     1      36.786   3.521  16.050  0.00  0.00    +0.000 NA
ATOM      8  C   UNL     1      37.182   2.244  15.501  0.00  0.00    +0.000 C 
ATOM      9  N   UNL     1      38.358   1.766  15.452  0.00  0.00    +0.000 NA
ATOM     10  N   UNL     1      38.418   0.495  14.859  0.00  0.00    +0.000 N 
ATOM     11  C   UNL     1      37.097   0.152  14.497  0.00  0.00    +0.000 C 
ATOM     12  O   UNL     1      36.734  -0.913  13.947  0.00  0.00    +0.000 OA
ATOM     13  C   UNL     1      36.233   1.298  14.899  0.00  0.00    +0.000 C 
BRANCH  10  14
ATOM     14  C   UNL     1      39.631  -0.276  14.697  0.00  0.00    +0.000 A 
ATOM     15  C   UNL     1      39.729  -1.573  15.143  0.00  0.00    +0.000 A 
ATOM     16  C   UNL     1      40.887  -2.330  14.987  0.00  0.00    +0.000 A 
ATOM     17  C   UNL     1      42.003  -1.795  14.364  0.00  0.00    +0.000 A 
ATOM     18  C   UNL     1      41.909  -0.496  13.916  0.00  0.00    +0.000 A 
ATOM     19  C   UNL     1      40.744   0.260  14.076  0.00  0.00    +0.000 A 
ENDBRANCH  10  14
ENDBRANCH   4   7
BRANCH   1  20
ATOM     20  O   UNL     1      40.780   7.190  17.513  0.00  0.00    +0.000 OA
BRANCH  20  24
ATOM     21  C   UNL     1      43.581   6.373  20.577  0.00  0.00    +0.000 A 
ATOM     22  C   UNL     1      42.214   6.480  20.823  0.00  0.00    +0.000 A 
ATOM     23  C   UNL     1      41.329   6.746  19.811  0.00  0.00    +0.000 A 
ATOM     24  C   UNL     1      41.735   6.926  18.479  0.00  0.00    +0.000 A 
ATOM     25  C   UNL     1      43.081   6.820  18.253  0.00  0.00    +0.000 A 
ATOM     26  C   UNL     1      43.972   6.551  19.275  0.00  0.00    +0.000 A 
BRANCH  21  27
ATOM     27  C   UNL     1      44.523   6.071  21.699  0.00  0.00    +0.000 C 
ATOM     28  C   UNL     1      43.893   6.525  23.020  0.00  0.00    +0.000 C 
ATOM     29  C   UNL     1      45.840   6.788  21.570  0.00  0.00    +0.000 C 
BRANCH  27  31
ATOM     30  C   UNL     1      46.166   4.244  21.386  0.00  0.00    +0.000 C 
ATOM     31  C   UNL     1      44.756   4.578  21.851  0.00  0.00    +0.000 C 
ENDBRANCH  27  31
ENDBRANCH  21  27
ENDBRANCH  20  24
ENDBRANCH   1  20
TORSDOF 6
ENDMDL
MODEL 6
REMARK VINA RESULT:      -7.9      3.069      9.468
REMARK  Name = 
REMARK  6 active torsions:
REMARK  status: ('A' for Active; 'I' for Inactive)
REMARK    1  A    between atoms: C_2  and  C_3
REMARK    2  A    between atoms: C_3  and  C_6
REMARK    3  A    between atoms: C_9  and  O_10
REMARK    4  A    between atoms: O_10  and  C_11
REMARK    5  A    between atoms: C_14  and  N_15
REMARK    6  A    between atoms: N_18  and  C_19
REMARK                            x       y       z     vdW  Elec       q    Type
REMARK                         _______ _______ _______ _____ _____    ______ ____
ROOT
ATOM      1  C   UNL     1      35.126   2.381  16.198  0.00  0.00    +0.000 A 
ATOM      2  C   UNL     1      36.419   2.750  16.463  0.00  0.00    +0.000 A 
ATOM      3  C   UNL     1      37.011   3.821  15.834  0.00  0.00    +0.000 A 
ATOM      4  C   UNL     1      36.340   4.580  14.911  0.00  0.00    +0.000 A 
ATOM      5  C   UNL     1      35.042   4.230  14.635  0.00  0.00    +0.000 A 
ATOM      6  C   UNL     1      34.433   3.154  15.255  0.00  0.00    +0.000 A 
ENDROOT
BRANCH   4   7
ATOM      7  N   UNL     1      36.981   5.631  14.241  0.00  0.00    +0.000 NA
ATOM      8  C   UNL     1      37.991   6.356  14.977  0.00  0.00    +0.000 C 
ATOM      9  N   UNL     1      38.481   6.047  16.108  0.00  0.00    +0.000 NA
ATOM     10  N   UNL     1      39.452   6.954  16.561  0.00  0.00    +0.000 N 
ATOM     11  C   UNL     1      39.569   7.954  15.570  0.00  0.00    +0.000 C 
ATOM     12  O   UNL     1      40.340   8.939  15.602  0.00  0.00    +0.000 OA
ATOM     13  C   UNL     1      38.602   7.601  14.491  0.00  0.00    +0.000 C 
BRANCH  10  14
ATOM     14  C   UNL     1      40.175   6.825  17.807  0.00  0.00    +0.000 A 
ATOM     15  C   UNL     1      41.539   6.647  17.836  0.00  0.00    +0.000 A 
ATOM     16  C   UNL     1      42.249   6.528  19.027  0.00  0.00    +0.000 A 
ATOM     17  C   UNL     1      41.597   6.587  20.249  0.00  0.00    +0.000 A 
ATOM     18  C   UNL     1      40.232   6.765  20.223  0.00  0.00    +0.000 A 
ATOM     19  C   UNL     1      39.523   6.883  19.024  0.00  0.00    +0.000 A 
ENDBRANCH  10  14
ENDBRANCH   4   7
BRANCH   1  20
ATOM     20  O   UNL     1      34.490   1.302  16.811  0.00  0.00    +0.000 OA
BRANCH  20  24
ATOM     21  C   UNL     1      35.858  -2.635  16.083  0.00  0.00    +0.000 A 
ATOM     22  C   UNL     1      36.276  -1.545  15.322  0.00  0.00    +0.000 A 
ATOM     23  C   UNL     1      35.815  -0.281  15.580  0.00  0.00    +0.000 A 
ATOM     24  C   UNL     1      34.906  -0.003  16.613  0.00  0.00    +0.000 A 
ATOM     25  C   UNL     1      34.503  -1.083  17.351  0.00  0.00    +0.000 A 
ATOM     26  C   UNL     1      34.968  -2.358  17.090  0.00  0.00    +0.000 A 
BRANCH  21  27
ATOM     27  C   UNL     1      36.385  -4.003  15.787  0.00  0.00    +0.000 C 
ATOM     28  C   UNL     1      37.040  -3.999  14.401  0.00  0.00    +0.000 C 
ATOM     29  C   UNL     1      35.309  -5.055  15.761  0.00  0.00    +0.000 C 
BRANCH  27  31
ATOM     30  C   UNL     1      37.402  -5.905  17.004  0.00  0.00    +0.000 C 
ATOM     31  C   UNL     1      37.482  -4.405  16.756  0.00  0.00    +0.000 C 
ENDBRANCH  27  31
ENDBRANCH  21  27
ENDBRANCH  20  24
ENDBRANCH   1  20
TORSDOF 6
ENDMDL
MODEL 7
REMARK VINA RESULT:      -7.9      6.298     10.755
REMARK  Name = 
REMARK  6 active torsions:
REMARK  status: ('A' for Active; 'I' for Inactive)
REMARK    1  A    between atoms: C_2  and  C_3
REMARK    2  A    between atoms: C_3  and  C_6
REMARK    3  A    between atoms: C_9  and  O_10
REMARK    4  A    between atoms: O_10  and  C_11
REMARK    5  A    between atoms: C_14  and  N_15
REMARK    6  A    between atoms: N_18  and  C_19
REMARK                            x       y       z     vdW  Elec       q    Type
REMARK                         _______ _______ _______ _____ _____    ______ ____
ROOT
ATOM      1  C   UNL     1      43.630   7.153  21.683  0.00  0.00    +0.000 A 
ATOM      2  C   UNL     1      44.224   7.703  22.789  0.00  0.00    +0.000 A 
ATOM      3  C   UNL     1      44.903   6.933  23.705  0.00  0.00    +0.000 A 
ATOM      4  C   UNL     1      45.026   5.576  23.561  0.00  0.00    +0.000 A 
ATOM      5  C   UNL     1      44.442   5.007  22.457  0.00  0.00    +0.000 A 
ATOM      6  C   UNL     1      43.753   5.764  21.528  0.00  0.00    +0.000 A 
ENDROOT
BRANCH   4   7
ATOM      7  N   UNL     1      45.672   4.805  24.536  0.00  0.00    +0.000 NA
ATOM      8  C   UNL     1      45.042   4.732  25.835  0.00  0.00    +0.000 C 
ATOM      9  N   UNL     1      43.885   5.153  26.146  0.00  0.00    +0.000 NA
ATOM     10  N   UNL     1      43.555   4.931  27.492  0.00  0.00    +0.000 N 
ATOM     11  C   UNL     1      44.665   4.287  28.083  0.00  0.00    +0.000 C 
ATOM     12  O   UNL     1      44.756   3.916  29.275  0.00  0.00    +0.000 OA
ATOM     13  C   UNL     1      45.692   4.140  27.012  0.00  0.00    +0.000 C 
BRANCH  10  14
ATOM     14  C   UNL     1      42.294   5.298  28.098  0.00  0.00    +0.000 A 
ATOM     15  C   UNL     1      41.549   4.396  28.821  0.00  0.00    +0.000 A 
ATOM     16  C   UNL     1      40.337   4.737  29.415  0.00  0.00    +0.000 A 
ATOM     17  C   UNL     1      39.828   6.021  29.299  0.00  0.00    +0.000 A 
ATOM     18  C   UNL     1      40.571   6.926  28.575  0.00  0.00    +0.000 A 
ATOM     19  C   UNL     1      41.787   6.579  27.980  0.00  0.00    +0.000 A 
ENDBRANCH  10  14
ENDBRANCH   4   7
BRANCH   1  20
ATOM     20  O   UNL     1      42.931   7.897  20.731  0.00  0.00    +0.000 OA
BRANCH  20  24
ATOM     21  C   UNL     1      40.122   6.096  18.131  0.00  0.00    +0.000 A 
ATOM     22  C   UNL     1      39.813   6.434  19.446  0.00  0.00    +0.000 A 
ATOM     23  C   UNL     1      40.744   7.016  20.267  0.00  0.00    +0.000 A 
ATOM     24  C   UNL     1      42.050   7.306  19.843  0.00  0.00    +0.000 A 
ATOM     25  C   UNL     1      42.339   6.969  18.548  0.00  0.00    +0.000 A 
ATOM     26  C   UNL     1      41.399   6.382  17.721  0.00  0.00    +0.000 A 
BRANCH  21  27
ATOM     27  C   UNL     1      39.083   5.472  17.253  0.00  0.00    +0.000 C 
ATOM     28  C   UNL     1      38.082   6.548  16.818  0.00  0.00    +0.000 C 
ATOM     29  C   UNL     1      38.297   4.394  17.949  0.00  0.00    +0.000 C 
BRANCH  27  31
ATOM     30  C   UNL     1      38.789   3.825  15.427  0.00  0.00    +0.000 C 
ATOM     31  C   UNL     1      39.684   4.931  15.969  0.00  0.00    +0.000 C 
ENDBRANCH  27  31
ENDBRANCH  21  27
ENDBRANCH  20  24
ENDBRANCH   1  20
TORSDOF 6
ENDMDL
MODEL 8
REMARK VINA RESULT:      -7.8      2.667      3.753
REMARK  Name = 
REMARK  6 active torsions:
REMARK  status: ('A' for Active; 'I' for Inactive)
REMARK    1  A    between atoms: C_2  and  C_3
REMARK    2  A    between atoms: C_3  and  C_6
REMARK    3  A    between atoms: C_9  and  O_10
REMARK    4  A    between atoms: O_10  and  C_11
REMARK    5  A    between atoms: C_14  and  N_15
REMARK    6  A    between atoms: N_18  and  C_19
REMARK                            x       y       z     vdW  Elec       q    Type
REMARK                         _______ _______ _______ _____ _____    ______ ____
ROOT
ATOM      1  C   UNL     1      37.887   4.394  16.337  0.00  0.00    +0.000 A 
ATOM      2  C   UNL     1      37.021   3.453  16.828  0.00  0.00    +0.000 A 
ATOM      3  C   UNL     1      36.837   2.240  16.204  0.00  0.00    +0.000 A 
ATOM      4  C   UNL     1      37.513   1.906  15.059  0.00  0.00    +0.000 A 
ATOM      5  C   UNL     1      38.388   2.834  14.553  0.00  0.00    +0.000 A 
ATOM      6  C   UNL     1      38.582   4.059  15.165  0.00  0.00    +0.000 A 
ENDROOT
BRANCH   4   7
ATOM      7  N   UNL     1      37.267   0.690  14.408  0.00  0.00    +0.000 NA
ATOM      8  C   UNL     1      38.422  -0.076  13.996  0.00  0.00    +0.000 C 
ATOM      9  N   UNL     1      39.634   0.147  14.302  0.00  0.00    +0.000 NA
ATOM     10  N   UNL     1      40.528  -0.782  13.748  0.00  0.00    +0.000 N 
ATOM     11  C   UNL     1      39.754  -1.697  13.001  0.00  0.00    +0.000 C 
ATOM     12  O   UNL     1      40.187  -2.681  12.360  0.00  0.00    +0.000 OA
ATOM     13  C   UNL     1      38.335  -1.260  13.130  0.00  0.00    +0.000 C 
BRANCH  10  14
ATOM     14  C   UNL     1      41.960  -0.764  13.955  0.00  0.00    +0.000 A 
ATOM     15  C   UNL     1      42.629  -1.850  14.470  0.00  0.00    +0.000 A 
ATOM     16  C   UNL     1      44.007  -1.850  14.668  0.00  0.00    +0.000 A 
ATOM     17  C   UNL     1      44.769  -0.738  14.346  0.00  0.00    +0.000 A 
ATOM     18  C   UNL     1      44.102   0.350  13.830  0.00  0.00    +0.000 A 
ATOM     19  C   UNL     1      42.718   0.346  13.634  0.00  0.00    +0.000 A 
ENDBRANCH  10  14
ENDBRANCH   4   7
BRANCH   1  20
ATOM     20  O   UNL     1      38.101   5.635  16.938  0.00  0.00    +0.000 OA
BRANCH  20  24
ATOM     21  C   UNL     1      41.605   6.525  19.134  0.00  0.00    +0.000 A 
ATOM     22  C   UNL     1      40.379   6.278  19.749  0.00  0.00    +0.000 A 
ATOM     23  C   UNL     1      39.260   5.993  19.012  0.00  0.00    +0.000 A 
ATOM     24  C   UNL     1      39.273   5.931  17.610  0.00  0.00    +0.000 A 
ATOM     25  C   UNL     1      40.483   6.177  17.019  0.00  0.00    +0.000 A 
ATOM     26  C   UNL     1      41.612   6.465  17.764  0.00  0.00    +0.000 A 
BRANCH  21  27
ATOM     27  C   UNL     1      42.814   6.823  19.964  0.00  0.00    +0.000 C 
ATOM     28  C   UNL     1      42.679   8.229  20.560  0.00  0.00    +0.000 C 
ATOM     29  C   UNL     1      44.091   6.803  19.169  0.00  0.00    +0.000 C 
BRANCH  27  31
ATOM     30  C   UNL     1      44.379   5.817  21.598  0.00  0.00    +0.000 C 
ATOM     31  C   UNL     1      42.925   5.885  21.152  0.00  0.00    +0.000 C 
ENDBRANCH  27  31
ENDBRANCH  21  27
ENDBRANCH  20  24
ENDBRANCH   1  20
TORSDOF 6
ENDMDL
MODEL 9
REMARK VINA RESULT:      -7.6      4.305     10.175
REMARK  Name = 
REMARK  6 active torsions:
REMARK  status: ('A' for Active; 'I' for Inactive)
REMARK    1  A    between atoms: C_2  and  C_3
REMARK    2  A    between atoms: C_3  and  C_6
REMARK    3  A    between atoms: C_9  and  O_10
REMARK    4  A    between atoms: O_10  and  C_11
REMARK    5  A    between atoms: C_14  and  N_15
REMARK    6  A    between atoms: N_18  and  C_19
REMARK                            x       y       z     vdW  Elec       q    Type
REMARK                         _______ _______ _______ _____ _____    ______ ____
ROOT
ATOM      1  C   UNL     1      38.750   4.116  15.743  0.00  0.00    +0.000 A 
ATOM      2  C   UNL     1      39.725   5.069  15.879  0.00  0.00    +0.000 A 
ATOM      3  C   UNL     1      39.921   5.742  17.064  0.00  0.00    +0.000 A 
ATOM      4  C   UNL     1      39.155   5.493  18.172  0.00  0.00    +0.000 A 
ATOM      5  C   UNL     1      38.175   4.539  18.057  0.00  0.00    +0.000 A 
ATOM      6  C   UNL     1      37.961   3.857  16.874  0.00  0.00    +0.000 A 
ENDROOT
BRANCH   4   7
ATOM      7  N   UNL     1      39.333   6.231  19.351  0.00  0.00    +0.000 NA
ATOM      8  C   UNL     1      38.730   7.543  19.398  0.00  0.00    +0.000 C 
ATOM      9  N   UNL     1      37.917   8.040  18.558  0.00  0.00    +0.000 NA
ATOM     10  N   UNL     1      37.503   9.340  18.885  0.00  0.00    +0.000 N 
ATOM     11  C   UNL     1      38.154   9.684  20.091  0.00  0.00    +0.000 C 
ATOM     12  O   UNL     1      38.038  10.764  20.712  0.00  0.00    +0.000 OA
ATOM     13  C   UNL     1      38.996   8.513  20.469  0.00  0.00    +0.000 C 
BRANCH  10  14
ATOM     14  C   UNL     1      36.569  10.123  18.106  0.00  0.00    +0.000 A 
ATOM     15  C   UNL     1      35.268   9.718  17.916  0.00  0.00    +0.000 A 
ATOM     16  C   UNL     1      34.357  10.464  17.175  0.00  0.00    +0.000 A 
ATOM     17  C   UNL     1      34.731  11.665  16.592  0.00  0.00    +0.000 A 
ATOM     18  C   UNL     1      36.033  12.073  16.780  0.00  0.00    +0.000 A 
ATOM     19  C   UNL     1      36.946  11.320  17.525  0.00  0.00    +0.000 A 
ENDBRANCH  10  14
ENDBRANCH   4   7
BRANCH   1  20
ATOM     20  O   UNL     1      38.517   3.414  14.560  0.00  0.00    +0.000 OA
BRANCH  20  24
ATOM     21  C   UNL     1      38.825  -0.802  14.398  0.00  0.00    +0.000 A 
ATOM     22  C   UNL     1      39.942   0.030  14.389  0.00  0.00    +0.000 A 
ATOM     23  C   UNL     1      39.812   1.393  14.442  0.00  0.00    +0.000 A 
ATOM     24  C   UNL     1      38.565   2.032  14.507  0.00  0.00    +0.000 A 
ATOM     25  C   UNL     1      37.476   1.202  14.514  0.00  0.00    +0.000 A 
ATOM     26  C   UNL     1      37.608  -0.173  14.461  0.00  0.00    +0.000 A 
BRANCH  21  27
ATOM     27  C   UNL     1      38.996  -2.288  14.351  0.00  0.00    +0.000 C 
ATOM     28  C   UNL     1      39.526  -2.688  12.970  0.00  0.00    +0.000 C 
ATOM     29  C   UNL     1      37.706  -3.035  14.560  0.00  0.00    +0.000 C 
BRANCH  27  31
ATOM     30  C   UNL     1      39.340  -3.378  16.548  0.00  0.00    +0.000 C 
ATOM     31  C   UNL     1      40.041  -2.766  15.343  0.00  0.00    +0.000 C 
ENDBRANCH  27  31
ENDBRANCH  21  27
ENDBRANCH  20  24
ENDBRANCH   1  20
TORSDOF 6
ENDMDL
MODEL 10
REMARK VINA RESULT:      -7.6      4.635      7.990
REMARK  Name = 
REMARK  6 active torsions:
REMARK  status: ('A' for Active; 'I' for Inactive)
REMARK    1  A    between atoms: C_2  and  C_3
REMARK    2  A    between atoms: C_3  and  C_6
REMARK    3  A    between atoms: C_9  and  O_10
REMARK    4  A    between atoms: O_10  and  C_11
REMARK    5  A    between atoms: C_14  and  N_15
REMARK    6  A    between atoms: N_18  and  C_19
REMARK                            x       y       z     vdW  Elec       q    Type
REMARK                         _______ _______ _______ _____ _____    ______ ____
ROOT
ATOM      1  C   UNL     1      36.059   4.586  14.681  0.00  0.00    +0.000 A 
ATOM      2  C   UNL     1      34.815   4.018  14.593  0.00  0.00    +0.000 A 
ATOM      3  C   UNL     1      34.443   2.960  15.391  0.00  0.00    +0.000 A 
ATOM      4  C   UNL     1      35.295   2.419  16.318  0.00  0.00    +0.000 A 
ATOM      5  C   UNL     1      36.544   2.977  16.424  0.00  0.00    +0.000 A 
ATOM      6  C   UNL     1      36.936   4.038  15.629  0.00  0.00    +0.000 A 
ENDROOT
BRANCH   4   7
ATOM      7  N   UNL     1      34.916   1.305  17.079  0.00  0.00    +0.000 NA
ATOM      8  C   UNL     1      35.558   0.049  16.764  0.00  0.00    +0.000 C 
ATOM      9  N   UNL     1      36.547  -0.128  15.986  0.00  0.00    +0.000 NA
ATOM     10  N   UNL     1      36.946  -1.471  15.891  0.00  0.00    +0.000 N 
ATOM     11  C   UNL     1      36.081  -2.214  16.724  0.00  0.00    +0.000 C 
ATOM     12  O   UNL     1      36.120  -3.450  16.914  0.00  0.00    +0.000 OA
ATOM     13  C   UNL     1      35.126  -1.239  17.325  0.00  0.00    +0.000 C 
BRANCH  10  14
ATOM     14  C   UNL     1      38.055  -1.940  15.088  0.00  0.00    +0.000 A 
ATOM     15  C   UNL     1      37.885  -2.339  13.783  0.00  0.00    +0.000 A 
ATOM     16  C   UNL     1      38.943  -2.786  12.997  0.00  0.00    +0.000 A 
ATOM     17  C   UNL     1      40.230  -2.844  13.508  0.00  0.00    +0.000 A 
ATOM     18  C   UNL     1      40.403  -2.446  14.815  0.00  0.00    +0.000 A 
ATOM     19  C   UNL     1      39.337  -1.998  15.601  0.00  0.00    +0.000 A 
ENDBRANCH  10  14
ENDBRANCH   4   7
BRANCH   1  20
ATOM     20  O   UNL     1      36.476   5.658  13.890  0.00  0.00    +0.000 OA
BRANCH  20  24
ATOM     21  C   UNL     1      35.614   5.926   9.757  0.00  0.00    +0.000 A 
ATOM     22  C   UNL     1      35.021   6.762  10.700  0.00  0.00    +0.000 A 
ATOM     23  C   UNL     1      35.318   6.652  12.033  0.00  0.00    +0.000 A 
ATOM     24  C   UNL     1      36.227   5.704  12.530  0.00  0.00    +0.000 A 
ATOM     25  C   UNL     1      36.801   4.889  11.592  0.00  0.00    +0.000 A 
ATOM     26  C   UNL     1      36.500   5.001  10.247  0.00  0.00    +0.000 A 
BRANCH  21  27
ATOM     27  C   UNL     1      35.279   6.075   8.306  0.00  0.00    +0.000 C 
ATOM     28  C   UNL     1      33.877   6.678   8.175  0.00  0.00    +0.000 C 
ATOM     29  C   UNL     1      35.265   4.763   7.569  0.00  0.00    +0.000 C 
BRANCH  27  31
ATOM     30  C   UNL     1      35.420   7.846   6.581  0.00  0.00    +0.000 C 
ATOM     31  C   UNL     1      36.210   7.052   7.612  0.00  0.00    +0.000 C 
ENDBRANCH  27  31
ENDBRANCH  21  27
ENDBRANCH  20  24
ENDBRANCH   1  20
TORSDOF 6
ENDMDL
