MODEL 1
REMARK VINA RESULT:      -6.8      0.000      0.000
REMARK  Name = 
REMARK  4 active torsions:
REMARK  status: ('A' for Active; 'I' for Inactive)
REMARK    1  A    between atoms: C_2  and  C_3
REMARK    2  A    between atoms: C_9  and  N_10
REMARK    3  A    between atoms: C_11  and  C_13
REMARK    4  A    between atoms: C_17  and  N_18
REMARK                            x       y       z     vdW  Elec       q    Type
REMARK                         _______ _______ _______ _____ _____    ______ ____
ROOT
ATOM      1  N   UNL     1      28.540  23.017  25.271  0.00  0.00    +0.000 NA
ATOM      2  C   UNL     1      28.564  23.883  26.395  0.00  0.00    +0.000 C 
ATOM      3  O   UNL     1      28.499  25.119  26.172  0.00  0.00    +0.000 OA
ENDROOT
BRANCH   1  10
ATOM      4  C   UNL     1      27.256  23.718  23.277  0.00  0.00    +0.000 A 
ATOM      5  C   UNL     1      27.206  24.251  22.006  0.00  0.00    +0.000 A 
ATOM      6  C   UNL     1      28.349  24.657  21.361  0.00  0.00    +0.000 A 
ATOM      7  C   UNL     1      29.549  24.519  22.012  0.00  0.00    +0.000 A 
ATOM      8  C   UNL     1      29.577  23.985  23.281  0.00  0.00    +0.000 A 
ATOM      9  C   UNL     1      30.886  23.826  24.011  0.00  0.00    +0.000 C 
ATOM     10  C   UNL     1      28.447  23.566  23.963  0.00  0.00    +0.000 A 
BRANCH   4  12
ATOM     11  C   UNL     1      25.364  24.546  24.543  0.00  0.00    +0.000 C 
ATOM     12  C   UNL     1      26.007  23.276  23.987  0.00  0.00    +0.000 C 
ENDBRANCH   4  12
ENDBRANCH   1  10
BRANCH   2  13
ATOM     13  C   UNL     1      28.657  23.445  27.777  0.00  0.00    +0.000 A 
ATOM     14  C   UNL     1      29.892  23.178  28.330  0.00  0.00    +0.000 A 
ATOM     15  C   UNL     1      29.985  22.763  29.657  0.00  0.00    +0.000 A 
ATOM     16  C   UNL     1      28.866  22.610  30.442  0.00  0.00    +0.000 A 
ATOM     17  C   UNL     1      27.627  22.873  29.905  0.00  0.00    +0.000 A 
ATOM     18  C   UNL     1      27.559  23.283  28.592  0.00  0.00    +0.000 A 
ATOM     19  C   UNL     1      26.231  23.573  27.982  0.00  0.00    +0.000 C 
BRANCH  17  20
ATOM     20  N   UNL     1      26.432  22.736  30.665  0.00  0.00    +0.000 N 
ATOM     21  O   UNL     1      25.847  21.656  30.859  0.00  0.00    +0.000 OA
ATOM     22  O   UNL     1      25.903  23.876  31.215  0.00  0.00    +0.000 OA
ENDBRANCH  17  20
ENDBRANCH   2  13
TORSDOF 4
ENDMDL
MODEL 2
REMARK VINA RESULT:      -6.4      2.144      6.802
REMARK  Name = 
REMARK  4 active torsions:
REMARK  status: ('A' for Active; 'I' for Inactive)
REMARK    1  A    between atoms: C_2  and  C_3
REMARK    2  A    between atoms: C_9  and  N_10
REMARK    3  A    between atoms: C_11  and  C_13
REMARK    4  A    between atoms: C_17  and  N_18
REMARK                            x       y       z     vdW  Elec       q    Type
REMARK                         _______ _______ _______ _____ _____    ______ ____
ROOT
ATOM      1  N   UNL     1      28.654  22.552  27.043  0.00  0.00    +0.000 NA
ATOM      2  C   UNL     1      28.242  23.720  26.350  0.00  0.00    +0.000 C 
ATOM      3  O   UNL     1      28.340  24.816  26.958  0.00  0.00    +0.000 OA
ENDROOT
BRANCH   1  10
ATOM      4  C   UNL     1      28.342  22.662  29.494  0.00  0.00    +0.000 A 
ATOM      5  C   UNL     1      28.859  22.775  30.768  0.00  0.00    +0.000 A 
ATOM      6  C   UNL     1      30.211  22.894  30.976  0.00  0.00    +0.000 A 
ATOM      7  C   UNL     1      31.042  22.899  29.884  0.00  0.00    +0.000 A 
ATOM      8  C   UNL     1      30.506  22.784  28.621  0.00  0.00    +0.000 A 
ATOM      9  C   UNL     1      31.403  22.787  27.410  0.00  0.00    +0.000 C 
ATOM     10  C   UNL     1      29.150  22.662  28.371  0.00  0.00    +0.000 A 
BRANCH   4  12
ATOM     11  C   UNL     1      26.334  21.648  30.393  0.00  0.00    +0.000 C 
ATOM     12  C   UNL     1      26.862  22.529  29.261  0.00  0.00    +0.000 C 
ENDBRANCH   4  12
ENDBRANCH   1  10
BRANCH   2  13
ATOM     13  C   UNL     1      27.719  23.738  24.995  0.00  0.00    +0.000 A 
ATOM     14  C   UNL     1      26.452  23.255  24.742  0.00  0.00    +0.000 A 
ATOM     15  C   UNL     1      25.945  23.276  23.444  0.00  0.00    +0.000 A 
ATOM     16  C   UNL     1      26.681  23.771  22.393  0.00  0.00    +0.000 A 
ATOM     17  C   UNL     1      27.946  24.258  22.629  0.00  0.00    +0.000 A 
ATOM     18  C   UNL     1      28.426  24.228  23.919  0.00  0.00    +0.000 A 
ATOM     19  C   UNL     1      29.795  24.745  24.205  0.00  0.00    +0.000 C 
BRANCH  17  20
ATOM     20  N   UNL     1      28.757  24.784  21.586  0.00  0.00    +0.000 N 
ATOM     21  O   UNL     1      29.655  24.148  21.008  0.00  0.00    +0.000 OA
ATOM     22  O   UNL     1      28.521  26.080  21.200  0.00  0.00    +0.000 OA
ENDBRANCH  17  20
ENDBRANCH   2  13
TORSDOF 4
ENDMDL
MODEL 3
REMARK VINA RESULT:      -6.2      2.410      3.586
REMARK  Name = 
REMARK  4 active torsions:
REMARK  status: ('A' for Active; 'I' for Inactive)
REMARK    1  A    between atoms: C_2  and  C_3
REMARK    2  A    between atoms: C_9  and  N_10
REMARK    3  A    between atoms: C_11  and  C_13
REMARK    4  A    between atoms: C_17  and  N_18
REMARK                            x       y       z     vdW  Elec       q    Type
REMARK                         _______ _______ _______ _____ _____    ______ ____
ROOT
ATOM      1  N   UNL     1      28.446  22.553  26.129  0.00  0.00    +0.000 NA
ATOM      2  C   UNL     1      28.734  23.496  27.150  0.00  0.00    +0.000 C 
ATOM      3  O   UNL     1      28.819  24.704  26.812  0.00  0.00    +0.000 OA
ENDROOT
BRANCH   1  10
ATOM      4  C   UNL     1      29.306  23.164  23.893  0.00  0.00    +0.000 A 
ATOM      5  C   UNL     1      29.095  23.603  22.603  0.00  0.00    +0.000 A 
ATOM      6  C   UNL     1      27.831  23.898  22.152  0.00  0.00    +0.000 A 
ATOM      7  C   UNL     1      26.777  23.747  23.018  0.00  0.00    +0.000 A 
ATOM      8  C   UNL     1      27.010  23.307  24.301  0.00  0.00    +0.000 A 
ATOM      9  C   UNL     1      25.864  23.134  25.266  0.00  0.00    +0.000 C 
ATOM     10  C   UNL     1      28.267  22.999  24.791  0.00  0.00    +0.000 A 
BRANCH   4  12
ATOM     11  C   UNL     1      31.429  24.170  24.483  0.00  0.00    +0.000 C 
ATOM     12  C   UNL     1      30.686  22.837  24.390  0.00  0.00    +0.000 C 
ENDBRANCH   4  12
ENDBRANCH   1  10
BRANCH   2  13
ATOM     13  C   UNL     1      28.939  23.166  28.550  0.00  0.00    +0.000 A 
ATOM     14  C   UNL     1      27.886  23.253  29.437  0.00  0.00    +0.000 A 
ATOM     15  C   UNL     1      28.078  22.931  30.779  0.00  0.00    +0.000 A 
ATOM     16  C   UNL     1      29.304  22.525  31.252  0.00  0.00    +0.000 A 
ATOM     17  C   UNL     1      30.364  22.433  30.380  0.00  0.00    +0.000 A 
ATOM     18  C   UNL     1      30.151  22.755  29.058  0.00  0.00    +0.000 A 
ATOM     19  C   UNL     1      31.282  22.668  28.091  0.00  0.00    +0.000 C 
BRANCH  17  20
ATOM     20  N   UNL     1      31.656  22.019  30.807  0.00  0.00    +0.000 N 
ATOM     21  O   UNL     1      31.993  20.833  30.968  0.00  0.00    +0.000 OA
ATOM     22  O   UNL     1      32.583  23.002  31.050  0.00  0.00    +0.000 OA
ENDBRANCH  17  20
ENDBRANCH   2  13
TORSDOF 4
ENDMDL
MODEL 4
REMARK VINA RESULT:      -6.2      1.804      3.007
REMARK  Name = 
REMARK  4 active torsions:
REMARK  status: ('A' for Active; 'I' for Inactive)
REMARK    1  A    between atoms: C_2  and  C_3
REMARK    2  A    between atoms: C_9  and  N_10
REMARK    3  A    between atoms: C_11  and  C_13
REMARK    4  A    between atoms: C_17  and  N_18
REMARK                            x       y       z     vdW  Elec       q    Type
REMARK                         _______ _______ _______ _____ _____    ______ ____
ROOT
ATOM      1  N   UNL     1      28.073  25.072  25.538  0.00  0.00    +0.000 NA
ATOM      2  C   UNL     1      26.860  24.512  26.019  0.00  0.00    +0.000 C 
ATOM      3  O   UNL     1      26.080  24.013  25.169  0.00  0.00    +0.000 OA
ENDROOT
BRANCH   1  10
ATOM      4  C   UNL     1      29.038  24.027  23.515  0.00  0.00    +0.000 A 
ATOM      5  C   UNL     1      29.295  24.043  22.160  0.00  0.00    +0.000 A 
ATOM      6  C   UNL     1      28.878  25.088  21.372  0.00  0.00    +0.000 A 
ATOM      7  C   UNL     1      28.197  26.121  21.963  0.00  0.00    +0.000 A 
ATOM      8  C   UNL     1      27.950  26.085  23.318  0.00  0.00    +0.000 A 
ATOM      9  C   UNL     1      27.202  27.212  23.985  0.00  0.00    +0.000 C 
ATOM     10  C   UNL     1      28.353  25.051  24.144  0.00  0.00    +0.000 A 
BRANCH   4  12
ATOM     11  C   UNL     1      31.005  23.030  24.516  0.00  0.00    +0.000 C 
ATOM     12  C   UNL     1      29.490  22.885  24.382  0.00  0.00    +0.000 C 
ENDBRANCH   4  12
ENDBRANCH   1  10
BRANCH   2  13
ATOM     13  C   UNL     1      26.461  24.474  27.415  0.00  0.00    +0.000 A 
ATOM     14  C   UNL     1      25.697  25.497  27.937  0.00  0.00    +0.000 A 
ATOM     15  C   UNL     1      25.307  25.461  29.275  0.00  0.00    +0.000 A 
ATOM     16  C   UNL     1      25.667  24.421  30.100  0.00  0.00    +0.000 A 
ATOM     17  C   UNL     1      26.429  23.393  29.594  0.00  0.00    +0.000 A 
ATOM     18  C   UNL     1      26.801  23.450  28.269  0.00  0.00    +0.000 A 
ATOM     19  C   UNL     1      27.629  22.352  27.694  0.00  0.00    +0.000 C 
BRANCH  17  20
ATOM     20  N   UNL     1      26.832  22.290  30.395  0.00  0.00    +0.000 N 
ATOM     21  O   UNL     1      28.011  22.044  30.705  0.00  0.00    +0.000 OA
ATOM     22  O   UNL     1      25.846  21.451  30.850  0.00  0.00    +0.000 OA
ENDBRANCH  17  20
ENDBRANCH   2  13
TORSDOF 4
ENDMDL
MODEL 5
REMARK VINA RESULT:      -6.1     18.541     20.432
REMARK  Name = 
REMARK  4 active torsions:
REMARK  status: ('A' for Active; 'I' for Inactive)
REMARK    1  A    between atoms: C_2  and  C_3
REMARK    2  A    between atoms: C_9  and  N_10
REMARK    3  A    between atoms: C_11  and  C_13
REMARK    4  A    between atoms: C_17  and  N_18
REMARK                            x       y       z     vdW  Elec       q    Type
REMARK                         _______ _______ _______ _____ _____    ______ ____
ROOT
ATOM      1  N   UNL     1      18.683   9.547  37.377  0.00  0.00    +0.000 NA
ATOM      2  C   UNL     1      19.828  10.332  37.672  0.00  0.00    +0.000 C 
ATOM      3  O   UNL     1      19.637  11.538  37.973  0.00  0.00    +0.000 OA
ENDROOT
BRANCH   1  10
ATOM      4  C   UNL     1      16.642  10.240  38.589  0.00  0.00    +0.000 A 
ATOM      5  C   UNL     1      15.390  10.818  38.603  0.00  0.00    +0.000 A 
ATOM      6  C   UNL     1      14.829  11.321  37.455  0.00  0.00    +0.000 A 
ATOM      7  C   UNL     1      15.544  11.236  36.287  0.00  0.00    +0.000 A 
ATOM      8  C   UNL     1      16.793  10.656  36.296  0.00  0.00    +0.000 A 
ATOM      9  C   UNL     1      17.594  10.555  35.023  0.00  0.00    +0.000 C 
ATOM     10  C   UNL     1      17.391  10.139  37.432  0.00  0.00    +0.000 A 
BRANCH   4  12
ATOM     11  C   UNL     1      16.106   9.458  40.818  0.00  0.00    +0.000 C 
ATOM     12  C   UNL     1      17.261   9.690  39.844  0.00  0.00    +0.000 C 
ENDBRANCH   4  12
ENDBRANCH   1  10
BRANCH   2  13
ATOM     13  C   UNL     1      21.196   9.845  37.649  0.00  0.00    +0.000 A 
ATOM     14  C   UNL     1      21.891   9.804  36.458  0.00  0.00    +0.000 A 
ATOM     15  C   UNL     1      23.205   9.343  36.434  0.00  0.00    +0.000 A 
ATOM     16  C   UNL     1      23.839   8.919  37.579  0.00  0.00    +0.000 A 
ATOM     17  C   UNL     1      23.159   8.953  38.775  0.00  0.00    +0.000 A 
ATOM     18  C   UNL     1      21.862   9.414  38.775  0.00  0.00    +0.000 A 
ATOM     19  C   UNL     1      21.100   9.460  40.055  0.00  0.00    +0.000 C 
BRANCH  17  20
ATOM     20  N   UNL     1      23.758   8.530  39.993  0.00  0.00    +0.000 N 
ATOM     21  O   UNL     1      24.415   9.272  40.745  0.00  0.00    +0.000 OA
ATOM     22  O   UNL     1      23.591   7.216  40.353  0.00  0.00    +0.000 OA
ENDBRANCH  17  20
ENDBRANCH   2  13
TORSDOF 4
ENDMDL
MODEL 6
REMARK VINA RESULT:      -6.1     18.376     20.078
REMARK  Name = 
REMARK  4 active torsions:
REMARK  status: ('A' for Active; 'I' for Inactive)
REMARK    1  A    between atoms: C_2  and  C_3
REMARK    2  A    between atoms: C_9  and  N_10
REMARK    3  A    between atoms: C_11  and  C_13
REMARK    4  A    between atoms: C_17  and  N_18
REMARK                            x       y       z     vdW  Elec       q    Type
REMARK                         _______ _______ _______ _____ _____    ______ ____
ROOT
ATOM      1  N   UNL     1      18.965   9.453  37.353  0.00  0.00    +0.000 NA
ATOM      2  C   UNL     1      20.108  10.268  37.564  0.00  0.00    +0.000 C 
ATOM      3  O   UNL     1      19.912  11.494  37.767  0.00  0.00    +0.000 OA
ENDROOT
BRANCH   1  10
ATOM      4  C   UNL     1      17.029  10.529  36.252  0.00  0.00    +0.000 A 
ATOM      5  C   UNL     1      15.774  11.096  36.314  0.00  0.00    +0.000 A 
ATOM      6  C   UNL     1      15.101  11.201  37.507  0.00  0.00    +0.000 A 
ATOM      7  C   UNL     1      15.708  10.726  38.643  0.00  0.00    +0.000 A 
ATOM      8  C   UNL     1      16.961  10.163  38.559  0.00  0.00    +0.000 A 
ATOM      9  C   UNL     1      17.643   9.636  39.796  0.00  0.00    +0.000 C 
ATOM     10  C   UNL     1      17.670  10.040  37.376  0.00  0.00    +0.000 A 
BRANCH   4  12
ATOM     11  C   UNL     1      16.778  10.830  33.862  0.00  0.00    +0.000 C 
ATOM     12  C   UNL     1      17.768  10.411  34.948  0.00  0.00    +0.000 C 
ENDBRANCH   4  12
ENDBRANCH   1  10
BRANCH   2  13
ATOM     13  C   UNL     1      21.479   9.789  37.563  0.00  0.00    +0.000 A 
ATOM     14  C   UNL     1      22.198   9.769  36.386  0.00  0.00    +0.000 A 
ATOM     15  C   UNL     1      23.515   9.315  36.382  0.00  0.00    +0.000 A 
ATOM     16  C   UNL     1      24.128   8.879  37.534  0.00  0.00    +0.000 A 
ATOM     17  C   UNL     1      23.425   8.893  38.716  0.00  0.00    +0.000 A 
ATOM     18  C   UNL     1      22.125   9.347  38.696  0.00  0.00    +0.000 A 
ATOM     19  C   UNL     1      21.337   9.371  39.961  0.00  0.00    +0.000 C 
BRANCH  17  20
ATOM     20  N   UNL     1      24.002   8.458  39.941  0.00  0.00    +0.000 N 
ATOM     21  O   UNL     1      23.949   7.289  40.364  0.00  0.00    +0.000 OA
ATOM     22  O   UNL     1      24.660   9.397  40.695  0.00  0.00    +0.000 OA
ENDBRANCH  17  20
ENDBRANCH   2  13
TORSDOF 4
ENDMDL
MODEL 7
REMARK VINA RESULT:      -6.0      2.599      3.990
REMARK  Name = 
REMARK  4 active torsions:
REMARK  status: ('A' for Active; 'I' for Inactive)
REMARK    1  A    between atoms: C_2  and  C_3
REMARK    2  A    between atoms: C_9  and  N_10
REMARK    3  A    between atoms: C_11  and  C_13
REMARK    4  A    between atoms: C_17  and  N_18
REMARK                            x       y       z     vdW  Elec       q    Type
REMARK                         _______ _______ _______ _____ _____    ______ ____
ROOT
ATOM      1  N   UNL     1      29.423  22.124  27.228  0.00  0.00    +0.000 NA
ATOM      2  C   UNL     1      30.303  22.920  28.007  0.00  0.00    +0.000 C 
ATOM      3  O   UNL     1      30.389  24.140  27.713  0.00  0.00    +0.000 OA
ENDROOT
BRANCH   1  10
ATOM      4  C   UNL     1      29.168  22.845  24.877  0.00  0.00    +0.000 A 
ATOM      5  C   UNL     1      28.427  23.434  23.874  0.00  0.00    +0.000 A 
ATOM      6  C   UNL     1      27.169  23.928  24.118  0.00  0.00    +0.000 A 
ATOM      7  C   UNL     1      26.662  23.822  25.389  0.00  0.00    +0.000 A 
ATOM      8  C   UNL     1      27.418  23.230  26.376  0.00  0.00    +0.000 A 
ATOM      9  C   UNL     1      26.876  23.104  27.777  0.00  0.00    +0.000 C 
ATOM     10  C   UNL     1      28.688  22.720  26.168  0.00  0.00    +0.000 A 
BRANCH   4  12
ATOM     11  C   UNL     1      31.450  23.518  24.422  0.00  0.00    +0.000 C 
ATOM     12  C   UNL     1      30.545  22.301  24.613  0.00  0.00    +0.000 C 
ENDBRANCH   4  12
ENDBRANCH   1  10
BRANCH   2  13
ATOM     13  C   UNL     1      31.108  22.428  29.112  0.00  0.00    +0.000 A 
ATOM     14  C   UNL     1      32.363  21.912  28.871  0.00  0.00    +0.000 A 
ATOM     15  C   UNL     1      33.139  21.445  29.929  0.00  0.00    +0.000 A 
ATOM     16  C   UNL     1      32.683  21.484  31.227  0.00  0.00    +0.000 A 
ATOM     17  C   UNL     1      31.433  21.997  31.484  0.00  0.00    +0.000 A 
ATOM     18  C   UNL     1      30.684  22.453  30.422  0.00  0.00    +0.000 A 
ATOM     19  C   UNL     1      29.325  23.011  30.670  0.00  0.00    +0.000 C 
BRANCH  17  20
ATOM     20  N   UNL     1      30.904  22.066  32.802  0.00  0.00    +0.000 N 
ATOM     21  O   UNL     1      30.256  21.154  33.346  0.00  0.00    +0.000 OA
ATOM     22  O   UNL     1      31.133  23.219  33.511  0.00  0.00    +0.000 OA
ENDBRANCH  17  20
ENDBRANCH   2  13
TORSDOF 4
ENDMDL
MODEL 8
REMARK VINA RESULT:      -6.0     31.780     32.638
REMARK  Name = 
REMARK  4 active torsions:
REMARK  status: ('A' for Active; 'I' for Inactive)
REMARK    1  A    between atoms: C_2  and  C_3
REMARK    2  A    between atoms: C_9  and  N_10
REMARK    3  A    between atoms: C_11  and  C_13
REMARK    4  A    between atoms: C_17  and  N_18
REMARK                            x       y       z     vdW  Elec       q    Type
REMARK                         _______ _______ _______ _____ _____    ______ ____
ROOT
ATOM      1  N   UNL     1      21.807  -8.552  24.330  0.00  0.00    +0.000 NA
ATOM      2  C   UNL     1      21.643  -7.453  25.213  0.00  0.00    +0.000 C 
ATOM      3  O   UNL     1      22.661  -6.758  25.463  0.00  0.00    +0.000 OA
ENDROOT
BRANCH   1  10
ATOM      4  C   UNL     1      23.523  -8.305  22.568  0.00  0.00    +0.000 A 
ATOM      5  C   UNL     1      24.772  -8.593  22.057  0.00  0.00    +0.000 A 
ATOM      6  C   UNL     1      25.641  -9.415  22.731  0.00  0.00    +0.000 A 
ATOM      7  C   UNL     1      25.240  -9.946  23.931  0.00  0.00    +0.000 A 
ATOM      8  C   UNL     1      23.990  -9.645  24.423  0.00  0.00    +0.000 A 
ATOM      9  C   UNL     1      23.532 -10.220  25.740  0.00  0.00    +0.000 C 
ATOM     10  C   UNL     1      23.087  -8.822  23.774  0.00  0.00    +0.000 A 
BRANCH   4  12
ATOM     11  C   UNL     1      22.400  -8.012  20.442  0.00  0.00    +0.000 C 
ATOM     12  C   UNL     1      22.569  -7.404  21.834  0.00  0.00    +0.000 C 
ENDBRANCH   4  12
ENDBRANCH   1  10
BRANCH   2  13
ATOM     13  C   UNL     1      20.391  -7.076  25.846  0.00  0.00    +0.000 A 
ATOM     14  C   UNL     1      19.957  -5.769  25.785  0.00  0.00    +0.000 A 
ATOM     15  C   UNL     1      18.753  -5.406  26.386  0.00  0.00    +0.000 A 
ATOM     16  C   UNL     1      17.974  -6.327  27.047  0.00  0.00    +0.000 A 
ATOM     17  C   UNL     1      18.393  -7.635  27.116  0.00  0.00    +0.000 A 
ATOM     18  C   UNL     1      19.585  -7.971  26.514  0.00  0.00    +0.000 A 
ATOM     19  C   UNL     1      20.066  -9.380  26.575  0.00  0.00    +0.000 C 
BRANCH  17  20
ATOM     20  N   UNL     1      17.633  -8.635  27.784  0.00  0.00    +0.000 N 
ATOM     21  O   UNL     1      16.691  -9.261  27.267  0.00  0.00    +0.000 OA
ATOM     22  O   UNL     1      17.973  -8.920  29.083  0.00  0.00    +0.000 OA
ENDBRANCH  17  20
ENDBRANCH   2  13
TORSDOF 4
ENDMDL
MODEL 9
REMARK VINA RESULT:      -6.0     17.815     20.270
REMARK  Name = 
REMARK  4 active torsions:
REMARK  status: ('A' for Active; 'I' for Inactive)
REMARK    1  A    between atoms: C_2  and  C_3
REMARK    2  A    between atoms: C_9  and  N_10
REMARK    3  A    between atoms: C_11  and  C_13
REMARK    4  A    between atoms: C_17  and  N_18
REMARK                            x       y       z     vdW  Elec       q    Type
REMARK                         _______ _______ _______ _____ _____    ______ ____
ROOT
ATOM      1  N   UNL     1      19.372  10.824  37.958  0.00  0.00    +0.000 NA
ATOM      2  C   UNL     1      18.289  10.099  37.396  0.00  0.00    +0.000 C 
ATOM      3  O   UNL     1      18.338   8.844  37.465  0.00  0.00    +0.000 OA
ENDROOT
BRANCH   1  10
ATOM      4  C   UNL     1      21.597   9.749  37.889  0.00  0.00    +0.000 A 
ATOM      5  C   UNL     1      22.621   9.063  38.509  0.00  0.00    +0.000 A 
ATOM      6  C   UNL     1      22.541   8.717  39.835  0.00  0.00    +0.000 A 
ATOM      7  C   UNL     1      21.414   9.069  40.535  0.00  0.00    +0.000 A 
ATOM      8  C   UNL     1      20.405   9.755  39.897  0.00  0.00    +0.000 A 
ATOM      9  C   UNL     1      19.160  10.151  40.651  0.00  0.00    +0.000 C 
ATOM     10  C   UNL     1      20.449  10.121  38.563  0.00  0.00    +0.000 A 
BRANCH   4  12
ATOM     11  C   UNL     1      23.162  10.054  36.065  0.00  0.00    +0.000 C 
ATOM     12  C   UNL     1      21.682  10.132  36.437  0.00  0.00    +0.000 C 
ENDBRANCH   4  12
ENDBRANCH   1  10
BRANCH   2  13
ATOM     13  C   UNL     1      17.134  10.700  36.750  0.00  0.00    +0.000 A 
ATOM     14  C   UNL     1      16.201  11.378  37.506  0.00  0.00    +0.000 A 
ATOM     15  C   UNL     1      15.096  11.960  36.890  0.00  0.00    +0.000 A 
ATOM     16  C   UNL     1      14.906  11.878  35.529  0.00  0.00    +0.000 A 
ATOM     17  C   UNL     1      15.829  11.206  34.761  0.00  0.00    +0.000 A 
ATOM     18  C   UNL     1      16.913  10.639  35.393  0.00  0.00    +0.000 A 
ATOM     19  C   UNL     1      17.928   9.903  34.587  0.00  0.00    +0.000 C 
BRANCH  17  20
ATOM     20  N   UNL     1      15.691  11.087  33.351  0.00  0.00    +0.000 N 
ATOM     21  O   UNL     1      15.029  10.199  32.785  0.00  0.00    +0.000 OA
ATOM     22  O   UNL     1      16.332  12.021  32.576  0.00  0.00    +0.000 OA
ENDBRANCH  17  20
ENDBRANCH   2  13
TORSDOF 4
ENDMDL
MODEL 10
REMARK VINA RESULT:      -5.9      2.307      7.133
REMARK  Name = 
REMARK  4 active torsions:
REMARK  status: ('A' for Active; 'I' for Inactive)
REMARK    1  A    between atoms: C_2  and  C_3
REMARK    2  A    between atoms: C_9  and  N_10
REMARK    3  A    between atoms: C_11  and  C_13
REMARK    4  A    between atoms: C_17  and  N_18
REMARK                            x       y       z     vdW  Elec       q    Type
REMARK                         _______ _______ _______ _____ _____    ______ ____
ROOT
ATOM      1  N   UNL     1      28.380  23.915  27.476  0.00  0.00    +0.000 NA
ATOM      2  C   UNL     1      28.428  23.049  26.352  0.00  0.00    +0.000 C 
ATOM      3  O   UNL     1      28.975  21.928  26.511  0.00  0.00    +0.000 OA
ENDROOT
BRANCH   1  10
ATOM      4  C   UNL     1      30.270  23.673  29.053  0.00  0.00    +0.000 A 
ATOM      5  C   UNL     1      30.780  23.246  30.261  0.00  0.00    +0.000 A 
ATOM      6  C   UNL     1      29.983  22.617  31.185  0.00  0.00    +0.000 A 
ATOM      7  C   UNL     1      28.659  22.421  30.879  0.00  0.00    +0.000 A 
ATOM      8  C   UNL     1      28.170  22.856  29.668  0.00  0.00    +0.000 A 
ATOM      9  C   UNL     1      26.719  22.649  29.316  0.00  0.00    +0.000 C 
ATOM     10  C   UNL     1      28.942  23.493  28.712  0.00  0.00    +0.000 A 
BRANCH   4  12
ATOM     11  C   UNL     1      32.052  23.284  27.459  0.00  0.00    +0.000 C 
ATOM     12  C   UNL     1      31.139  24.364  28.039  0.00  0.00    +0.000 C 
ENDBRANCH   4  12
ENDBRANCH   1  10
BRANCH   2  13
ATOM     13  C   UNL     1      27.893  23.365  25.039  0.00  0.00    +0.000 A 
ATOM     14  C   UNL     1      26.589  23.036  24.732  0.00  0.00    +0.000 A 
ATOM     15  C   UNL     1      26.071  23.343  23.476  0.00  0.00    +0.000 A 
ATOM     16  C   UNL     1      26.833  23.973  22.519  0.00  0.00    +0.000 A 
ATOM     17  C   UNL     1      28.135  24.309  22.810  0.00  0.00    +0.000 A 
ATOM     18  C   UNL     1      28.625  23.996  24.059  0.00  0.00    +0.000 A 
ATOM     19  C   UNL     1      30.033  24.344  24.401  0.00  0.00    +0.000 C 
BRANCH  17  20
ATOM     20  N   UNL     1      28.974  24.962  21.865  0.00  0.00    +0.000 N 
ATOM     21  O   UNL     1      29.082  26.196  21.761  0.00  0.00    +0.000 OA
ATOM     22  O   UNL     1      29.708  24.166  21.021  0.00  0.00    +0.000 OA
ENDBRANCH  17  20
ENDBRANCH   2  13
TORSDOF 4
ENDMDL
