MODEL 1
REMARK VINA RESULT:      -6.8      0.000      0.000
REMARK  Name = 
REMARK  3 active torsions:
REMARK  status: ('A' for Active; 'I' for Inactive)
REMARK    1  A    between atoms: C_2  and  C_14
REMARK    2  A    between atoms: N_3  and  C_4
REMARK    3  A    between atoms: C_17  and  N_18
REMARK                            x       y       z     vdW  Elec       q    Type
REMARK                         _______ _______ _______ _____ _____    ______ ____
ROOT
ATOM      1  O   UNL     1      19.615  11.806  38.941  0.00  0.00    +0.000 OA
ATOM      2  C   UNL     1      18.965  10.957  38.282  0.00  0.00    +0.000 C 
ATOM      3  N   UNL     1      19.522   9.671  38.101  0.00  0.00    +0.000 NA
ENDROOT
BRANCH   3   4
ATOM      4  C   UNL     1      20.785   9.373  38.660  0.00  0.00    +0.000 A 
ATOM      5  C   UNL     1      20.845   8.847  39.928  0.00  0.00    +0.000 A 
ATOM      6  C   UNL     1      22.035   8.527  40.547  0.00  0.00    +0.000 A 
ATOM      7  C   UNL     1      23.191   8.762  39.829  0.00  0.00    +0.000 A 
ATOM      8  C   UNL     1      23.157   9.287  38.560  0.00  0.00    +0.000 A 
ATOM      9  C   UNL     1      21.955   9.596  37.967  0.00  0.00    +0.000 A 
ATOM     10  C   UNL     1      21.835  10.164  36.603  0.00  0.00    +0.000 C 
ATOM     11  C   UNL     1      23.112  10.209  35.849  0.00  0.00    +0.000 C 
ATOM     12  C   UNL     1      24.153   9.241  36.356  0.00  0.00    +0.000 C 
ATOM     13  C   UNL     1      24.421   9.527  37.815  0.00  0.00    +0.000 C 
ENDBRANCH   3   4
BRANCH   2  14
ATOM     14  C   UNL     1      17.676  11.364  37.749  0.00  0.00    +0.000 A 
ATOM     15  C   UNL     1      17.673  12.553  37.012  0.00  0.00    +0.000 A 
ATOM     16  C   UNL     1      16.459  12.949  36.502  0.00  0.00    +0.000 A 
ATOM     17  C   UNL     1      15.312  12.215  36.707  0.00  0.00    +0.000 A 
ATOM     18  C   UNL     1      15.346  11.047  37.438  0.00  0.00    +0.000 A 
ATOM     19  C   UNL     1      16.546  10.633  37.955  0.00  0.00    +0.000 A 
BRANCH  17  20
ATOM     20  N   UNL     1      14.072  12.682  36.148  0.00  0.00    +0.000 N 
ATOM     21  O   UNL     1      13.010  12.465  36.742  0.00  0.00    +0.000 OA
ATOM     22  O   UNL     1      14.091  13.361  34.962  0.00  0.00    +0.000 OA
ENDBRANCH  17  20
ENDBRANCH   2  14
TORSDOF 3
ENDMDL
MODEL 2
REMARK VINA RESULT:      -6.7     16.712     19.226
REMARK  Name = 
REMARK  3 active torsions:
REMARK  status: ('A' for Active; 'I' for Inactive)
REMARK    1  A    between atoms: C_2  and  C_14
REMARK    2  A    between atoms: N_3  and  C_4
REMARK    3  A    between atoms: C_17  and  N_18
REMARK                            x       y       z     vdW  Elec       q    Type
REMARK                         _______ _______ _______ _____ _____    ______ ____
ROOT
ATOM      1  O   UNL     1      32.010  -0.835  36.195  0.00  0.00    +0.000 OA
ATOM      2  C   UNL     1      32.959  -1.153  35.436  0.00  0.00    +0.000 C 
ATOM      3  N   UNL     1      34.049  -0.262  35.307  0.00  0.00    +0.000 NA
ENDROOT
BRANCH   3   4
ATOM      4  C   UNL     1      34.045   0.953  36.028  0.00  0.00    +0.000 A 
ATOM      5  C   UNL     1      34.306   0.930  37.377  0.00  0.00    +0.000 A 
ATOM      6  C   UNL     1      34.322   2.070  38.153  0.00  0.00    +0.000 A 
ATOM      7  C   UNL     1      34.059   3.262  37.510  0.00  0.00    +0.000 A 
ATOM      8  C   UNL     1      33.795   3.313  36.162  0.00  0.00    +0.000 A 
ATOM      9  C   UNL     1      33.786   2.160  35.412  0.00  0.00    +0.000 A 
ATOM     10  C   UNL     1      33.512   2.130  33.956  0.00  0.00    +0.000 C 
ATOM     11  C   UNL     1      33.422   3.471  33.328  0.00  0.00    +0.000 C 
ATOM     12  C   UNL     1      34.111   4.560  34.113  0.00  0.00    +0.000 C 
ATOM     13  C   UNL     1      33.517   4.615  35.501  0.00  0.00    +0.000 C 
ENDBRANCH   3   4
BRANCH   2  14
ATOM     14  C   UNL     1      32.867  -2.425  34.740  0.00  0.00    +0.000 A 
ATOM     15  C   UNL     1      33.610  -2.526  33.560  0.00  0.00    +0.000 A 
ATOM     16  C   UNL     1      33.531  -3.725  32.891  0.00  0.00    +0.000 A 
ATOM     17  C   UNL     1      32.762  -4.767  33.360  0.00  0.00    +0.000 A 
ATOM     18  C   UNL     1      32.040  -4.638  34.527  0.00  0.00    +0.000 A 
ATOM     19  C   UNL     1      32.105  -3.451  35.210  0.00  0.00    +0.000 A 
BRANCH  17  20
ATOM     20  N   UNL     1      32.720  -5.997  32.616  0.00  0.00    +0.000 N 
ATOM     21  O   UNL     1      31.806  -6.194  31.807  0.00  0.00    +0.000 OA
ATOM     22  O   UNL     1      33.697  -6.930  32.818  0.00  0.00    +0.000 OA
ENDBRANCH  17  20
ENDBRANCH   2  14
TORSDOF 3
ENDMDL
MODEL 3
REMARK VINA RESULT:      -6.6      4.214      5.912
REMARK  Name = 
REMARK  3 active torsions:
REMARK  status: ('A' for Active; 'I' for Inactive)
REMARK    1  A    between atoms: C_2  and  C_14
REMARK    2  A    between atoms: N_3  and  C_4
REMARK    3  A    between atoms: C_17  and  N_18
REMARK                            x       y       z     vdW  Elec       q    Type
REMARK                         _______ _______ _______ _____ _____    ______ ____
ROOT
ATOM      1  O   UNL     1      18.483   9.910  40.376  0.00  0.00    +0.000 OA
ATOM      2  C   UNL     1      17.382   9.653  39.830  0.00  0.00    +0.000 C 
ATOM      3  N   UNL     1      16.355   9.081  40.615  0.00  0.00    +0.000 NA
ENDROOT
BRANCH   3   4
ATOM      4  C   UNL     1      16.589   8.813  41.982  0.00  0.00    +0.000 A 
ATOM      5  C   UNL     1      16.362   9.806  42.905  0.00  0.00    +0.000 A 
ATOM      6  C   UNL     1      16.565   9.628  44.257  0.00  0.00    +0.000 A 
ATOM      7  C   UNL     1      17.016   8.387  44.659  0.00  0.00    +0.000 A 
ATOM      8  C   UNL     1      17.251   7.377  43.756  0.00  0.00    +0.000 A 
ATOM      9  C   UNL     1      17.039   7.583  42.413  0.00  0.00    +0.000 A 
ATOM     10  C   UNL     1      17.268   6.547  41.378  0.00  0.00    +0.000 C 
ATOM     11  C   UNL     1      17.575   5.202  41.924  0.00  0.00    +0.000 C 
ATOM     12  C   UNL     1      17.107   4.999  43.344  0.00  0.00    +0.000 C 
ATOM     13  C   UNL     1      17.736   6.052  44.224  0.00  0.00    +0.000 C 
ENDBRANCH   3   4
BRANCH   2  14
ATOM     14  C   UNL     1      17.243   9.967  38.418  0.00  0.00    +0.000 A 
ATOM     15  C   UNL     1      18.187   9.379  37.571  0.00  0.00    +0.000 A 
ATOM     16  C   UNL     1      18.067   9.668  36.232  0.00  0.00    +0.000 A 
ATOM     17  C   UNL     1      17.070  10.490  35.754  0.00  0.00    +0.000 A 
ATOM     18  C   UNL     1      16.153  11.055  36.614  0.00  0.00    +0.000 A 
ATOM     19  C   UNL     1      16.255  10.781  37.953  0.00  0.00    +0.000 A 
BRANCH  17  20
ATOM     20  N   UNL     1      16.996  10.755  34.343  0.00  0.00    +0.000 N 
ATOM     21  O   UNL     1      17.683  10.091  33.556  0.00  0.00    +0.000 OA
ATOM     22  O   UNL     1      16.163  11.741  33.894  0.00  0.00    +0.000 OA
ENDBRANCH  17  20
ENDBRANCH   2  14
TORSDOF 3
ENDMDL
MODEL 4
REMARK VINA RESULT:      -6.5     21.974     23.973
REMARK  Name = 
REMARK  3 active torsions:
REMARK  status: ('A' for Active; 'I' for Inactive)
REMARK    1  A    between atoms: C_2  and  C_14
REMARK    2  A    between atoms: N_3  and  C_4
REMARK    3  A    between atoms: C_17  and  N_18
REMARK                            x       y       z     vdW  Elec       q    Type
REMARK                         _______ _______ _______ _____ _____    ______ ____
ROOT
ATOM      1  O   UNL     1      22.567  -9.163  26.078  0.00  0.00    +0.000 OA
ATOM      2  C   UNL     1      22.582  -8.548  24.984  0.00  0.00    +0.000 C 
ATOM      3  N   UNL     1      21.354  -8.118  24.432  0.00  0.00    +0.000 NA
ENDROOT
BRANCH   3   4
ATOM      4  C   UNL     1      20.149  -8.388  25.118  0.00  0.00    +0.000 A 
ATOM      5  C   UNL     1      19.704  -9.686  25.199  0.00  0.00    +0.000 A 
ATOM      6  C   UNL     1      18.540 -10.036  25.850  0.00  0.00    +0.000 A 
ATOM      7  C   UNL     1      17.821  -9.010  26.430  0.00  0.00    +0.000 A 
ATOM      8  C   UNL     1      18.244  -7.704  26.363  0.00  0.00    +0.000 A 
ATOM      9  C   UNL     1      19.410  -7.385  25.707  0.00  0.00    +0.000 A 
ATOM     10  C   UNL     1      19.933  -6.002  25.592  0.00  0.00    +0.000 C 
ATOM     11  C   UNL     1      19.191  -5.002  26.397  0.00  0.00    +0.000 C 
ATOM     12  C   UNL     1      18.412  -5.600  27.543  0.00  0.00    +0.000 C 
ATOM     13  C   UNL     1      17.444  -6.624  26.999  0.00  0.00    +0.000 C 
ENDBRANCH   3   4
BRANCH   2  14
ATOM     14  C   UNL     1      23.874  -8.320  24.359  0.00  0.00    +0.000 A 
ATOM     15  C   UNL     1      24.678  -9.453  24.199  0.00  0.00    +0.000 A 
ATOM     16  C   UNL     1      25.904  -9.252  23.610  0.00  0.00    +0.000 A 
ATOM     17  C   UNL     1      26.314  -8.002  23.199  0.00  0.00    +0.000 A 
ATOM     18  C   UNL     1      25.500  -6.904  23.369  0.00  0.00    +0.000 A 
ATOM     19  C   UNL     1      24.273  -7.082  23.955  0.00  0.00    +0.000 A 
BRANCH  17  20
ATOM     20  N   UNL     1      27.608  -7.855  22.588  0.00  0.00    +0.000 N 
ATOM     21  O   UNL     1      27.886  -6.815  21.981  0.00  0.00    +0.000 OA
ATOM     22  O   UNL     1      28.512  -8.875  22.692  0.00  0.00    +0.000 OA
ENDBRANCH  17  20
ENDBRANCH   2  14
TORSDOF 3
ENDMDL
MODEL 5
REMARK VINA RESULT:      -6.5     18.400     20.207
REMARK  Name = 
REMARK  3 active torsions:
REMARK  status: ('A' for Active; 'I' for Inactive)
REMARK    1  A    between atoms: C_2  and  C_14
REMARK    2  A    between atoms: N_3  and  C_4
REMARK    3  A    between atoms: C_17  and  N_18
REMARK                            x       y       z     vdW  Elec       q    Type
REMARK                         _______ _______ _______ _____ _____    ______ ____
ROOT
ATOM      1  O   UNL     1      32.128  24.114  27.559  0.00  0.00    +0.000 OA
ATOM      2  C   UNL     1      31.353  23.222  27.133  0.00  0.00    +0.000 C 
ATOM      3  N   UNL     1      31.098  22.100  27.954  0.00  0.00    +0.000 NA
ENDROOT
BRANCH   3   4
ATOM      4  C   UNL     1      31.715  22.009  29.222  0.00  0.00    +0.000 A 
ATOM      5  C   UNL     1      32.987  21.496  29.310  0.00  0.00    +0.000 A 
ATOM      6  C   UNL     1      33.660  21.373  30.507  0.00  0.00    +0.000 A 
ATOM      7  C   UNL     1      32.993  21.793  31.640  0.00  0.00    +0.000 A 
ATOM      8  C   UNL     1      31.721  22.310  31.579  0.00  0.00    +0.000 A 
ATOM      9  C   UNL     1      31.073  22.421  30.370  0.00  0.00    +0.000 A 
ATOM     10  C   UNL     1      29.703  22.967  30.221  0.00  0.00    +0.000 C 
ATOM     11  C   UNL     1      29.146  23.556  31.463  0.00  0.00    +0.000 C 
ATOM     12  C   UNL     1      30.194  23.960  32.470  0.00  0.00    +0.000 C 
ATOM     13  C   UNL     1      31.032  22.753  32.820  0.00  0.00    +0.000 C 
ENDBRANCH   3   4
BRANCH   2  14
ATOM     14  C   UNL     1      30.771  23.411  25.815  0.00  0.00    +0.000 A 
ATOM     15  C   UNL     1      29.688  22.581  25.507  0.00  0.00    +0.000 A 
ATOM     16  C   UNL     1      29.128  22.750  24.263  0.00  0.00    +0.000 A 
ATOM     17  C   UNL     1      29.607  23.685  23.372  0.00  0.00    +0.000 A 
ATOM     18  C   UNL     1      30.676  24.489  23.704  0.00  0.00    +0.000 A 
ATOM     19  C   UNL     1      31.250  24.338  24.940  0.00  0.00    +0.000 A 
BRANCH  17  20
ATOM     20  N   UNL     1      28.978  23.813  22.085  0.00  0.00    +0.000 N 
ATOM     21  O   UNL     1      27.814  23.428  21.929  0.00  0.00    +0.000 OA
ATOM     22  O   UNL     1      29.684  24.363  21.052  0.00  0.00    +0.000 OA
ENDBRANCH  17  20
ENDBRANCH   2  14
TORSDOF 3
ENDMDL
MODEL 6
REMARK VINA RESULT:      -6.5     22.580     24.472
REMARK  Name = 
REMARK  3 active torsions:
REMARK  status: ('A' for Active; 'I' for Inactive)
REMARK    1  A    between atoms: C_2  and  C_14
REMARK    2  A    between atoms: N_3  and  C_4
REMARK    3  A    between atoms: C_17  and  N_18
REMARK                            x       y       z     vdW  Elec       q    Type
REMARK                         _______ _______ _______ _____ _____    ______ ____
ROOT
ATOM      1  O   UNL     1      29.587  24.416  20.897  0.00  0.00    +0.000 OA
ATOM      2  C   UNL     1      29.419  25.591  21.308  0.00  0.00    +0.000 C 
ATOM      3  N   UNL     1      29.292  25.809  22.698  0.00  0.00    +0.000 NA
ENDROOT
BRANCH   3   4
ATOM      4  C   UNL     1      29.357  24.712  23.585  0.00  0.00    +0.000 A 
ATOM      5  C   UNL     1      30.580  24.146  23.858  0.00  0.00    +0.000 A 
ATOM      6  C   UNL     1      30.731  23.073  24.712  0.00  0.00    +0.000 A 
ATOM      7  C   UNL     1      29.582  22.577  25.295  0.00  0.00    +0.000 A 
ATOM      8  C   UNL     1      28.348  23.125  25.039  0.00  0.00    +0.000 A 
ATOM      9  C   UNL     1      28.227  24.195  24.183  0.00  0.00    +0.000 A 
ATOM     10  C   UNL     1      26.934  24.842  23.856  0.00  0.00    +0.000 C 
ATOM     11  C   UNL     1      25.791  24.357  24.667  0.00  0.00    +0.000 C 
ATOM     12  C   UNL     1      26.197  23.717  25.971  0.00  0.00    +0.000 C 
ATOM     13  C   UNL     1      27.132  22.566  25.684  0.00  0.00    +0.000 C 
ENDBRANCH   3   4
BRANCH   2  14
ATOM     14  C   UNL     1      29.366  26.650  20.314  0.00  0.00    +0.000 A 
ATOM     15  C   UNL     1      28.497  27.707  20.600  0.00  0.00    +0.000 A 
ATOM     16  C   UNL     1      28.438  28.715  19.667  0.00  0.00    +0.000 A 
ATOM     17  C   UNL     1      29.194  28.683  18.516  0.00  0.00    +0.000 A 
ATOM     18  C   UNL     1      30.042  27.628  18.261  0.00  0.00    +0.000 A 
ATOM     19  C   UNL     1      30.117  26.611  19.178  0.00  0.00    +0.000 A 
BRANCH  17  20
ATOM     20  N   UNL     1      29.088  29.768  17.578  0.00  0.00    +0.000 N 
ATOM     21  O   UNL     1      29.606  30.860  17.839  0.00  0.00    +0.000 OA
ATOM     22  O   UNL     1      28.412  29.571  16.406  0.00  0.00    +0.000 OA
ENDBRANCH  17  20
ENDBRANCH   2  14
TORSDOF 3
ENDMDL
MODEL 7
REMARK VINA RESULT:      -6.5     16.236     18.087
REMARK  Name = 
REMARK  3 active torsions:
REMARK  status: ('A' for Active; 'I' for Inactive)
REMARK    1  A    between atoms: C_2  and  C_14
REMARK    2  A    between atoms: N_3  and  C_4
REMARK    3  A    between atoms: C_17  and  N_18
REMARK                            x       y       z     vdW  Elec       q    Type
REMARK                         _______ _______ _______ _____ _____    ______ ____
ROOT
ATOM      1  O   UNL     1      33.757   3.971  37.031  0.00  0.00    +0.000 OA
ATOM      2  C   UNL     1      34.178   3.650  35.893  0.00  0.00    +0.000 C 
ATOM      3  N   UNL     1      34.923   4.598  35.155  0.00  0.00    +0.000 NA
ENDROOT
BRANCH   3   4
ATOM      4  C   UNL     1      35.175   5.872  35.711  0.00  0.00    +0.000 A 
ATOM      5  C   UNL     1      34.236   6.864  35.557  0.00  0.00    +0.000 A 
ATOM      6  C   UNL     1      34.403   8.134  36.068  0.00  0.00    +0.000 A 
ATOM      7  C   UNL     1      35.575   8.378  36.755  0.00  0.00    +0.000 A 
ATOM      8  C   UNL     1      36.529   7.403  36.924  0.00  0.00    +0.000 A 
ATOM      9  C   UNL     1      36.335   6.145  36.403  0.00  0.00    +0.000 A 
ATOM     10  C   UNL     1      37.315   5.040  36.541  0.00  0.00    +0.000 C 
ATOM     11  C   UNL     1      38.450   5.346  37.446  0.00  0.00    +0.000 C 
ATOM     12  C   UNL     1      38.165   6.453  38.430  0.00  0.00    +0.000 C 
ATOM     13  C   UNL     1      37.780   7.700  37.670  0.00  0.00    +0.000 C 
ENDBRANCH   3   4
BRANCH   2  14
ATOM     14  C   UNL     1      33.865   2.315  35.412  0.00  0.00    +0.000 A 
ATOM     15  C   UNL     1      33.881   1.304  36.378  0.00  0.00    +0.000 A 
ATOM     16  C   UNL     1      33.587   0.035  35.936  0.00  0.00    +0.000 A 
ATOM     17  C   UNL     1      33.292  -0.222  34.616  0.00  0.00    +0.000 A 
ATOM     18  C   UNL     1      33.283   0.795  33.686  0.00  0.00    +0.000 A 
ATOM     19  C   UNL     1      33.574   2.068  34.105  0.00  0.00    +0.000 A 
BRANCH  17  20
ATOM     20  N   UNL     1      32.993  -1.570  34.215  0.00  0.00    +0.000 N 
ATOM     21  O   UNL     1      33.599  -2.078  33.264  0.00  0.00    +0.000 OA
ATOM     22  O   UNL     1      32.038  -2.270  34.897  0.00  0.00    +0.000 OA
ENDBRANCH  17  20
ENDBRANCH   2  14
TORSDOF 3
ENDMDL
MODEL 8
REMARK VINA RESULT:      -6.5     22.150     23.695
REMARK  Name = 
REMARK  3 active torsions:
REMARK  status: ('A' for Active; 'I' for Inactive)
REMARK    1  A    between atoms: C_2  and  C_14
REMARK    2  A    between atoms: N_3  and  C_4
REMARK    3  A    between atoms: C_17  and  N_18
REMARK                            x       y       z     vdW  Elec       q    Type
REMARK                         _______ _______ _______ _____ _____    ______ ____
ROOT
ATOM      1  O   UNL     1      23.328  -8.799  25.245  0.00  0.00    +0.000 OA
ATOM      2  C   UNL     1      22.654  -7.912  24.665  0.00  0.00    +0.000 C 
ATOM      3  N   UNL     1      23.154  -7.360  23.464  0.00  0.00    +0.000 NA
ENDROOT
BRANCH   3   4
ATOM      4  C   UNL     1      24.388  -7.815  22.948  0.00  0.00    +0.000 A 
ATOM      5  C   UNL     1      25.549  -7.212  23.369  0.00  0.00    +0.000 A 
ATOM      6  C   UNL     1      26.795  -7.594  22.917  0.00  0.00    +0.000 A 
ATOM      7  C   UNL     1      26.832  -8.628  22.003  0.00  0.00    +0.000 A 
ATOM      8  C   UNL     1      25.686  -9.248  21.567  0.00  0.00    +0.000 A 
ATOM      9  C   UNL     1      24.457  -8.845  22.036  0.00  0.00    +0.000 A 
ATOM     10  C   UNL     1      23.176  -9.462  21.614  0.00  0.00    +0.000 C 
ATOM     11  C   UNL     1      23.334 -10.676  20.776  0.00  0.00    +0.000 C 
ATOM     12  C   UNL     1      24.676 -11.349  20.924  0.00  0.00    +0.000 C 
ATOM     13  C   UNL     1      25.763 -10.359  20.582  0.00  0.00    +0.000 C 
ENDBRANCH   3   4
BRANCH   2  14
ATOM     14  C   UNL     1      21.397  -7.515  25.277  0.00  0.00    +0.000 A 
ATOM     15  C   UNL     1      20.647  -8.549  25.847  0.00  0.00    +0.000 A 
ATOM     16  C   UNL     1      19.456  -8.186  26.429  0.00  0.00    +0.000 A 
ATOM     17  C   UNL     1      19.027  -6.877  26.450  0.00  0.00    +0.000 A 
ATOM     18  C   UNL     1      19.788  -5.880  25.880  0.00  0.00    +0.000 A 
ATOM     19  C   UNL     1      20.980  -6.219  25.294  0.00  0.00    +0.000 A 
BRANCH  17  20
ATOM     20  N   UNL     1      17.771  -6.561  27.074  0.00  0.00    +0.000 N 
ATOM     21  O   UNL     1      17.429  -5.380  27.205  0.00  0.00    +0.000 OA
ATOM     22  O   UNL     1      16.973  -7.579  27.515  0.00  0.00    +0.000 OA
ENDBRANCH  17  20
ENDBRANCH   2  14
TORSDOF 3
ENDMDL
MODEL 9
REMARK VINA RESULT:      -6.5     17.493     19.329
REMARK  Name = 
REMARK  3 active torsions:
REMARK  status: ('A' for Active; 'I' for Inactive)
REMARK    1  A    between atoms: C_2  and  C_14
REMARK    2  A    between atoms: N_3  and  C_4
REMARK    3  A    between atoms: C_17  and  N_18
REMARK                            x       y       z     vdW  Elec       q    Type
REMARK                         _______ _______ _______ _____ _____    ______ ____
ROOT
ATOM      1  O   UNL     1      34.704  -0.584  33.549  0.00  0.00    +0.000 OA
ATOM      2  C   UNL     1      33.601  -0.882  34.069  0.00  0.00    +0.000 C 
ATOM      3  N   UNL     1      32.825   0.148  34.646  0.00  0.00    +0.000 NA
ENDROOT
BRANCH   3   4
ATOM      4  C   UNL     1      33.305   1.477  34.626  0.00  0.00    +0.000 A 
ATOM      5  C   UNL     1      33.238   2.193  33.455  0.00  0.00    +0.000 A 
ATOM      6  C   UNL     1      33.683   3.494  33.349  0.00  0.00    +0.000 A 
ATOM      7  C   UNL     1      34.211   4.063  34.490  0.00  0.00    +0.000 A 
ATOM      8  C   UNL     1      34.289   3.369  35.674  0.00  0.00    +0.000 A 
ATOM      9  C   UNL     1      33.837   2.073  35.750  0.00  0.00    +0.000 A 
ATOM     10  C   UNL     1      33.885   1.258  36.988  0.00  0.00    +0.000 C 
ATOM     11  C   UNL     1      34.298   2.014  38.196  0.00  0.00    +0.000 C 
ATOM     12  C   UNL     1      34.096   3.504  38.081  0.00  0.00    +0.000 C 
ATOM     13  C   UNL     1      34.863   4.014  36.884  0.00  0.00    +0.000 C 
ENDBRANCH   3   4
BRANCH   2  14
ATOM     14  C   UNL     1      33.199  -2.278  34.037  0.00  0.00    +0.000 A 
ATOM     15  C   UNL     1      32.302  -2.673  35.034  0.00  0.00    +0.000 A 
ATOM     16  C   UNL     1      31.913  -3.992  35.016  0.00  0.00    +0.000 A 
ATOM     17  C   UNL     1      32.383  -4.873  34.067  0.00  0.00    +0.000 A 
ATOM     18  C   UNL     1      33.266  -4.454  33.096  0.00  0.00    +0.000 A 
ATOM     19  C   UNL     1      33.667  -3.143  33.096  0.00  0.00    +0.000 A 
BRANCH  17  20
ATOM     20  N   UNL     1      31.939  -6.240  34.100  0.00  0.00    +0.000 N 
ATOM     21  O   UNL     1      32.609  -7.117  33.543  0.00  0.00    +0.000 OA
ATOM     22  O   UNL     1      30.778  -6.547  34.753  0.00  0.00    +0.000 OA
ENDBRANCH  17  20
ENDBRANCH   2  14
TORSDOF 3
ENDMDL
MODEL 10
REMARK VINA RESULT:      -6.4     18.354     20.084
REMARK  Name = 
REMARK  3 active torsions:
REMARK  status: ('A' for Active; 'I' for Inactive)
REMARK    1  A    between atoms: C_2  and  C_14
REMARK    2  A    between atoms: N_3  and  C_4
REMARK    3  A    between atoms: C_17  and  N_18
REMARK                            x       y       z     vdW  Elec       q    Type
REMARK                         _______ _______ _______ _____ _____    ______ ____
ROOT
ATOM      1  O   UNL     1      26.354  26.517  25.221  0.00  0.00    +0.000 OA
ATOM      2  C   UNL     1      25.447  25.650  25.189  0.00  0.00    +0.000 C 
ATOM      3  N   UNL     1      25.693  24.439  24.503  0.00  0.00    +0.000 NA
ENDROOT
BRANCH   3   4
ATOM      4  C   UNL     1      26.942  24.234  23.876  0.00  0.00    +0.000 A 
ATOM      5  C   UNL     1      27.163  24.780  22.634  0.00  0.00    +0.000 A 
ATOM      6  C   UNL     1      28.353  24.629  21.953  0.00  0.00    +0.000 A 
ATOM      7  C   UNL     1      29.336  23.891  22.580  0.00  0.00    +0.000 A 
ATOM      8  C   UNL     1      29.141  23.335  23.822  0.00  0.00    +0.000 A 
ATOM      9  C   UNL     1      27.944  23.503  24.477  0.00  0.00    +0.000 A 
ATOM     10  C   UNL     1      27.656  22.936  25.817  0.00  0.00    +0.000 C 
ATOM     11  C   UNL     1      28.831  22.319  26.480  0.00  0.00    +0.000 C 
ATOM     12  C   UNL     1      30.156  22.811  25.953  0.00  0.00    +0.000 C 
ATOM     13  C   UNL     1      30.223  22.547  24.468  0.00  0.00    +0.000 C 
ENDBRANCH   3   4
BRANCH   2  14
ATOM     14  C   UNL     1      24.198  25.958  25.865  0.00  0.00    +0.000 A 
ATOM     15  C   UNL     1      24.206  25.799  27.254  0.00  0.00    +0.000 A 
ATOM     16  C   UNL     1      23.031  26.087  27.907  0.00  0.00    +0.000 A 
ATOM     17  C   UNL     1      21.909  26.508  27.228  0.00  0.00    +0.000 A 
ATOM     18  C   UNL     1      21.931  26.655  25.858  0.00  0.00    +0.000 A 
ATOM     19  C   UNL     1      23.093  26.374  25.187  0.00  0.00    +0.000 A 
BRANCH  17  20
ATOM     20  N   UNL     1      20.709  26.794  27.966  0.00  0.00    +0.000 N 
ATOM     21  O   UNL     1      19.944  27.684  27.577  0.00  0.00    +0.000 OA
ATOM     22  O   UNL     1      20.433  26.070  29.093  0.00  0.00    +0.000 OA
ENDBRANCH  17  20
ENDBRANCH   2  14
TORSDOF 3
ENDMDL
