MODEL 1
REMARK VINA RESULT:      -6.3      0.000      0.000
REMARK  Name = 
REMARK  3 active torsions:
REMARK  status: ('A' for Active; 'I' for Inactive)
REMARK    1  A    between atoms: C_2  and  C_4
REMARK    2  A    between atoms: C_9  and  N_10
REMARK    3  A    between atoms: C_11  and  C_13
REMARK                            x       y       z     vdW  Elec       q    Type
REMARK                         _______ _______ _______ _____ _____    ______ ____
ROOT
ATOM      1  N   UNL     1      20.100   9.770  38.350  0.00  0.00    +0.000 NA
ATOM      2  C   UNL     1      20.980  10.867  38.513  0.00  0.00    +0.000 C 
ATOM      3  O   UNL     1      20.688  11.736  39.364  0.00  0.00    +0.000 OA
ENDROOT
BRANCH   2   4
ATOM      4  C   UNL     1      22.170  10.974  37.722  0.00  0.00    +0.000 C 
ATOM      5  C   UNL     1      23.354  11.604  38.354  0.00  0.00    +0.000 C 
ATOM      6  C   UNL     1      24.172  12.237  37.219  0.00  0.00    +0.000 C 
ATOM      7  C   UNL     1      24.566  11.126  36.288  0.00  0.00    +0.000 C 
ATOM      8  C   UNL     1      25.508  10.158  36.994  0.00  0.00    +0.000 C 
ATOM      9  C   UNL     1      24.735   9.552  38.148  0.00  0.00    +0.000 C 
ATOM     10  C   UNL     1      24.246  10.642  39.099  0.00  0.00    +0.000 C 
ATOM     11  C   UNL     1      23.497   8.841  37.659  0.00  0.00    +0.000 C 
ATOM     12  C   UNL     1      22.559   9.788  36.915  0.00  0.00    +0.000 C 
ATOM     13  C   UNL     1      23.410  10.339  35.759  0.00  0.00    +0.000 C 
ENDBRANCH   2   4
BRANCH   1  19
ATOM     14  C   UNL     1      17.709  10.011  38.586  0.00  0.00    +0.000 A 
ATOM     15  C   UNL     1      16.526   9.950  39.282  0.00  0.00    +0.000 A 
ATOM     16  C   UNL     1      16.552   9.537  40.591  0.00  0.00    +0.000 A 
ATOM     17  C   UNL     1      17.738   9.197  41.180  0.00  0.00    +0.000 A 
ATOM     18  C   UNL     1      18.930   9.266  40.454  0.00  0.00    +0.000 A 
ATOM     19  C   UNL     1      18.923   9.678  39.141  0.00  0.00    +0.000 A 
BRANCH  14  21
ATOM     20  N   UNL     1      17.474   9.534  36.123  0.00  0.00    +0.000 NA
ATOM     21  C   UNL     1      17.682  10.449  37.195  0.00  0.00    +0.000 C 
ATOM     22  O   UNL     1      17.841  11.657  36.874  0.00  0.00    +0.000 OA
ENDBRANCH  14  21
ENDBRANCH   1  19
TORSDOF 3
ENDMDL
MODEL 2
REMARK VINA RESULT:      -6.2     17.864     20.279
REMARK  Name = 
REMARK  3 active torsions:
REMARK  status: ('A' for Active; 'I' for Inactive)
REMARK    1  A    between atoms: C_2  and  C_4
REMARK    2  A    between atoms: C_9  and  N_10
REMARK    3  A    between atoms: C_11  and  C_13
REMARK                            x       y       z     vdW  Elec       q    Type
REMARK                         _______ _______ _______ _____ _____    ______ ____
ROOT
ATOM      1  N   UNL     1      27.504  24.436  26.610  0.00  0.00    +0.000 NA
ATOM      2  C   UNL     1      26.924  23.823  25.473  0.00  0.00    +0.000 C 
ATOM      3  O   UNL     1      26.266  22.774  25.640  0.00  0.00    +0.000 OA
ENDROOT
BRANCH   2   4
ATOM      4  C   UNL     1      27.091  24.395  24.169  0.00  0.00    +0.000 C 
ATOM      5  C   UNL     1      27.858  25.659  24.074  0.00  0.00    +0.000 C 
ATOM      6  C   UNL     1      27.320  26.407  22.845  0.00  0.00    +0.000 C 
ATOM      7  C   UNL     1      27.557  25.524  21.654  0.00  0.00    +0.000 C 
ATOM      8  C   UNL     1      29.052  25.351  21.417  0.00  0.00    +0.000 C 
ATOM      9  C   UNL     1      29.615  24.652  22.638  0.00  0.00    +0.000 C 
ATOM     10  C   UNL     1      29.344  25.472  23.898  0.00  0.00    +0.000 C 
ATOM     11  C   UNL     1      28.945  23.318  22.859  0.00  0.00    +0.000 C 
ATOM     12  C   UNL     1      27.439  23.469  23.060  0.00  0.00    +0.000 C 
ATOM     13  C   UNL     1      26.950  24.162  21.778  0.00  0.00    +0.000 C 
ENDBRANCH   2   4
BRANCH   1  19
ATOM     14  C   UNL     1      28.343  23.099  28.438  0.00  0.00    +0.000 A 
ATOM     15  C   UNL     1      28.254  22.507  29.674  0.00  0.00    +0.000 A 
ATOM     16  C   UNL     1      27.105  22.676  30.406  0.00  0.00    +0.000 A 
ATOM     17  C   UNL     1      26.076  23.422  29.904  0.00  0.00    +0.000 A 
ATOM     18  C   UNL     1      26.187  24.017  28.644  0.00  0.00    +0.000 A 
ATOM     19  C   UNL     1      27.331  23.858  27.896  0.00  0.00    +0.000 A 
BRANCH  14  21
ATOM     20  N   UNL     1      30.680  23.794  27.803  0.00  0.00    +0.000 NA
ATOM     21  C   UNL     1      29.564  22.920  27.660  0.00  0.00    +0.000 C 
ATOM     22  O   UNL     1      29.690  21.985  26.826  0.00  0.00    +0.000 OA
ENDBRANCH  14  21
ENDBRANCH   1  19
TORSDOF 3
ENDMDL
MODEL 3
REMARK VINA RESULT:      -6.2     17.898     20.188
REMARK  Name = 
REMARK  3 active torsions:
REMARK  status: ('A' for Active; 'I' for Inactive)
REMARK    1  A    between atoms: C_2  and  C_4
REMARK    2  A    between atoms: C_9  and  N_10
REMARK    3  A    between atoms: C_11  and  C_13
REMARK                            x       y       z     vdW  Elec       q    Type
REMARK                         _______ _______ _______ _____ _____    ______ ____
ROOT
ATOM      1  N   UNL     1      27.333  24.468  26.553  0.00  0.00    +0.000 NA
ATOM      2  C   UNL     1      26.793  23.859  25.394  0.00  0.00    +0.000 C 
ATOM      3  O   UNL     1      26.122  22.814  25.535  0.00  0.00    +0.000 OA
ENDROOT
BRANCH   2   4
ATOM      4  C   UNL     1      27.014  24.430  24.098  0.00  0.00    +0.000 C 
ATOM      5  C   UNL     1      27.815  25.675  24.030  0.00  0.00    +0.000 C 
ATOM      6  C   UNL     1      27.334  26.440  22.788  0.00  0.00    +0.000 C 
ATOM      7  C   UNL     1      27.584  25.554  21.602  0.00  0.00    +0.000 C 
ATOM      8  C   UNL     1      29.082  25.344  21.410  0.00  0.00    +0.000 C 
ATOM      9  C   UNL     1      29.589  24.629  22.646  0.00  0.00    +0.000 C 
ATOM     10  C   UNL     1      29.301  25.451  23.899  0.00  0.00    +0.000 C 
ATOM     11  C   UNL     1      28.880  23.311  22.841  0.00  0.00    +0.000 C 
ATOM     12  C   UNL     1      27.373  23.499  22.997  0.00  0.00    +0.000 C 
ATOM     13  C   UNL     1      26.940  24.207  21.702  0.00  0.00    +0.000 C 
ENDBRANCH   2   4
BRANCH   1  19
ATOM     14  C   UNL     1      26.127  24.414  28.645  0.00  0.00    +0.000 A 
ATOM     15  C   UNL     1      25.846  23.914  29.892  0.00  0.00    +0.000 A 
ATOM     16  C   UNL     1      26.570  22.842  30.353  0.00  0.00    +0.000 A 
ATOM     17  C   UNL     1      27.551  22.293  29.576  0.00  0.00    +0.000 A 
ATOM     18  C   UNL     1      27.822  22.816  28.309  0.00  0.00    +0.000 A 
ATOM     19  C   UNL     1      27.106  23.890  27.831  0.00  0.00    +0.000 A 
BRANCH  14  21
ATOM     20  N   UNL     1      25.745  26.895  28.430  0.00  0.00    +0.000 NA
ATOM     21  C   UNL     1      25.358  25.552  28.154  0.00  0.00    +0.000 C 
ATOM     22  O   UNL     1      24.316  25.402  27.464  0.00  0.00    +0.000 OA
ENDBRANCH  14  21
ENDBRANCH   1  19
TORSDOF 3
ENDMDL
MODEL 4
REMARK VINA RESULT:      -6.1      1.198      2.262
REMARK  Name = 
REMARK  3 active torsions:
REMARK  status: ('A' for Active; 'I' for Inactive)
REMARK    1  A    between atoms: C_2  and  C_4
REMARK    2  A    between atoms: C_9  and  N_10
REMARK    3  A    between atoms: C_11  and  C_13
REMARK                            x       y       z     vdW  Elec       q    Type
REMARK                         _______ _______ _______ _____ _____    ______ ____
ROOT
ATOM      1  N   UNL     1      20.310   9.732  37.863  0.00  0.00    +0.000 NA
ATOM      2  C   UNL     1      21.140  10.876  37.775  0.00  0.00    +0.000 C 
ATOM      3  O   UNL     1      20.689  11.966  38.189  0.00  0.00    +0.000 OA
ENDROOT
BRANCH   2   4
ATOM      4  C   UNL     1      22.460  10.780  37.224  0.00  0.00    +0.000 C 
ATOM      5  C   UNL     1      23.513  11.633  37.826  0.00  0.00    +0.000 C 
ATOM      6  C   UNL     1      24.540  11.909  36.718  0.00  0.00    +0.000 C 
ATOM      7  C   UNL     1      25.085  10.580  36.283  0.00  0.00    +0.000 C 
ATOM      8  C   UNL     1      25.862   9.931  37.422  0.00  0.00    +0.000 C 
ATOM      9  C   UNL     1      24.876   9.688  38.546  0.00  0.00    +0.000 C 
ATOM     10  C   UNL     1      24.233  11.000  38.990  0.00  0.00    +0.000 C 
ATOM     11  C   UNL     1      23.742   8.802  38.093  0.00  0.00    +0.000 C 
ATOM     12  C   UNL     1      22.975   9.419  36.926  0.00  0.00    +0.000 C 
ATOM     13  C   UNL     1      24.037   9.612  35.831  0.00  0.00    +0.000 C 
ENDBRANCH   2   4
BRANCH   1  19
ATOM     14  C   UNL     1      18.777   9.435  39.706  0.00  0.00    +0.000 A 
ATOM     15  C   UNL     1      17.546   9.509  40.309  0.00  0.00    +0.000 A 
ATOM     16  C   UNL     1      16.489  10.012  39.591  0.00  0.00    +0.000 A 
ATOM     17  C   UNL     1      16.670  10.427  38.302  0.00  0.00    +0.000 A 
ATOM     18  C   UNL     1      17.933  10.344  37.707  0.00  0.00    +0.000 A 
ATOM     19  C   UNL     1      19.004   9.843  38.411  0.00  0.00    +0.000 A 
BRANCH  14  21
ATOM     20  N   UNL     1      20.177   7.505  40.521  0.00  0.00    +0.000 NA
ATOM     21  C   UNL     1      19.901   8.901  40.468  0.00  0.00    +0.000 C 
ATOM     22  O   UNL     1      20.682   9.650  41.114  0.00  0.00    +0.000 OA
ENDBRANCH  14  21
ENDBRANCH   1  19
TORSDOF 3
ENDMDL
MODEL 5
REMARK VINA RESULT:      -6.1     21.350     22.691
REMARK  Name = 
REMARK  3 active torsions:
REMARK  status: ('A' for Active; 'I' for Inactive)
REMARK    1  A    between atoms: C_2  and  C_4
REMARK    2  A    between atoms: C_9  and  N_10
REMARK    3  A    between atoms: C_11  and  C_13
REMARK                            x       y       z     vdW  Elec       q    Type
REMARK                         _______ _______ _______ _____ _____    ______ ____
ROOT
ATOM      1  N   UNL     1      24.427   2.979  18.034  0.00  0.00    +0.000 NA
ATOM      2  C   UNL     1      24.997   3.909  17.130  0.00  0.00    +0.000 C 
ATOM      3  O   UNL     1      24.339   4.223  16.115  0.00  0.00    +0.000 OA
ENDROOT
BRANCH   2   4
ATOM      4  C   UNL     1      26.291   4.471  17.379  0.00  0.00    +0.000 C 
ATOM      5  C   UNL     1      27.248   4.504  16.248  0.00  0.00    +0.000 C 
ATOM      6  C   UNL     1      28.655   4.442  16.861  0.00  0.00    +0.000 C 
ATOM      7  C   UNL     1      28.802   5.646  17.746  0.00  0.00    +0.000 C 
ATOM      8  C   UNL     1      28.765   6.920  16.911  0.00  0.00    +0.000 C 
ATOM      9  C   UNL     1      27.398   6.981  16.259  0.00  0.00    +0.000 C 
ATOM     10  C   UNL     1      27.160   5.744  15.395  0.00  0.00    +0.000 C 
ATOM     11  C   UNL     1      26.301   6.982  17.294  0.00  0.00    +0.000 C 
ATOM     12  C   UNL     1      26.346   5.730  18.167  0.00  0.00    +0.000 C 
ATOM     13  C   UNL     1      27.747   5.757  18.801  0.00  0.00    +0.000 C 
ENDBRANCH   2   4
BRANCH   1  19
ATOM     14  C   UNL     1      23.045   1.194  17.175  0.00  0.00    +0.000 A 
ATOM     15  C   UNL     1      21.843   0.595  16.891  0.00  0.00    +0.000 A 
ATOM     16  C   UNL     1      20.683   1.253  17.217  0.00  0.00    +0.000 A 
ATOM     17  C   UNL     1      20.736   2.482  17.812  0.00  0.00    +0.000 A 
ATOM     18  C   UNL     1      21.971   3.075  18.094  0.00  0.00    +0.000 A 
ATOM     19  C   UNL     1      23.143   2.430  17.774  0.00  0.00    +0.000 A 
BRANCH  14  21
ATOM     20  N   UNL     1      24.893  -0.428  17.722  0.00  0.00    +0.000 NA
ATOM     21  C   UNL     1      24.278   0.495  16.829  0.00  0.00    +0.000 C 
ATOM     22  O   UNL     1      24.857   0.674  15.725  0.00  0.00    +0.000 OA
ENDBRANCH  14  21
ENDBRANCH   1  19
TORSDOF 3
ENDMDL
MODEL 6
REMARK VINA RESULT:      -6.1      1.571      2.969
REMARK  Name = 
REMARK  3 active torsions:
REMARK  status: ('A' for Active; 'I' for Inactive)
REMARK    1  A    between atoms: C_2  and  C_4
REMARK    2  A    between atoms: C_9  and  N_10
REMARK    3  A    between atoms: C_11  and  C_13
REMARK                            x       y       z     vdW  Elec       q    Type
REMARK                         _______ _______ _______ _____ _____    ______ ____
ROOT
ATOM      1  N   UNL     1      19.969  10.863  38.429  0.00  0.00    +0.000 NA
ATOM      2  C   UNL     1      20.815  10.093  37.593  0.00  0.00    +0.000 C 
ATOM      3  O   UNL     1      20.315   9.558  36.580  0.00  0.00    +0.000 OA
ENDROOT
BRANCH   2   4
ATOM      4  C   UNL     1      22.204   9.935  37.907  0.00  0.00    +0.000 C 
ATOM      5  C   UNL     1      23.074   9.337  36.866  0.00  0.00    +0.000 C 
ATOM      6  C   UNL     1      24.223   8.635  37.605  0.00  0.00    +0.000 C 
ATOM      7  C   UNL     1      24.947   9.688  38.394  0.00  0.00    +0.000 C 
ATOM      8  C   UNL     1      25.604  10.690  37.452  0.00  0.00    +0.000 C 
ATOM      9  C   UNL     1      24.490  11.366  36.679  0.00  0.00    +0.000 C 
ATOM     10  C   UNL     1      23.670  10.335  35.906  0.00  0.00    +0.000 C 
ATOM     11  C   UNL     1      23.522  12.054  37.610  0.00  0.00    +0.000 C 
ATOM     12  C   UNL     1      22.881  11.070  38.586  0.00  0.00    +0.000 C 
ATOM     13  C   UNL     1      24.071  10.449  39.338  0.00  0.00    +0.000 C 
ENDBRANCH   2   4
BRANCH   1  19
ATOM     14  C   UNL     1      17.661  10.227  38.747  0.00  0.00    +0.000 A 
ATOM     15  C   UNL     1      16.314  10.308  38.493  0.00  0.00    +0.000 A 
ATOM     16  C   UNL     1      15.872  11.210  37.556  0.00  0.00    +0.000 A 
ATOM     17  C   UNL     1      16.765  12.006  36.896  0.00  0.00    +0.000 A 
ATOM     18  C   UNL     1      18.133  11.908  37.171  0.00  0.00    +0.000 A 
ATOM     19  C   UNL     1      18.594  11.010  38.105  0.00  0.00    +0.000 A 
BRANCH  14  21
ATOM     20  N   UNL     1      18.549   7.956  39.381  0.00  0.00    +0.000 NA
ATOM     21  C   UNL     1      18.131   9.269  39.742  0.00  0.00    +0.000 C 
ATOM     22  O   UNL     1      18.192   9.558  40.966  0.00  0.00    +0.000 OA
ENDBRANCH  14  21
ENDBRANCH   1  19
TORSDOF 3
ENDMDL
MODEL 7
REMARK VINA RESULT:      -6.0     19.105     21.059
REMARK  Name = 
REMARK  3 active torsions:
REMARK  status: ('A' for Active; 'I' for Inactive)
REMARK    1  A    between atoms: C_2  and  C_4
REMARK    2  A    between atoms: C_9  and  N_10
REMARK    3  A    between atoms: C_11  and  C_13
REMARK                            x       y       z     vdW  Elec       q    Type
REMARK                         _______ _______ _______ _____ _____    ______ ____
ROOT
ATOM      1  N   UNL     1      25.390  26.143  25.302  0.00  0.00    +0.000 NA
ATOM      2  C   UNL     1      25.806  24.937  24.687  0.00  0.00    +0.000 C 
ATOM      3  O   UNL     1      24.985  23.996  24.620  0.00  0.00    +0.000 OA
ENDROOT
BRANCH   2   4
ATOM      4  C   UNL     1      27.131  24.805  24.158  0.00  0.00    +0.000 C 
ATOM      5  C   UNL     1      27.370  23.714  23.184  0.00  0.00    +0.000 C 
ATOM      6  C   UNL     1      28.849  23.321  23.321  0.00  0.00    +0.000 C 
ATOM      7  C   UNL     1      29.660  24.541  22.997  0.00  0.00    +0.000 C 
ATOM      8  C   UNL     1      29.464  24.930  21.536  0.00  0.00    +0.000 C 
ATOM      9  C   UNL     1      28.000  25.282  21.366  0.00  0.00    +0.000 C 
ATOM     10  C   UNL     1      27.115  24.097  21.748  0.00  0.00    +0.000 C 
ATOM     11  C   UNL     1      27.602  26.411  22.284  0.00  0.00    +0.000 C 
ATOM     12  C   UNL     1      27.828  26.053  23.751  0.00  0.00    +0.000 C 
ATOM     13  C   UNL     1      29.329  25.733  23.839  0.00  0.00    +0.000 C 
ENDBRANCH   2   4
BRANCH   1  19
ATOM     14  C   UNL     1      23.851  26.024  27.160  0.00  0.00    +0.000 A 
ATOM     15  C   UNL     1      22.610  26.115  27.740  0.00  0.00    +0.000 A 
ATOM     16  C   UNL     1      21.538  26.457  26.953  0.00  0.00    +0.000 A 
ATOM     17  C   UNL     1      21.714  26.698  25.620  0.00  0.00    +0.000 A 
ATOM     18  C   UNL     1      22.987  26.601  25.049  0.00  0.00    +0.000 A 
ATOM     19  C   UNL     1      24.073  26.259  25.822  0.00  0.00    +0.000 A 
BRANCH  14  21
ATOM     20  N   UNL     1      25.772  26.645  28.668  0.00  0.00    +0.000 NA
ATOM     21  C   UNL     1      24.992  25.662  27.995  0.00  0.00    +0.000 C 
ATOM     22  O   UNL     1      25.339  24.463  28.161  0.00  0.00    +0.000 OA
ENDBRANCH  14  21
ENDBRANCH   1  19
TORSDOF 3
ENDMDL
MODEL 8
REMARK VINA RESULT:      -5.9     21.531     23.074
REMARK  Name = 
REMARK  3 active torsions:
REMARK  status: ('A' for Active; 'I' for Inactive)
REMARK    1  A    between atoms: C_2  and  C_4
REMARK    2  A    between atoms: C_9  and  N_10
REMARK    3  A    between atoms: C_11  and  C_13
REMARK                            x       y       z     vdW  Elec       q    Type
REMARK                         _______ _______ _______ _____ _____    ______ ____
ROOT
ATOM      1  N   UNL     1      24.191   4.131  17.023  0.00  0.00    +0.000 NA
ATOM      2  C   UNL     1      25.491   3.766  17.449  0.00  0.00    +0.000 C 
ATOM      3  O   UNL     1      25.707   2.565  17.721  0.00  0.00    +0.000 OA
ENDROOT
BRANCH   2   4
ATOM      4  C   UNL     1      26.526   4.751  17.563  0.00  0.00    +0.000 C 
ATOM      5  C   UNL     1      27.777   4.516  16.804  0.00  0.00    +0.000 C 
ATOM      6  C   UNL     1      28.901   5.213  17.584  0.00  0.00    +0.000 C 
ATOM      7  C   UNL     1      28.555   6.673  17.643  0.00  0.00    +0.000 C 
ATOM      8  C   UNL     1      28.580   7.276  16.243  0.00  0.00    +0.000 C 
ATOM      9  C   UNL     1      27.506   6.571  15.440  0.00  0.00    +0.000 C 
ATOM     10  C   UNL     1      27.765   5.067  15.400  0.00  0.00    +0.000 C 
ATOM     11  C   UNL     1      26.149   6.742  16.077  0.00  0.00    +0.000 C 
ATOM     12  C   UNL     1      26.116   6.178  17.496  0.00  0.00    +0.000 C 
ATOM     13  C   UNL     1      27.214   6.956  18.242  0.00  0.00    +0.000 C 
ENDBRANCH   2   4
BRANCH   1  19
ATOM     14  C   UNL     1      22.886   2.603  15.683  0.00  0.00    +0.000 A 
ATOM     15  C   UNL     1      21.920   1.645  15.494  0.00  0.00    +0.000 A 
ATOM     16  C   UNL     1      21.208   1.202  16.581  0.00  0.00    +0.000 A 
ATOM     17  C   UNL     1      21.463   1.714  17.823  0.00  0.00    +0.000 A 
ATOM     18  C   UNL     1      22.451   2.688  17.993  0.00  0.00    +0.000 A 
ATOM     19  C   UNL     1      23.175   3.143  16.915  0.00  0.00    +0.000 A 
BRANCH  14  21
ATOM     20  N   UNL     1      23.154   4.105  13.678  0.00  0.00    +0.000 NA
ATOM     21  C   UNL     1      23.644   3.073  14.528  0.00  0.00    +0.000 C 
ATOM     22  O   UNL     1      24.768   2.589  14.229  0.00  0.00    +0.000 OA
ENDBRANCH  14  21
ENDBRANCH   1  19
TORSDOF 3
ENDMDL
MODEL 9
REMARK VINA RESULT:      -5.9      3.949      5.868
REMARK  Name = 
REMARK  3 active torsions:
REMARK  status: ('A' for Active; 'I' for Inactive)
REMARK    1  A    between atoms: C_2  and  C_4
REMARK    2  A    between atoms: C_9  and  N_10
REMARK    3  A    between atoms: C_11  and  C_13
REMARK                            x       y       z     vdW  Elec       q    Type
REMARK                         _______ _______ _______ _____ _____    ______ ____
ROOT
ATOM      1  N   UNL     1      17.093   9.936  37.732  0.00  0.00    +0.000 NA
ATOM      2  C   UNL     1      18.295  10.070  38.469  0.00  0.00    +0.000 C 
ATOM      3  O   UNL     1      19.341  10.348  37.845  0.00  0.00    +0.000 OA
ENDROOT
BRANCH   2   4
ATOM      4  C   UNL     1      18.304   9.891  39.891  0.00  0.00    +0.000 C 
ATOM      5  C   UNL     1      17.194   9.108  40.486  0.00  0.00    +0.000 C 
ATOM      6  C   UNL     1      17.005   9.633  41.917  0.00  0.00    +0.000 C 
ATOM      7  C   UNL     1      18.298   9.402  42.644  0.00  0.00    +0.000 C 
ATOM      8  C   UNL     1      18.567   7.908  42.777  0.00  0.00    +0.000 C 
ATOM      9  C   UNL     1      18.713   7.358  41.373  0.00  0.00    +0.000 C 
ATOM     10  C   UNL     1      17.450   7.624  40.557  0.00  0.00    +0.000 C 
ATOM     11  C   UNL     1      19.837   8.045  40.635  0.00  0.00    +0.000 C 
ATOM     12  C   UNL     1      19.604   9.550  40.525  0.00  0.00    +0.000 C 
ATOM     13  C   UNL     1      19.487  10.026  41.983  0.00  0.00    +0.000 C 
ENDBRANCH   2   4
BRANCH   1  19
ATOM     14  C   UNL     1      16.617  11.289  35.789  0.00  0.00    +0.000 A 
ATOM     15  C   UNL     1      16.589  11.541  34.439  0.00  0.00    +0.000 A 
ATOM     16  C   UNL     1      17.063  10.582  33.579  0.00  0.00    +0.000 A 
ATOM     17  C   UNL     1      17.550   9.403  34.067  0.00  0.00    +0.000 A 
ATOM     18  C   UNL     1      17.571   9.166  35.445  0.00  0.00    +0.000 A 
ATOM     19  C   UNL     1      17.100  10.116  36.323  0.00  0.00    +0.000 A 
BRANCH  14  21
ATOM     20  N   UNL     1      16.972  13.289  37.280  0.00  0.00    +0.000 NA
ATOM     21  C   UNL     1      16.115  12.308  36.704  0.00  0.00    +0.000 C 
ATOM     22  O   UNL     1      14.899  12.370  37.028  0.00  0.00    +0.000 OA
ENDBRANCH  14  21
ENDBRANCH   1  19
TORSDOF 3
ENDMDL
MODEL 10
REMARK VINA RESULT:      -5.8      5.454      8.119
REMARK  Name = 
REMARK  3 active torsions:
REMARK  status: ('A' for Active; 'I' for Inactive)
REMARK    1  A    between atoms: C_2  and  C_4
REMARK    2  A    between atoms: C_9  and  N_10
REMARK    3  A    between atoms: C_11  and  C_13
REMARK                            x       y       z     vdW  Elec       q    Type
REMARK                         _______ _______ _______ _____ _____    ______ ____
ROOT
ATOM      1  N   UNL     1      19.388   5.454  40.435  0.00  0.00    +0.000 NA
ATOM      2  C   UNL     1      18.293   5.664  41.309  0.00  0.00    +0.000 C 
ATOM      3  O   UNL     1      18.051   4.793  42.172  0.00  0.00    +0.000 OA
ENDROOT
BRANCH   2   4
ATOM      4  C   UNL     1      17.488   6.845  41.200  0.00  0.00    +0.000 C 
ATOM      5  C   UNL     1      16.380   7.006  42.171  0.00  0.00    +0.000 C 
ATOM      6  C   UNL     1      15.304   7.850  41.473  0.00  0.00    +0.000 C 
ATOM      7  C   UNL     1      15.934   9.168  41.127  0.00  0.00    +0.000 C 
ATOM      8  C   UNL     1      16.300   9.925  42.398  0.00  0.00    +0.000 C 
ATOM      9  C   UNL     1      17.332   9.089  43.128  0.00  0.00    +0.000 C 
ATOM     10  C   UNL     1      16.772   7.705  43.449  0.00  0.00    +0.000 C 
ATOM     11  C   UNL     1      18.550   8.855  42.269  0.00  0.00    +0.000 C 
ATOM     12  C   UNL     1      18.196   8.132  40.972  0.00  0.00    +0.000 C 
ATOM     13  C   UNL     1      17.168   9.050  40.290  0.00  0.00    +0.000 C 
ENDBRANCH   2   4
BRANCH   1  19
ATOM     14  C   UNL     1      21.465   4.374  41.030  0.00  0.00    +0.000 A 
ATOM     15  C   UNL     1      22.291   3.287  41.175  0.00  0.00    +0.000 A 
ATOM     16  C   UNL     1      21.815   2.046  40.834  0.00  0.00    +0.000 A 
ATOM     17  C   UNL     1      20.542   1.906  40.358  0.00  0.00    +0.000 A 
ATOM     18  C   UNL     1      19.716   3.026  40.218  0.00  0.00    +0.000 A 
ATOM     19  C   UNL     1      20.177   4.278  40.555  0.00  0.00    +0.000 A 
BRANCH  14  21
ATOM     20  N   UNL     1      21.742   6.256  42.682  0.00  0.00    +0.000 NA
ATOM     21  C   UNL     1      21.970   5.694  41.393  0.00  0.00    +0.000 C 
ATOM     22  O   UNL     1      22.632   6.398  40.586  0.00  0.00    +0.000 OA
ENDBRANCH  14  21
ENDBRANCH   1  19
TORSDOF 3
ENDMDL
