MODEL 1
REMARK VINA RESULT:      -6.5      0.000      0.000
REMARK  Name = 
REMARK  1 active torsions:
REMARK  status: ('A' for Active; 'I' for Inactive)
REMARK    1  A    between atoms: N_5  and  C_6
REMARK                            x       y       z     vdW  Elec       q    Type
REMARK                         _______ _______ _______ _____ _____    ______ ____
ROOT
ATOM      1  C   UNL     1      15.194 -10.999  27.532  0.00  0.00    +0.000 C 
ATOM      2  N   UNL     1      16.564 -10.957  27.971  0.00  0.00    +0.000 N 
ATOM      3  C   UNL     1      17.630 -10.548  27.107  0.00  0.00    +0.000 C 
ATOM      4  O   UNL     1      17.459 -10.610  25.863  0.00  0.00    +0.000 OA
ATOM      5  N   UNL     1      18.865 -10.080  27.657  0.00  0.00    +0.000 N 
ATOM      6  C   UNL     1      19.221 -10.511  29.005  0.00  0.00    +0.000 C 
ATOM      7  C   UNL     1      19.740 -11.944  28.984  0.00  0.00    +0.000 C 
ATOM      8  O   UNL     1      20.166  -9.647  29.553  0.00  0.00    +0.000 OA
ATOM      9  C   UNL     1      17.976 -10.420  29.880  0.00  0.00    +0.000 C 
ATOM     10  C   UNL     1      16.931 -11.330  29.324  0.00  0.00    +0.000 C 
ATOM     11  C   UNL     1      17.495 -12.743  29.253  0.00  0.00    +0.000 C 
ATOM     12  C   UNL     1      15.708 -11.381  30.213  0.00  0.00    +0.000 C 
ENDROOT
BRANCH   5  13
ATOM     13  C   UNL     1      19.675  -9.228  26.879  0.00  0.00    +0.000 A 
ATOM     14  C   UNL     1      20.813  -9.706  26.223  0.00  0.00    +0.000 A 
ATOM     15  C   UNL     1      21.614  -8.911  25.467  0.00  0.00    +0.000 A 
ATOM     16  C   UNL     1      21.291  -7.588  25.344  0.00  0.00    +0.000 A 
ATOM     17  C   UNL     1      20.160  -7.060  25.983  0.00  0.00    +0.000 A 
ATOM     18  C   UNL     1      19.839  -5.740  25.861  0.00  0.00    +0.000 A 
ATOM     19  C   UNL     1      18.731  -5.224  26.488  0.00  0.00    +0.000 A 
ATOM     20  C   UNL     1      17.944  -6.056  27.244  0.00  0.00    +0.000 A 
ATOM     21  C   UNL     1      18.250  -7.388  27.379  0.00  0.00    +0.000 A 
ATOM     22  C   UNL     1      19.376  -7.905  26.742  0.00  0.00    +0.000 A 
ENDBRANCH   5  13
TORSDOF 1
ENDMDL
MODEL 2
REMARK VINA RESULT:      -6.4      0.877      2.396
REMARK  Name = 
REMARK  1 active torsions:
REMARK  status: ('A' for Active; 'I' for Inactive)
REMARK    1  A    between atoms: N_5  and  C_6
REMARK                            x       y       z     vdW  Elec       q    Type
REMARK                         _______ _______ _______ _____ _____    ______ ____
ROOT
ATOM      1  C   UNL     1      14.622 -10.829  27.151  0.00  0.00    +0.000 C 
ATOM      2  N   UNL     1      15.957 -10.560  27.617  0.00  0.00    +0.000 N 
ATOM      3  C   UNL     1      16.846  -9.680  26.920  0.00  0.00    +0.000 C 
ATOM      4  O   UNL     1      16.638  -9.451  25.702  0.00  0.00    +0.000 OA
ATOM      5  N   UNL     1      17.949  -9.079  27.603  0.00  0.00    +0.000 N 
ATOM      6  C   UNL     1      18.464  -9.748  28.794  0.00  0.00    +0.000 C 
ATOM      7  C   UNL     1      19.322 -10.945  28.400  0.00  0.00    +0.000 C 
ATOM      8  O   UNL     1      19.187  -8.851  29.575  0.00  0.00    +0.000 OA
ATOM      9  C   UNL     1      17.277 -10.212  29.632  0.00  0.00    +0.000 C 
ATOM     10  C   UNL     1      16.467 -11.175  28.828  0.00  0.00    +0.000 C 
ATOM     11  C   UNL     1      17.362 -12.327  28.392  0.00  0.00    +0.000 C 
ATOM     12  C   UNL     1      15.339 -11.767  29.642  0.00  0.00    +0.000 C 
ENDROOT
BRANCH   5  13
ATOM     13  C   UNL     1      18.483  -7.875  27.102  0.00  0.00    +0.000 A 
ATOM     14  C   UNL     1      17.853  -6.649  27.330  0.00  0.00    +0.000 A 
ATOM     15  C   UNL     1      18.342  -5.472  26.861  0.00  0.00    +0.000 A 
ATOM     16  C   UNL     1      19.501  -5.491  26.136  0.00  0.00    +0.000 A 
ATOM     17  C   UNL     1      20.171  -6.695  25.879  0.00  0.00    +0.000 A 
ATOM     18  C   UNL     1      21.327  -6.713  25.155  0.00  0.00    +0.000 A 
ATOM     19  C   UNL     1      21.983  -7.894  24.904  0.00  0.00    +0.000 A 
ATOM     20  C   UNL     1      21.460  -9.064  25.394  0.00  0.00    +0.000 A 
ATOM     21  C   UNL     1      20.298  -9.067  26.126  0.00  0.00    +0.000 A 
ATOM     22  C   UNL     1      19.637  -7.866  26.375  0.00  0.00    +0.000 A 
ENDBRANCH   5  13
TORSDOF 1
ENDMDL
MODEL 3
REMARK VINA RESULT:      -6.2      1.637      3.732
REMARK  Name = 
REMARK  1 active torsions:
REMARK  status: ('A' for Active; 'I' for Inactive)
REMARK    1  A    between atoms: N_5  and  C_6
REMARK                            x       y       z     vdW  Elec       q    Type
REMARK                         _______ _______ _______ _____ _____    ______ ____
ROOT
ATOM      1  C   UNL     1      19.098 -12.335  28.015  0.00  0.00    +0.000 C 
ATOM      2  N   UNL     1      18.269 -11.405  27.295  0.00  0.00    +0.000 N 
ATOM      3  C   UNL     1      18.395  -9.987  27.455  0.00  0.00    +0.000 C 
ATOM      4  O   UNL     1      18.931  -9.542  28.501  0.00  0.00    +0.000 OA
ATOM      5  N   UNL     1      17.915  -9.101  26.440  0.00  0.00    +0.000 N 
ATOM      6  C   UNL     1      16.867  -9.586  25.548  0.00  0.00    +0.000 C 
ATOM      7  C   UNL     1      15.516  -9.555  26.253  0.00  0.00    +0.000 C 
ATOM      8  O   UNL     1      16.838  -8.825  24.382  0.00  0.00    +0.000 OA
ATOM      9  C   UNL     1      17.209 -11.014  25.139  0.00  0.00    +0.000 C 
ATOM     10  C   UNL     1      17.257 -11.867  26.363  0.00  0.00    +0.000 C 
ATOM     11  C   UNL     1      15.919 -11.769  27.084  0.00  0.00    +0.000 C 
ATOM     12  C   UNL     1      17.475 -13.323  26.019  0.00  0.00    +0.000 C 
ENDROOT
BRANCH   5  13
ATOM     13  C   UNL     1      18.475  -7.811  26.345  0.00  0.00    +0.000 A 
ATOM     14  C   UNL     1      17.811  -6.692  26.853  0.00  0.00    +0.000 A 
ATOM     15  C   UNL     1      18.322  -5.436  26.778  0.00  0.00    +0.000 A 
ATOM     16  C   UNL     1      19.539  -5.263  26.178  0.00  0.00    +0.000 A 
ATOM     17  C   UNL     1      20.245  -6.354  25.653  0.00  0.00    +0.000 A 
ATOM     18  C   UNL     1      21.459  -6.180  25.055  0.00  0.00    +0.000 A 
ATOM     19  C   UNL     1      22.149  -7.250  24.540  0.00  0.00    +0.000 A 
ATOM     20  C   UNL     1      21.603  -8.505  24.634  0.00  0.00    +0.000 A 
ATOM     21  C   UNL     1      20.382  -8.701  25.233  0.00  0.00    +0.000 A 
ATOM     22  C   UNL     1      19.687  -7.611  25.752  0.00  0.00    +0.000 A 
ENDBRANCH   5  13
TORSDOF 1
ENDMDL
MODEL 4
REMARK VINA RESULT:      -6.2     33.710     36.175
REMARK  Name = 
REMARK  1 active torsions:
REMARK  status: ('A' for Active; 'I' for Inactive)
REMARK    1  A    between atoms: N_5  and  C_6
REMARK                            x       y       z     vdW  Elec       q    Type
REMARK                         _______ _______ _______ _____ _____    ______ ____
ROOT
ATOM      1  C   UNL     1      28.164  28.880  22.847  0.00  0.00    +0.000 C 
ATOM      2  N   UNL     1      28.168  27.455  22.649  0.00  0.00    +0.000 N 
ATOM      3  C   UNL     1      28.313  26.534  23.735  0.00  0.00    +0.000 C 
ATOM      4  O   UNL     1      28.839  26.936  24.803  0.00  0.00    +0.000 OA
ATOM      5  N   UNL     1      27.866  25.182  23.599  0.00  0.00    +0.000 N 
ATOM      6  C   UNL     1      27.772  24.624  22.254  0.00  0.00    +0.000 C 
ATOM      7  C   UNL     1      29.156  24.249  21.738  0.00  0.00    +0.000 C 
ATOM      8  O   UNL     1      26.922  23.521  22.249  0.00  0.00    +0.000 OA
ATOM      9  C   UNL     1      27.143  25.674  21.344  0.00  0.00    +0.000 C 
ATOM     10  C   UNL     1      28.022  26.881  21.324  0.00  0.00    +0.000 C 
ATOM     11  C   UNL     1      29.414  26.469  20.868  0.00  0.00    +0.000 C 
ATOM     12  C   UNL     1      27.518  27.919  20.346  0.00  0.00    +0.000 C 
ENDROOT
BRANCH   5  13
ATOM     13  C   UNL     1      27.536  24.456  24.761  0.00  0.00    +0.000 A 
ATOM     14  C   UNL     1      26.259  24.526  25.325  0.00  0.00    +0.000 A 
ATOM     15  C   UNL     1      25.910  23.839  26.443  0.00  0.00    +0.000 A 
ATOM     16  C   UNL     1      26.850  23.046  27.041  0.00  0.00    +0.000 A 
ATOM     17  C   UNL     1      28.145  22.942  26.515  0.00  0.00    +0.000 A 
ATOM     18  C   UNL     1      29.083  22.151  27.112  0.00  0.00    +0.000 A 
ATOM     19  C   UNL     1      30.351  22.050  26.595  0.00  0.00    +0.000 A 
ATOM     20  C   UNL     1      30.669  22.757  25.464  0.00  0.00    +0.000 A 
ATOM     21  C   UNL     1      29.740  23.559  24.847  0.00  0.00    +0.000 A 
ATOM     22  C   UNL     1      28.455  23.658  25.377  0.00  0.00    +0.000 A 
ENDBRANCH   5  13
TORSDOF 1
ENDMDL
MODEL 5
REMARK VINA RESULT:      -6.2     16.109     19.611
REMARK  Name = 
REMARK  1 active torsions:
REMARK  status: ('A' for Active; 'I' for Inactive)
REMARK    1  A    between atoms: N_5  and  C_6
REMARK                            x       y       z     vdW  Elec       q    Type
REMARK                         _______ _______ _______ _____ _____    ______ ____
ROOT
ATOM      1  C   UNL     1      27.824   4.850  13.277  0.00  0.00    +0.000 C 
ATOM      2  N   UNL     1      27.431   5.166  14.625  0.00  0.00    +0.000 N 
ATOM      3  C   UNL     1      26.209   4.684  15.197  0.00  0.00    +0.000 C 
ATOM      4  O   UNL     1      25.280   4.329  14.428  0.00  0.00    +0.000 OA
ATOM      5  N   UNL     1      26.056   4.613  16.617  0.00  0.00    +0.000 N 
ATOM      6  C   UNL     1      26.881   5.492  17.440  0.00  0.00    +0.000 C 
ATOM      7  C   UNL     1      26.325   6.911  17.421  0.00  0.00    +0.000 C 
ATOM      8  O   UNL     1      26.956   5.003  18.741  0.00  0.00    +0.000 OA
ATOM      9  C   UNL     1      28.298   5.480  16.878  0.00  0.00    +0.000 C 
ATOM     10  C   UNL     1      28.264   5.994  15.476  0.00  0.00    +0.000 C 
ATOM     11  C   UNL     1      27.646   7.385  15.476  0.00  0.00    +0.000 C 
ATOM     12  C   UNL     1      29.656   6.122  14.897  0.00  0.00    +0.000 C 
ENDROOT
BRANCH   5  13
ATOM     13  C   UNL     1      25.124   3.703  17.155  0.00  0.00    +0.000 A 
ATOM     14  C   UNL     1      23.900   4.135  17.672  0.00  0.00    +0.000 A 
ATOM     15  C   UNL     1      22.981   3.284  18.198  0.00  0.00    +0.000 A 
ATOM     16  C   UNL     1      23.269   1.947  18.219  0.00  0.00    +0.000 A 
ATOM     17  C   UNL     1      24.483   1.463  17.713  0.00  0.00    +0.000 A 
ATOM     18  C   UNL     1      24.769   0.130  17.735  0.00  0.00    +0.000 A 
ATOM     19  C   UNL     1      25.959  -0.343  17.238  0.00  0.00    +0.000 A 
ATOM     20  C   UNL     1      26.864   0.545  16.714  0.00  0.00    +0.000 A 
ATOM     21  C   UNL     1      26.595   1.892  16.683  0.00  0.00    +0.000 A 
ATOM     22  C   UNL     1      25.387   2.365  17.189  0.00  0.00    +0.000 A 
ENDBRANCH   5  13
TORSDOF 1
ENDMDL
MODEL 6
REMARK VINA RESULT:      -6.2     33.832     36.144
REMARK  Name = 
REMARK  1 active torsions:
REMARK  status: ('A' for Active; 'I' for Inactive)
REMARK    1  A    between atoms: N_5  and  C_6
REMARK                            x       y       z     vdW  Elec       q    Type
REMARK                         _______ _______ _______ _____ _____    ______ ____
ROOT
ATOM      1  C   UNL     1      28.205  28.688  23.520  0.00  0.00    +0.000 C 
ATOM      2  N   UNL     1      28.357  27.335  23.053  0.00  0.00    +0.000 N 
ATOM      3  C   UNL     1      29.060  26.342  23.807  0.00  0.00    +0.000 C 
ATOM      4  O   UNL     1      29.891  26.715  24.673  0.00  0.00    +0.000 OA
ATOM      5  N   UNL     1      28.816  24.952  23.573  0.00  0.00    +0.000 N 
ATOM      6  C   UNL     1      28.294  24.559  22.267  0.00  0.00    +0.000 C 
ATOM      7  C   UNL     1      29.407  24.570  21.226  0.00  0.00    +0.000 C 
ATOM      8  O   UNL     1      27.697  23.304  22.346  0.00  0.00    +0.000 OA
ATOM      9  C   UNL     1      27.202  25.547  21.874  0.00  0.00    +0.000 C 
ATOM     10  C   UNL     1      27.798  26.912  21.782  0.00  0.00    +0.000 C 
ATOM     11  C   UNL     1      28.948  26.882  20.785  0.00  0.00    +0.000 C 
ATOM     12  C   UNL     1      26.794  27.925  21.278  0.00  0.00    +0.000 C 
ENDROOT
BRANCH   5  13
ATOM     13  C   UNL     1      29.087  24.031  24.605  0.00  0.00    +0.000 A 
ATOM     14  C   UNL     1      30.260  23.271  24.612  0.00  0.00    +0.000 A 
ATOM     15  C   UNL     1      30.550  22.376  25.592  0.00  0.00    +0.000 A 
ATOM     16  C   UNL     1      29.655  22.214  26.612  0.00  0.00    +0.000 A 
ATOM     17  C   UNL     1      28.464  22.952  26.650  0.00  0.00    +0.000 A 
ATOM     18  C   UNL     1      27.571  22.789  27.669  0.00  0.00    +0.000 A 
ATOM     19  C   UNL     1      26.404  23.513  27.705  0.00  0.00    +0.000 A 
ATOM     20  C   UNL     1      26.143  24.409  26.699  0.00  0.00    +0.000 A 
ATOM     21  C   UNL     1      27.030  24.588  25.665  0.00  0.00    +0.000 A 
ATOM     22  C   UNL     1      28.211  23.850  25.634  0.00  0.00    +0.000 A 
ENDBRANCH   5  13
TORSDOF 1
ENDMDL
MODEL 7
REMARK VINA RESULT:      -6.2     33.878     35.712
REMARK  Name = 
REMARK  1 active torsions:
REMARK  status: ('A' for Active; 'I' for Inactive)
REMARK    1  A    between atoms: N_5  and  C_6
REMARK                            x       y       z     vdW  Elec       q    Type
REMARK                         _______ _______ _______ _____ _____    ______ ____
ROOT
ATOM      1  C   UNL     1      29.087  26.914  23.151  0.00  0.00    +0.000 C 
ATOM      2  N   UNL     1      28.693  25.715  23.843  0.00  0.00    +0.000 N 
ATOM      3  C   UNL     1      28.203  25.736  25.188  0.00  0.00    +0.000 C 
ATOM      4  O   UNL     1      28.484  26.718  25.919  0.00  0.00    +0.000 OA
ATOM      5  N   UNL     1      27.409  24.654  25.683  0.00  0.00    +0.000 N 
ATOM      6  C   UNL     1      27.550  23.351  25.040  0.00  0.00    +0.000 C 
ATOM      7  C   UNL     1      28.829  22.665  25.506  0.00  0.00    +0.000 C 
ATOM      8  O   UNL     1      26.435  22.560  25.305  0.00  0.00    +0.000 OA
ATOM      9  C   UNL     1      27.593  23.566  23.531  0.00  0.00    +0.000 C 
ATOM     10  C   UNL     1      28.775  24.416  23.200  0.00  0.00    +0.000 C 
ATOM     11  C   UNL     1      30.032  23.742  23.732  0.00  0.00    +0.000 C 
ATOM     12  C   UNL     1      28.948  24.571  21.706  0.00  0.00    +0.000 C 
ENDROOT
BRANCH   5  13
ATOM     13  C   UNL     1      26.532  24.892  26.760  0.00  0.00    +0.000 A 
ATOM     14  C   UNL     1      26.887  24.569  28.072  0.00  0.00    +0.000 A 
ATOM     15  C   UNL     1      26.065  24.786  29.132  0.00  0.00    +0.000 A 
ATOM     16  C   UNL     1      24.838  25.345  28.901  0.00  0.00    +0.000 A 
ATOM     17  C   UNL     1      24.435  25.686  27.602  0.00  0.00    +0.000 A 
ATOM     18  C   UNL     1      23.211  26.243  27.373  0.00  0.00    +0.000 A 
ATOM     19  C   UNL     1      22.817  26.577  26.100  0.00  0.00    +0.000 A 
ATOM     20  C   UNL     1      23.673  26.345  25.054  0.00  0.00    +0.000 A 
ATOM     21  C   UNL     1      24.910  25.785  25.264  0.00  0.00    +0.000 A 
ATOM     22  C   UNL     1      25.303  25.448  26.557  0.00  0.00    +0.000 A 
ENDBRANCH   5  13
TORSDOF 1
ENDMDL
MODEL 8
REMARK VINA RESULT:      -6.2     20.617     23.295
REMARK  Name = 
REMARK  1 active torsions:
REMARK  status: ('A' for Active; 'I' for Inactive)
REMARK    1  A    between atoms: N_5  and  C_6
REMARK                            x       y       z     vdW  Elec       q    Type
REMARK                         _______ _______ _______ _____ _____    ______ ____
ROOT
ATOM      1  C   UNL     1      21.320  12.525  40.902  0.00  0.00    +0.000 C 
ATOM      2  N   UNL     1      20.548  11.723  39.990  0.00  0.00    +0.000 N 
ATOM      3  C   UNL     1      19.855  10.543  40.410  0.00  0.00    +0.000 C 
ATOM      4  O   UNL     1      20.227   9.964  41.462  0.00  0.00    +0.000 OA
ATOM      5  N   UNL     1      18.760  10.037  39.641  0.00  0.00    +0.000 N 
ATOM      6  C   UNL     1      18.703  10.381  38.223  0.00  0.00    +0.000 C 
ATOM      7  C   UNL     1      19.690   9.531  37.432  0.00  0.00    +0.000 C 
ATOM      8  O   UNL     1      17.407  10.219  37.741  0.00  0.00    +0.000 OA
ATOM      9  C   UNL     1      19.051  11.858  38.076  0.00  0.00    +0.000 C 
ATOM     10  C   UNL     1      20.436  12.079  38.588  0.00  0.00    +0.000 C 
ATOM     11  C   UNL     1      21.393  11.173  37.826  0.00  0.00    +0.000 C 
ATOM     12  C   UNL     1      20.891  13.504  38.362  0.00  0.00    +0.000 C 
ENDROOT
BRANCH   5  13
ATOM     13  C   UNL     1      17.792   9.238  40.281  0.00  0.00    +0.000 A 
ATOM     14  C   UNL     1      16.582   9.777  40.725  0.00  0.00    +0.000 A 
ATOM     15  C   UNL     1      15.629   9.034  41.346  0.00  0.00    +0.000 A 
ATOM     16  C   UNL     1      15.867   7.702  41.542  0.00  0.00    +0.000 A 
ATOM     17  C   UNL     1      17.065   7.113  41.115  0.00  0.00    +0.000 A 
ATOM     18  C   UNL     1      17.301   5.785  41.312  0.00  0.00    +0.000 A 
ATOM     19  C   UNL     1      18.476   5.209  40.893  0.00  0.00    +0.000 A 
ATOM     20  C   UNL     1      19.416   5.989  40.269  0.00  0.00    +0.000 A 
ATOM     21  C   UNL     1      19.197   7.329  40.062  0.00  0.00    +0.000 A 
ATOM     22  C   UNL     1      18.004   7.907  40.490  0.00  0.00    +0.000 A 
ENDBRANCH   5  13
TORSDOF 1
ENDMDL
MODEL 9
REMARK VINA RESULT:      -6.1     33.586     35.622
REMARK  Name = 
REMARK  1 active torsions:
REMARK  status: ('A' for Active; 'I' for Inactive)
REMARK    1  A    between atoms: N_5  and  C_6
REMARK                            x       y       z     vdW  Elec       q    Type
REMARK                         _______ _______ _______ _____ _____    ______ ____
ROOT
ATOM      1  C   UNL     1      31.262  26.771  27.487  0.00  0.00    +0.000 C 
ATOM      2  N   UNL     1      30.989  25.424  27.063  0.00  0.00    +0.000 N 
ATOM      3  C   UNL     1      29.681  25.000  26.660  0.00  0.00    +0.000 C 
ATOM      4  O   UNL     1      28.685  25.661  27.048  0.00  0.00    +0.000 OA
ATOM      5  N   UNL     1      29.520  23.845  25.832  0.00  0.00    +0.000 N 
ATOM      6  C   UNL     1      30.576  22.837  25.849  0.00  0.00    +0.000 C 
ATOM      7  C   UNL     1      30.475  21.985  27.109  0.00  0.00    +0.000 C 
ATOM      8  O   UNL     1      30.505  22.047  24.705  0.00  0.00    +0.000 OA
ATOM      9  C   UNL     1      31.920  23.555  25.811  0.00  0.00    +0.000 C 
ATOM     10  C   UNL     1      32.038  24.422  27.021  0.00  0.00    +0.000 C 
ATOM     11  C   UNL     1      31.869  23.558  28.264  0.00  0.00    +0.000 C 
ATOM     12  C   UNL     1      33.400  25.073  27.109  0.00  0.00    +0.000 C 
ENDROOT
BRANCH   5  13
ATOM     13  C   UNL     1      28.359  23.733  25.042  0.00  0.00    +0.000 A 
ATOM     14  C   UNL     1      27.233  23.041  25.496  0.00  0.00    +0.000 A 
ATOM     15  C   UNL     1      26.099  22.915  24.759  0.00  0.00    +0.000 A 
ATOM     16  C   UNL     1      26.061  23.491  23.519  0.00  0.00    +0.000 A 
ATOM     17  C   UNL     1      27.164  24.195  23.017  0.00  0.00    +0.000 A 
ATOM     18  C   UNL     1      27.125  24.769  21.780  0.00  0.00    +0.000 A 
ATOM     19  C   UNL     1      28.207  25.459  21.290  0.00  0.00    +0.000 A 
ATOM     20  C   UNL     1      29.335  25.567  22.062  0.00  0.00    +0.000 A 
ATOM     21  C   UNL     1      29.395  24.996  23.310  0.00  0.00    +0.000 A 
ATOM     22  C   UNL     1      28.294  24.297  23.801  0.00  0.00    +0.000 A 
ENDBRANCH   5  13
TORSDOF 1
ENDMDL
MODEL 10
REMARK VINA RESULT:      -6.1     33.698     36.149
REMARK  Name = 
REMARK  1 active torsions:
REMARK  status: ('A' for Active; 'I' for Inactive)
REMARK    1  A    between atoms: N_5  and  C_6
REMARK                            x       y       z     vdW  Elec       q    Type
REMARK                         _______ _______ _______ _____ _____    ______ ____
ROOT
ATOM      1  C   UNL     1      32.344  27.777  25.640  0.00  0.00    +0.000 C 
ATOM      2  N   UNL     1      31.977  26.390  25.532  0.00  0.00    +0.000 N 
ATOM      3  C   UNL     1      30.678  25.976  25.095  0.00  0.00    +0.000 C 
ATOM      4  O   UNL     1      29.722  26.786  25.188  0.00  0.00    +0.000 OA
ATOM      5  N   UNL     1      30.479  24.663  24.565  0.00  0.00    +0.000 N 
ATOM      6  C   UNL     1      31.421  23.617  24.954  0.00  0.00    +0.000 C 
ATOM      7  C   UNL     1      31.114  23.127  26.364  0.00  0.00    +0.000 C 
ATOM      8  O   UNL     1      31.380  22.568  24.040  0.00  0.00    +0.000 OA
ATOM      9  C   UNL     1      32.829  24.199  24.900  0.00  0.00    +0.000 C 
ATOM     10  C   UNL     1      32.918  25.336  25.864  0.00  0.00    +0.000 C 
ATOM     11  C   UNL     1      32.544  24.835  27.252  0.00  0.00    +0.000 C 
ATOM     12  C   UNL     1      34.324  25.885  25.948  0.00  0.00    +0.000 C 
ENDROOT
BRANCH   5  13
ATOM     13  C   UNL     1      29.394  24.438  23.694  0.00  0.00    +0.000 A 
ATOM     14  C   UNL     1      29.482  24.730  22.331  0.00  0.00    +0.000 A 
ATOM     15  C   UNL     1      28.455  24.526  21.466  0.00  0.00    +0.000 A 
ATOM     16  C   UNL     1      27.285  24.013  21.954  0.00  0.00    +0.000 A 
ATOM     17  C   UNL     1      27.146  23.704  23.314  0.00  0.00    +0.000 A 
ATOM     18  C   UNL     1      25.978  23.192  23.800  0.00  0.00    +0.000 A 
ATOM     19  C   UNL     1      25.843  22.889  25.133  0.00  0.00    +0.000 A 
ATOM     20  C   UNL     1      26.902  23.108  25.978  0.00  0.00    +0.000 A 
ATOM     21  C   UNL     1      28.086  23.623  25.508  0.00  0.00    +0.000 A 
ATOM     22  C   UNL     1      28.216  23.928  24.155  0.00  0.00    +0.000 A 
ENDBRANCH   5  13
TORSDOF 1
ENDMDL
