MODEL 1
REMARK VINA RESULT:      -7.9      0.000      0.000
REMARK  Name = 
REMARK  0 active torsions:
REMARK  status: ('A' for Active; 'I' for Inactive)
REMARK                            x       y       z     vdW  Elec       q    Type
REMARK                         _______ _______ _______ _____ _____    ______ ____
ROOT
ATOM      1  C   UNL     1      27.993  25.020  29.048  0.00  0.00    +0.000 C 
ATOM      2  C   UNL     1      27.441  23.732  29.343  0.00  0.00    +0.000 C 
ATOM      3  C   UNL     1      28.179  22.506  29.237  0.00  0.00    +0.000 C 
ATOM      4  C   UNL     1      28.787  22.565  27.843  0.00  0.00    +0.000 C 
ATOM      5  C   UNL     1      27.585  22.364  26.785  0.00  0.00    +0.000 C 
ATOM      6  C   UNL     1      28.384  22.848  25.503  0.00  0.00    +0.000 A 
ATOM      7  C   UNL     1      29.694  22.751  25.370  0.00  0.00    +0.000 A 
ATOM      8  C   UNL     1      30.292  23.200  24.214  0.00  0.00    +0.000 A 
ATOM      9  C   UNL     1      29.509  23.743  23.214  0.00  0.00    +0.000 A 
ATOM     10  N   UNL     1      29.844  24.255  21.989  0.00  0.00    +0.000 NA
ATOM     11  C   UNL     1      28.736  24.674  21.355  0.00  0.00    +0.000 A 
ATOM     12  C   UNL     1      27.676  24.420  22.199  0.00  0.00    +0.000 A 
ATOM     13  C   UNL     1      28.141  23.838  23.371  0.00  0.00    +0.000 A 
ATOM     14  C   UNL     1      27.570  23.385  24.527  0.00  0.00    +0.000 A 
ATOM     15  C   UNL     1      26.115  23.488  24.679  0.00  0.00    +0.000 C 
ATOM     16  C   UNL     1      25.641  23.589  26.088  0.00  0.00    +0.000 C 
ATOM     17  C   UNL     1      26.926  23.893  27.017  0.00  0.00    +0.000 C 
ATOM     18  C   UNL     1      26.123  23.462  28.421  0.00  0.00    +0.000 C 
ATOM     19  C   UNL     1      25.608  24.952  28.727  0.00  0.00    +0.000 C 
ATOM     20  C   UNL     1      25.708  25.102  30.173  0.00  0.00    +0.000 C 
ATOM     21  C   UNL     1      26.523  23.776  30.680  0.00  0.00    +0.000 C 
ATOM     22  O   UNL     1      27.530  24.594  31.465  0.00  0.00    +0.000 OA
ENDROOT
TORSDOF 0
ENDMDL
MODEL 2
REMARK VINA RESULT:      -7.9      3.095      6.409
REMARK  Name = 
REMARK  0 active torsions:
REMARK  status: ('A' for Active; 'I' for Inactive)
REMARK                            x       y       z     vdW  Elec       q    Type
REMARK                         _______ _______ _______ _____ _____    ______ ____
ROOT
ATOM      1  C   UNL     1      27.878  25.417  24.002  0.00  0.00    +0.000 C 
ATOM      2  C   UNL     1      27.523  24.143  23.451  0.00  0.00    +0.000 C 
ATOM      3  C   UNL     1      26.324  23.433  23.796  0.00  0.00    +0.000 C 
ATOM      4  C   UNL     1      26.332  23.419  25.318  0.00  0.00    +0.000 C 
ATOM      5  C   UNL     1      27.504  22.412  25.784  0.00  0.00    +0.000 C 
ATOM      6  C   UNL     1      27.555  22.877  27.300  0.00  0.00    +0.000 A 
ATOM      7  C   UNL     1      26.524  23.383  27.951  0.00  0.00    +0.000 A 
ATOM      8  C   UNL     1      26.671  23.754  29.269  0.00  0.00    +0.000 A 
ATOM      9  C   UNL     1      27.897  23.588  29.885  0.00  0.00    +0.000 A 
ATOM     10  N   UNL     1      28.305  23.870  31.162  0.00  0.00    +0.000 NA
ATOM     11  C   UNL     1      29.599  23.537  31.307  0.00  0.00    +0.000 A 
ATOM     12  C   UNL     1      30.017  23.033  30.094  0.00  0.00    +0.000 A 
ATOM     13  C   UNL     1      28.964  23.058  29.189  0.00  0.00    +0.000 A 
ATOM     14  C   UNL     1      28.792  22.697  27.882  0.00  0.00    +0.000 A 
ATOM     15  C   UNL     1      29.934  22.132  27.155  0.00  0.00    +0.000 C 
ATOM     16  C   UNL     1      29.902  22.347  25.681  0.00  0.00    +0.000 C 
ATOM     17  C   UNL     1      28.762  23.448  25.370  0.00  0.00    +0.000 C 
ATOM     18  C   UNL     1      28.704  23.058  23.744  0.00  0.00    +0.000 C 
ATOM     19  C   UNL     1      29.805  24.146  23.319  0.00  0.00    +0.000 C 
ATOM     20  C   UNL     1      29.340  24.685  22.048  0.00  0.00    +0.000 C 
ATOM     21  C   UNL     1      27.830  24.082  21.860  0.00  0.00    +0.000 C 
ATOM     22  O   UNL     1      27.229  25.448  21.590  0.00  0.00    +0.000 OA
ENDROOT
TORSDOF 0
ENDMDL
MODEL 3
REMARK VINA RESULT:      -7.4      1.909      2.601
REMARK  Name = 
REMARK  0 active torsions:
REMARK  status: ('A' for Active; 'I' for Inactive)
REMARK                            x       y       z     vdW  Elec       q    Type
REMARK                         _______ _______ _______ _____ _____    ______ ____
ROOT
ATOM      1  C   UNL     1      30.494  24.901  29.607  0.00  0.00    +0.000 C 
ATOM      2  C   UNL     1      30.599  23.538  30.037  0.00  0.00    +0.000 C 
ATOM      3  C   UNL     1      31.625  22.640  29.592  0.00  0.00    +0.000 C 
ATOM      4  C   UNL     1      31.585  22.762  28.076  0.00  0.00    +0.000 C 
ATOM      5  C   UNL     1      30.227  22.050  27.571  0.00  0.00    +0.000 C 
ATOM      6  C   UNL     1      30.240  22.647  26.101  0.00  0.00    +0.000 A 
ATOM      7  C   UNL     1      31.339  22.995  25.457  0.00  0.00    +0.000 A 
ATOM      8  C   UNL     1      31.243  23.503  24.180  0.00  0.00    +0.000 A 
ATOM      9  C   UNL     1      29.997  23.636  23.597  0.00  0.00    +0.000 A 
ATOM     10  N   UNL     1      29.628  24.103  22.364  0.00  0.00    +0.000 NA
ATOM     11  C   UNL     1      28.292  24.046  22.240  0.00  0.00    +0.000 A 
ATOM     12  C   UNL     1      27.805  23.529  23.422  0.00  0.00    +0.000 A 
ATOM     13  C   UNL     1      28.860  23.267  24.287  0.00  0.00    +0.000 A 
ATOM     14  C   UNL     1      28.981  22.766  25.552  0.00  0.00    +0.000 A 
ATOM     15  C   UNL     1      27.764  22.375  26.271  0.00  0.00    +0.000 C 
ATOM     16  C   UNL     1      27.867  22.450  27.756  0.00  0.00    +0.000 C 
ATOM     17  C   UNL     1      29.209  23.273  28.114  0.00  0.00    +0.000 C 
ATOM     18  C   UNL     1      29.220  22.737  29.700  0.00  0.00    +0.000 C 
ATOM     19  C   UNL     1      28.366  23.980  30.252  0.00  0.00    +0.000 C 
ATOM     20  C   UNL     1      28.954  24.303  31.546  0.00  0.00    +0.000 C 
ATOM     21  C   UNL     1      30.317  23.400  31.628  0.00  0.00    +0.000 C 
ATOM     22  O   UNL     1      31.183  24.591  31.987  0.00  0.00    +0.000 OA
ENDROOT
TORSDOF 0
ENDMDL
MODEL 4
REMARK VINA RESULT:      -6.9     22.050     23.272
REMARK  Name = 
REMARK  0 active torsions:
REMARK  status: ('A' for Active; 'I' for Inactive)
REMARK                            x       y       z     vdW  Elec       q    Type
REMARK                         _______ _______ _______ _____ _____    ______ ____
ROOT
ATOM      1  C   UNL     1      26.049   4.908  15.157  0.00  0.00    +0.000 C 
ATOM      2  C   UNL     1      26.864   4.547  16.280  0.00  0.00    +0.000 C 
ATOM      3  C   UNL     1      27.303   3.208  16.546  0.00  0.00    +0.000 C 
ATOM      4  C   UNL     1      26.027   2.383  16.474  0.00  0.00    +0.000 C 
ATOM      5  C   UNL     1      25.144   2.747  17.776  0.00  0.00    +0.000 C 
ATOM      6  C   UNL     1      23.787   2.102  17.266  0.00  0.00    +0.000 A 
ATOM      7  C   UNL     1      23.724   1.091  16.419  0.00  0.00    +0.000 A 
ATOM      8  C   UNL     1      22.494   0.602  16.039  0.00  0.00    +0.000 A 
ATOM      9  C   UNL     1      21.349   1.178  16.554  0.00  0.00    +0.000 A 
ATOM     10  N   UNL     1      20.026   0.889  16.346  0.00  0.00    +0.000 NA
ATOM     11  C   UNL     1      19.261   1.725  17.067  0.00  0.00    +0.000 A 
ATOM     12  C   UNL     1      20.120   2.562  17.748  0.00  0.00    +0.000 A 
ATOM     13  C   UNL     1      21.434   2.235  17.438  0.00  0.00    +0.000 A 
ATOM     14  C   UNL     1      22.666   2.703  17.799  0.00  0.00    +0.000 A 
ATOM     15  C   UNL     1      22.742   3.824  18.741  0.00  0.00    +0.000 C 
ATOM     16  C   UNL     1      23.965   4.665  18.612  0.00  0.00    +0.000 C 
ATOM     17  C   UNL     1      24.688   4.269  17.224  0.00  0.00    +0.000 C 
ATOM     18  C   UNL     1      26.132   4.990  17.667  0.00  0.00    +0.000 C 
ATOM     19  C   UNL     1      25.762   6.410  17.016  0.00  0.00    +0.000 C 
ATOM     20  C   UNL     1      27.004   6.898  16.431  0.00  0.00    +0.000 C 
ATOM     21  C   UNL     1      28.041   5.635  16.527  0.00  0.00    +0.000 C 
ATOM     22  O   UNL     1      28.410   5.719  15.059  0.00  0.00    +0.000 OA
ENDROOT
TORSDOF 0
ENDMDL
MODEL 5
REMARK VINA RESULT:      -6.8      3.283      5.068
REMARK  Name = 
REMARK  0 active torsions:
REMARK  status: ('A' for Active; 'I' for Inactive)
REMARK                            x       y       z     vdW  Elec       q    Type
REMARK                         _______ _______ _______ _____ _____    ______ ____
ROOT
ATOM      1  C   UNL     1      32.172  26.161  26.521  0.00  0.00    +0.000 C 
ATOM      2  C   UNL     1      33.025  25.011  26.478  0.00  0.00    +0.000 C 
ATOM      3  C   UNL     1      33.448  24.379  25.261  0.00  0.00    +0.000 C 
ATOM      4  C   UNL     1      32.154  24.164  24.490  0.00  0.00    +0.000 C 
ATOM      5  C   UNL     1      31.332  22.997  25.245  0.00  0.00    +0.000 C 
ATOM      6  C   UNL     1      29.944  23.250  24.522  0.00  0.00    +0.000 A 
ATOM      7  C   UNL     1      29.826  23.762  23.311  0.00  0.00    +0.000 A 
ATOM      8  C   UNL     1      28.572  23.940  22.770  0.00  0.00    +0.000 A 
ATOM      9  C   UNL     1      27.460  23.578  23.507  0.00  0.00    +0.000 A 
ATOM     10  N   UNL     1      26.125  23.648  23.211  0.00  0.00    +0.000 NA
ATOM     11  C   UNL     1      25.407  23.177  24.244  0.00  0.00    +0.000 A 
ATOM     12  C   UNL     1      26.310  22.800  25.216  0.00  0.00    +0.000 A 
ATOM     13  C   UNL     1      27.603  23.045  24.772  0.00  0.00    +0.000 A 
ATOM     14  C   UNL     1      28.858  22.878  25.287  0.00  0.00    +0.000 A 
ATOM     15  C   UNL     1      28.995  22.307  26.631  0.00  0.00    +0.000 C 
ATOM     16  C   UNL     1      30.228  22.717  27.359  0.00  0.00    +0.000 C 
ATOM     17  C   UNL     1      30.885  23.953  26.553  0.00  0.00    +0.000 C 
ATOM     18  C   UNL     1      32.360  23.789  27.328  0.00  0.00    +0.000 C 
ATOM     19  C   UNL     1      31.991  24.814  28.508  0.00  0.00    +0.000 C 
ATOM     20  C   UNL     1      33.218  25.558  28.765  0.00  0.00    +0.000 C 
ATOM     21  C   UNL     1      34.233  25.131  27.553  0.00  0.00    +0.000 C 
ATOM     22  O   UNL     1      34.542  26.572  27.194  0.00  0.00    +0.000 OA
ENDROOT
TORSDOF 0
ENDMDL
MODEL 6
REMARK VINA RESULT:      -6.8     21.621     22.746
REMARK  Name = 
REMARK  0 active torsions:
REMARK  status: ('A' for Active; 'I' for Inactive)
REMARK                            x       y       z     vdW  Elec       q    Type
REMARK                         _______ _______ _______ _____ _____    ______ ____
ROOT
ATOM      1  C   UNL     1      22.662   2.730  16.048  0.00  0.00    +0.000 C 
ATOM      2  C   UNL     1      22.923   2.215  17.359  0.00  0.00    +0.000 C 
ATOM      3  C   UNL     1      22.948   3.026  18.542  0.00  0.00    +0.000 C 
ATOM      4  C   UNL     1      23.880   4.173  18.181  0.00  0.00    +0.000 C 
ATOM      5  C   UNL     1      25.378   3.572  18.113  0.00  0.00    +0.000 C 
ATOM      6  C   UNL     1      26.037   4.806  17.365  0.00  0.00    +0.000 A 
ATOM      7  C   UNL     1      25.594   6.046  17.455  0.00  0.00    +0.000 A 
ATOM      8  C   UNL     1      26.240   7.048  16.766  0.00  0.00    +0.000 A 
ATOM      9  C   UNL     1      27.343   6.736  15.995  0.00  0.00    +0.000 A 
ATOM     10  N   UNL     1      28.154   7.527  15.225  0.00  0.00    +0.000 NA
ATOM     11  C   UNL     1      29.108   6.775  14.652  0.00  0.00    +0.000 A 
ATOM     12  C   UNL     1      28.896   5.478  15.070  0.00  0.00    +0.000 A 
ATOM     13  C   UNL     1      27.793   5.433  15.913  0.00  0.00    +0.000 A 
ATOM     14  C   UNL     1      27.134   4.456  16.605  0.00  0.00    +0.000 A 
ATOM     15  C   UNL     1      27.625   3.078  16.511  0.00  0.00    +0.000 C 
ATOM     16  C   UNL     1      26.586   2.031  16.724  0.00  0.00    +0.000 C 
ATOM     17  C   UNL     1      25.143   2.753  16.664  0.00  0.00    +0.000 C 
ATOM     18  C   UNL     1      24.366   1.458  17.387  0.00  0.00    +0.000 C 
ATOM     19  C   UNL     1      24.013   0.738  15.996  0.00  0.00    +0.000 C 
ATOM     20  C   UNL     1      22.677   0.186  16.180  0.00  0.00    +0.000 C 
ATOM     21  C   UNL     1      22.155   0.807  17.602  0.00  0.00    +0.000 C 
ATOM     22  O   UNL     1      20.852   1.300  17.003  0.00  0.00    +0.000 OA
ENDROOT
TORSDOF 0
ENDMDL
MODEL 7
REMARK VINA RESULT:      -6.8     31.810     33.233
REMARK  Name = 
REMARK  0 active torsions:
REMARK  status: ('A' for Active; 'I' for Inactive)
REMARK                            x       y       z     vdW  Elec       q    Type
REMARK                         _______ _______ _______ _____ _____    ______ ____
ROOT
ATOM      1  C   UNL     1      21.850 -10.142  21.870  0.00  0.00    +0.000 C 
ATOM      2  C   UNL     1      23.193 -10.091  22.367  0.00  0.00    +0.000 C 
ATOM      3  C   UNL     1      23.606 -10.687  23.606  0.00  0.00    +0.000 C 
ATOM      4  C   UNL     1      22.598 -10.163  24.618  0.00  0.00    +0.000 C 
ATOM      5  C   UNL     1      22.910  -8.595  24.841  0.00  0.00    +0.000 C 
ATOM      6  C   UNL     1      21.550  -8.238  25.573  0.00  0.00    +0.000 A 
ATOM      7  C   UNL     1      20.845  -9.100  26.283  0.00  0.00    +0.000 A 
ATOM      8  C   UNL     1      19.675  -8.689  26.882  0.00  0.00    +0.000 A 
ATOM      9  C   UNL     1      19.263  -7.379  26.730  0.00  0.00    +0.000 A 
ATOM     10  N   UNL     1      18.161  -6.723  27.212  0.00  0.00    +0.000 NA
ATOM     11  C   UNL     1      18.179  -5.444  26.800  0.00  0.00    +0.000 A 
ATOM     12  C   UNL     1      19.320  -5.288  26.042  0.00  0.00    +0.000 A 
ATOM     13  C   UNL     1      20.012  -6.491  25.985  0.00  0.00    +0.000 A 
ATOM     14  C   UNL     1      21.169  -6.923  25.400  0.00  0.00    +0.000 A 
ATOM     15  C   UNL     1      21.956  -5.968  24.614  0.00  0.00    +0.000 C 
ATOM     16  C   UNL     1      22.786  -6.581  23.539  0.00  0.00    +0.000 C 
ATOM     17  C   UNL     1      22.297  -8.109  23.353  0.00  0.00    +0.000 C 
ATOM     18  C   UNL     1      23.678  -8.542  22.511  0.00  0.00    +0.000 C 
ATOM     19  C   UNL     1      23.049  -8.214  21.071  0.00  0.00    +0.000 C 
ATOM     20  C   UNL     1      23.549  -9.260  20.188  0.00  0.00    +0.000 C 
ATOM     21  C   UNL     1      24.271 -10.342  21.182  0.00  0.00    +0.000 C 
ATOM     22  O   UNL     1      23.505 -11.513  20.597  0.00  0.00    +0.000 OA
ENDROOT
TORSDOF 0
ENDMDL
MODEL 8
REMARK VINA RESULT:      -6.8     21.709     23.484
REMARK  Name = 
REMARK  0 active torsions:
REMARK  status: ('A' for Active; 'I' for Inactive)
REMARK                            x       y       z     vdW  Elec       q    Type
REMARK                         _______ _______ _______ _____ _____    ______ ____
ROOT
ATOM      1  C   UNL     1      37.149   5.020  37.620  0.00  0.00    +0.000 C 
ATOM      2  C   UNL     1      36.001   5.744  38.080  0.00  0.00    +0.000 C 
ATOM      3  C   UNL     1      34.975   5.170  38.902  0.00  0.00    +0.000 C 
ATOM      4  C   UNL     1      34.593   3.892  38.171  0.00  0.00    +0.000 C 
ATOM      5  C   UNL     1      33.797   4.321  36.834  0.00  0.00    +0.000 C 
ATOM      6  C   UNL     1      33.877   2.912  36.110  0.00  0.00    +0.000 A 
ATOM      7  C   UNL     1      33.960   1.759  36.749  0.00  0.00    +0.000 A 
ATOM      8  C   UNL     1      34.023   0.588  36.026  0.00  0.00    +0.000 A 
ATOM      9  C   UNL     1      33.995   0.643  34.646  0.00  0.00    +0.000 A 
ATOM     10  N   UNL     1      34.042  -0.353  33.706  0.00  0.00    +0.000 NA
ATOM     11  C   UNL     1      33.988   0.183  32.476  0.00  0.00    +0.000 A 
ATOM     12  C   UNL     1      33.904   1.549  32.641  0.00  0.00    +0.000 A 
ATOM     13  C   UNL     1      33.908   1.857  33.996  0.00  0.00    +0.000 A 
ATOM     14  C   UNL     1      33.848   3.005  34.735  0.00  0.00    +0.000 A 
ATOM     15  C   UNL     1      33.752   4.288  34.031  0.00  0.00    +0.000 C 
ATOM     16  C   UNL     1      34.308   5.452  34.778  0.00  0.00    +0.000 C 
ATOM     17  C   UNL     1      35.161   4.874  36.021  0.00  0.00    +0.000 C 
ATOM     18  C   UNL     1      35.177   6.350  36.811  0.00  0.00    +0.000 C 
ATOM     19  C   UNL     1      36.557   6.828  36.145  0.00  0.00    +0.000 C 
ATOM     20  C   UNL     1      37.269   7.532  37.204  0.00  0.00    +0.000 C 
ATOM     21  C   UNL     1      36.402   7.240  38.561  0.00  0.00    +0.000 C 
ATOM     22  O   UNL     1      37.618   6.773  39.337  0.00  0.00    +0.000 OA
ENDROOT
TORSDOF 0
ENDMDL
MODEL 9
REMARK VINA RESULT:      -6.5     17.356     18.856
REMARK  Name = 
REMARK  0 active torsions:
REMARK  status: ('A' for Active; 'I' for Inactive)
REMARK                            x       y       z     vdW  Elec       q    Type
REMARK                         _______ _______ _______ _____ _____    ______ ____
ROOT
ATOM      1  C   UNL     1      25.474  10.251  40.222  0.00  0.00    +0.000 C 
ATOM      2  C   UNL     1      26.146  10.824  39.093  0.00  0.00    +0.000 C 
ATOM      3  C   UNL     1      25.989  12.190  38.683  0.00  0.00    +0.000 C 
ATOM      4  C   UNL     1      24.481  12.380  38.611  0.00  0.00    +0.000 C 
ATOM      5  C   UNL     1      23.952  11.548  37.332  0.00  0.00    +0.000 C 
ATOM      6  C   UNL     1      22.413  11.582  37.714  0.00  0.00    +0.000 A 
ATOM      7  C   UNL     1      21.851  12.539  38.430  0.00  0.00    +0.000 A 
ATOM      8  C   UNL     1      20.504  12.477  38.705  0.00  0.00    +0.000 A 
ATOM      9  C   UNL     1      19.763  11.415  38.223  0.00  0.00    +0.000 A 
ATOM     10  N   UNL     1      18.432  11.117  38.349  0.00  0.00    +0.000 NA
ATOM     11  C   UNL     1      18.163   9.968  37.708  0.00  0.00    +0.000 A 
ATOM     12  C   UNL     1      19.351   9.530  37.163  0.00  0.00    +0.000 A 
ATOM     13  C   UNL     1      20.367  10.423  37.477  0.00  0.00    +0.000 A 
ATOM     14  C   UNL     1      21.706  10.507  37.218  0.00  0.00    +0.000 A 
ATOM     15  C   UNL     1      22.334   9.448  36.420  0.00  0.00    +0.000 C 
ATOM     16  C   UNL     1      23.784   9.240  36.692  0.00  0.00    +0.000 C 
ATOM     17  C   UNL     1      24.148  10.039  38.047  0.00  0.00    +0.000 C 
ATOM     18  C   UNL     1      25.793   9.980  37.744  0.00  0.00    +0.000 C 
ATOM     19  C   UNL     1      26.015   8.608  38.548  0.00  0.00    +0.000 C 
ATOM     20  C   UNL     1      27.292   8.766  39.231  0.00  0.00    +0.000 C 
ATOM     21  C   UNL     1      27.692  10.340  39.019  0.00  0.00    +0.000 C 
ATOM     22  O   UNL     1      27.936  10.562  40.500  0.00  0.00    +0.000 OA
ENDROOT
TORSDOF 0
ENDMDL
MODEL 10
REMARK VINA RESULT:      -6.5     22.258     23.468
REMARK  Name = 
REMARK  0 active torsions:
REMARK  status: ('A' for Active; 'I' for Inactive)
REMARK                            x       y       z     vdW  Elec       q    Type
REMARK                         _______ _______ _______ _____ _____    ______ ____
ROOT
ATOM      1  C   UNL     1      25.246   0.544  15.357  0.00  0.00    +0.000 C 
ATOM      2  C   UNL     1      23.844   0.802  15.496  0.00  0.00    +0.000 C 
ATOM      3  C   UNL     1      23.139   1.796  14.740  0.00  0.00    +0.000 C 
ATOM      4  C   UNL     1      23.975   3.055  14.921  0.00  0.00    +0.000 C 
ATOM      5  C   UNL     1      23.782   3.546  16.447  0.00  0.00    +0.000 C 
ATOM      6  C   UNL     1      25.001   4.561  16.469  0.00  0.00    +0.000 A 
ATOM      7  C   UNL     1      25.464   5.183  15.400  0.00  0.00    +0.000 A 
ATOM      8  C   UNL     1      26.527   6.047  15.528  0.00  0.00    +0.000 A 
ATOM      9  C   UNL     1      27.090   6.249  16.773  0.00  0.00    +0.000 A 
ATOM     10  N   UNL     1      28.135   7.041  17.169  0.00  0.00    +0.000 NA
ATOM     11  C   UNL     1      28.325   6.911  18.493  0.00  0.00    +0.000 A 
ATOM     12  C   UNL     1      27.377   6.017  18.944  0.00  0.00    +0.000 A 
ATOM     13  C   UNL     1      26.593   5.590  17.880  0.00  0.00    +0.000 A 
ATOM     14  C   UNL     1      25.537   4.737  17.728  0.00  0.00    +0.000 A 
ATOM     15  C   UNL     1      25.018   4.046  18.913  0.00  0.00    +0.000 C 
ATOM     16  C   UNL     1      24.358   2.739  18.633  0.00  0.00    +0.000 C 
ATOM     17  C   UNL     1      24.720   2.322  17.115  0.00  0.00    +0.000 C 
ATOM     18  C   UNL     1      23.496   1.183  17.042  0.00  0.00    +0.000 C 
ATOM     19  C   UNL     1      24.425  -0.025  17.547  0.00  0.00    +0.000 C 
ATOM     20  C   UNL     1      24.007  -1.181  16.765  0.00  0.00    +0.000 C 
ATOM     21  C   UNL     1      23.000  -0.578  15.624  0.00  0.00    +0.000 C 
ATOM     22  O   UNL     1      23.746  -1.255  14.490  0.00  0.00    +0.000 OA
ENDROOT
TORSDOF 0
ENDMDL
