MODEL 1
REMARK VINA RESULT:      -9.0      0.000      0.000
REMARK  Name = 
REMARK  6 active torsions:
REMARK  status: ('A' for Active; 'I' for Inactive)
REMARK    1  A    between atoms: C_7  and  C_8
REMARK    2  A    between atoms: C_10  and  C_11
REMARK    3  A    between atoms: C_19  and  N_20
REMARK    4  A    between atoms: N_20  and  C_22
REMARK    5  A    between atoms: C_22  and  C_23
REMARK    6  A    between atoms: C_23  and  C_24
REMARK                            x       y       z     vdW  Elec       q    Type
REMARK                         _______ _______ _______ _____ _____    ______ ____
ROOT
ATOM      1  C   UNL     1      36.019   4.695  14.498  0.00  0.00    +0.000 A 
ATOM      2  C   UNL     1      35.644   3.376  14.715  0.00  0.00    +0.000 A 
ATOM      3  C   UNL     1      36.344   2.582  15.587  0.00  0.00    +0.000 A 
ATOM      4  N   UNL     1      37.397   3.122  16.218  0.00  0.00    +0.000 NA
ATOM      5  C   UNL     1      37.819   4.387  16.059  0.00  0.00    +0.000 A 
ATOM      6  C   UNL     1      37.114   5.199  15.177  0.00  0.00    +0.000 A 
ENDROOT
BRANCH   1  13
ATOM      7  C   UNL     1      36.890   4.947  11.758  0.00  0.00    +0.000 C 
ATOM      8  C   UNL     1      35.694   5.695  12.252  0.00  0.00    +0.000 A 
ATOM      9  C   UNL     1      34.976   6.524  11.410  0.00  0.00    +0.000 A 
ATOM     10  C   UNL     1      33.863   7.229  11.858  0.00  0.00    +0.000 A 
ATOM     11  C   UNL     1      33.495   7.078  13.158  0.00  0.00    +0.000 A 
ATOM     12  C   UNL     1      34.188   6.268  14.000  0.00  0.00    +0.000 A 
ATOM     13  C   UNL     1      35.295   5.560  13.576  0.00  0.00    +0.000 A 
ENDBRANCH   1  13
BRANCH   3  14
ATOM     14  C   UNL     1      35.982   1.190  15.847  0.00  0.00    +0.000 A 
ATOM     15  C   UNL     1      36.498   0.145  15.122  0.00  0.00    +0.000 A 
ATOM     16  C   UNL     1      36.124  -1.152  15.399  0.00  0.00    +0.000 A 
ATOM     17  C   UNL     1      35.221  -1.463  16.410  0.00  0.00    +0.000 A 
ATOM     18  O   UNL     1      34.860  -2.792  16.670  0.00  0.00    +0.000 OA
ATOM     19  C   UNL     1      34.704  -0.408  17.138  0.00  0.00    +0.000 A 
ATOM     20  C   UNL     1      35.086   0.883  16.850  0.00  0.00    +0.000 A 
ENDBRANCH   3  14
BRANCH   5  21
ATOM     21  N   UNL     1      38.962   4.916  16.767  0.00  0.00    +0.000 N 
ATOM     22  C   UNL     1      40.074   5.445  16.000  0.00  0.00    +0.000 C 
BRANCH  21  23
ATOM     23  C   UNL     1      38.906   4.880  18.205  0.00  0.00    +0.000 C 
BRANCH  23  24
ATOM     24  C   UNL     1      39.798   5.842  18.907  0.00  0.00    +0.000 C 
BRANCH  24  25
ATOM     25  C   UNL     1      39.036   7.022  19.369  0.00  0.00    +0.000 A 
ATOM     26  C   UNL     1      37.984   7.457  18.590  0.00  0.00    +0.000 A 
ATOM     27  C   UNL     1      37.253   8.546  18.987  0.00  0.00    +0.000 A 
ATOM     28  C   UNL     1      37.560   9.213  20.162  0.00  0.00    +0.000 A 
ATOM     29  C   UNL     1      38.591   8.808  20.949  0.00  0.00    +0.000 A 
ATOM     30  C   UNL     1      39.318   7.700  20.527  0.00  0.00    +0.000 A 
ENDBRANCH  24  25
ENDBRANCH  23  24
ENDBRANCH  21  23
ENDBRANCH   5  21
TORSDOF 6
ENDMDL
MODEL 2
REMARK VINA RESULT:      -8.6      4.847      8.470
REMARK  Name = 
REMARK  6 active torsions:
REMARK  status: ('A' for Active; 'I' for Inactive)
REMARK    1  A    between atoms: C_7  and  C_8
REMARK    2  A    between atoms: C_10  and  C_11
REMARK    3  A    between atoms: C_19  and  N_20
REMARK    4  A    between atoms: N_20  and  C_22
REMARK    5  A    between atoms: C_22  and  C_23
REMARK    6  A    between atoms: C_23  and  C_24
REMARK                            x       y       z     vdW  Elec       q    Type
REMARK                         _______ _______ _______ _____ _____    ______ ____
ROOT
ATOM      1  C   UNL     1      38.436  -1.485  15.102  0.00  0.00    +0.000 A 
ATOM      2  C   UNL     1      39.780  -1.575  14.767  0.00  0.00    +0.000 A 
ATOM      3  C   UNL     1      40.522  -0.445  14.533  0.00  0.00    +0.000 A 
ATOM      4  N   UNL     1      39.906   0.741  14.638  0.00  0.00    +0.000 NA
ATOM      5  C   UNL     1      38.612   0.907  14.958  0.00  0.00    +0.000 A 
ATOM      6  C   UNL     1      37.853  -0.233  15.196  0.00  0.00    +0.000 A 
ENDROOT
BRANCH   1  13
ATOM      7  C   UNL     1      38.616  -2.858  17.634  0.00  0.00    +0.000 C 
ATOM      8  C   UNL     1      37.691  -3.343  16.565  0.00  0.00    +0.000 A 
ATOM      9  C   UNL     1      36.899  -4.459  16.764  0.00  0.00    +0.000 A 
ATOM     10  C   UNL     1      36.036  -4.922  15.776  0.00  0.00    +0.000 A 
ATOM     11  C   UNL     1      35.989  -4.242  14.600  0.00  0.00    +0.000 A 
ATOM     12  C   UNL     1      36.760  -3.143  14.387  0.00  0.00    +0.000 A 
ATOM     13  C   UNL     1      37.623  -2.667  15.353  0.00  0.00    +0.000 A 
ENDBRANCH   1  13
BRANCH   3  14
ATOM     14  C   UNL     1      41.940  -0.494  14.180  0.00  0.00    +0.000 A 
ATOM     15  C   UNL     1      42.599   0.573  13.621  0.00  0.00    +0.000 A 
ATOM     16  C   UNL     1      43.936   0.480  13.301  0.00  0.00    +0.000 A 
ATOM     17  C   UNL     1      44.673  -0.679  13.522  0.00  0.00    +0.000 A 
ATOM     18  O   UNL     1      46.031  -0.743  13.186  0.00  0.00    +0.000 OA
ATOM     19  C   UNL     1      44.005  -1.750  14.086  0.00  0.00    +0.000 A 
ATOM     20  C   UNL     1      42.670  -1.644  14.401  0.00  0.00    +0.000 A 
ENDBRANCH   3  14
BRANCH   5  21
ATOM     21  N   UNL     1      38.001   2.213  15.057  0.00  0.00    +0.000 N 
ATOM     22  C   UNL     1      38.843   3.389  14.935  0.00  0.00    +0.000 C 
BRANCH  21  23
ATOM     23  C   UNL     1      36.578   2.246  15.271  0.00  0.00    +0.000 C 
BRANCH  23  24
ATOM     24  C   UNL     1      36.144   2.377  16.688  0.00  0.00    +0.000 C 
BRANCH  24  25
ATOM     25  C   UNL     1      35.758   1.061  17.242  0.00  0.00    +0.000 A 
ATOM     26  C   UNL     1      36.256   0.712  18.480  0.00  0.00    +0.000 A 
ATOM     27  C   UNL     1      35.919  -0.498  19.027  0.00  0.00    +0.000 A 
ATOM     28  C   UNL     1      35.084  -1.373  18.349  0.00  0.00    +0.000 A 
ATOM     29  C   UNL     1      34.580  -1.055  17.129  0.00  0.00    +0.000 A 
ATOM     30  C   UNL     1      34.934   0.178  16.593  0.00  0.00    +0.000 A 
ENDBRANCH  24  25
ENDBRANCH  23  24
ENDBRANCH  21  23
ENDBRANCH   5  21
TORSDOF 6
ENDMDL
MODEL 3
REMARK VINA RESULT:      -8.5      3.014      7.053
REMARK  Name = 
REMARK  6 active torsions:
REMARK  status: ('A' for Active; 'I' for Inactive)
REMARK    1  A    between atoms: C_7  and  C_8
REMARK    2  A    between atoms: C_10  and  C_11
REMARK    3  A    between atoms: C_19  and  N_20
REMARK    4  A    between atoms: N_20  and  C_22
REMARK    5  A    between atoms: C_22  and  C_23
REMARK    6  A    between atoms: C_23  and  C_24
REMARK                            x       y       z     vdW  Elec       q    Type
REMARK                         _______ _______ _______ _____ _____    ______ ____
ROOT
ATOM      1  C   UNL     1      36.370   4.855  14.751  0.00  0.00    +0.000 A 
ATOM      2  C   UNL     1      37.373   5.456  15.499  0.00  0.00    +0.000 A 
ATOM      3  C   UNL     1      38.072   4.741  16.438  0.00  0.00    +0.000 A 
ATOM      4  N   UNL     1      37.753   3.449  16.607  0.00  0.00    +0.000 NA
ATOM      5  C   UNL     1      36.797   2.801  15.922  0.00  0.00    +0.000 A 
ATOM      6  C   UNL     1      36.083   3.518  14.968  0.00  0.00    +0.000 A 
ENDROOT
BRANCH   1  13
ATOM      7  C   UNL     1      37.264   4.915  12.007  0.00  0.00    +0.000 C 
ATOM      8  C   UNL     1      36.019   5.630  12.422  0.00  0.00    +0.000 A 
ATOM      9  C   UNL     1      35.266   6.337  11.502  0.00  0.00    +0.000 A 
ATOM     10  C   UNL     1      34.107   7.010  11.876  0.00  0.00    +0.000 A 
ATOM     11  C   UNL     1      33.730   6.953  13.180  0.00  0.00    +0.000 A 
ATOM     12  C   UNL     1      34.457   6.264  14.098  0.00  0.00    +0.000 A 
ATOM     13  C   UNL     1      35.610   5.589  13.749  0.00  0.00    +0.000 A 
ENDBRANCH   1  13
BRANCH   3  14
ATOM     14  C   UNL     1      39.138   5.333  17.245  0.00  0.00    +0.000 A 
ATOM     15  C   UNL     1      39.062   5.429  18.612  0.00  0.00    +0.000 A 
ATOM     16  C   UNL     1      40.089   5.999  19.332  0.00  0.00    +0.000 A 
ATOM     17  C   UNL     1      41.234   6.499  18.721  0.00  0.00    +0.000 A 
ATOM     18  O   UNL     1      42.262   7.074  19.480  0.00  0.00    +0.000 OA
ATOM     19  C   UNL     1      41.306   6.400  17.344  0.00  0.00    +0.000 A 
ATOM     20  C   UNL     1      40.273   5.829  16.638  0.00  0.00    +0.000 A 
ENDBRANCH   3  14
BRANCH   5  21
ATOM     21  N   UNL     1      36.496   1.405  16.147  0.00  0.00    +0.000 N 
ATOM     22  C   UNL     1      35.762   1.033  17.343  0.00  0.00    +0.000 C 
BRANCH  21  23
ATOM     23  C   UNL     1      36.953   0.476  15.146  0.00  0.00    +0.000 C 
BRANCH  23  24
ATOM     24  C   UNL     1      38.387   0.594  14.769  0.00  0.00    +0.000 C 
BRANCH  24  25
ATOM     25  C   UNL     1      39.103  -0.673  15.033  0.00  0.00    +0.000 A 
ATOM     26  C   UNL     1      40.315  -0.873  14.403  0.00  0.00    +0.000 A 
ATOM     27  C   UNL     1      41.008  -2.034  14.625  0.00  0.00    +0.000 A 
ATOM     28  C   UNL     1      40.505  -3.007  15.473  0.00  0.00    +0.000 A 
ATOM     29  C   UNL     1      39.315  -2.838  16.106  0.00  0.00    +0.000 A 
ATOM     30  C   UNL     1      38.629  -1.652  15.868  0.00  0.00    +0.000 A 
ENDBRANCH  24  25
ENDBRANCH  23  24
ENDBRANCH  21  23
ENDBRANCH   5  21
TORSDOF 6
ENDMDL
MODEL 4
REMARK VINA RESULT:      -8.5      2.853      7.318
REMARK  Name = 
REMARK  6 active torsions:
REMARK  status: ('A' for Active; 'I' for Inactive)
REMARK    1  A    between atoms: C_7  and  C_8
REMARK    2  A    between atoms: C_10  and  C_11
REMARK    3  A    between atoms: C_19  and  N_20
REMARK    4  A    between atoms: N_20  and  C_22
REMARK    5  A    between atoms: C_22  and  C_23
REMARK    6  A    between atoms: C_23  and  C_24
REMARK                            x       y       z     vdW  Elec       q    Type
REMARK                         _______ _______ _______ _____ _____    ______ ____
ROOT
ATOM      1  C   UNL     1      38.437   4.705  15.873  0.00  0.00    +0.000 A 
ATOM      2  C   UNL     1      37.567   5.450  15.089  0.00  0.00    +0.000 A 
ATOM      3  C   UNL     1      36.808   4.848  14.118  0.00  0.00    +0.000 A 
ATOM      4  N   UNL     1      36.937   3.522  13.954  0.00  0.00    +0.000 NA
ATOM      5  C   UNL     1      37.755   2.738  14.673  0.00  0.00    +0.000 A 
ATOM      6  C   UNL     1      38.529   3.340  15.660  0.00  0.00    +0.000 A 
ENDROOT
BRANCH   1  13
ATOM      7  C   UNL     1      40.958   5.935  15.192  0.00  0.00    +0.000 C 
ATOM      8  C   UNL     1      40.472   5.918  16.605  0.00  0.00    +0.000 A 
ATOM      9  C   UNL     1      41.217   6.492  17.619  0.00  0.00    +0.000 A 
ATOM     10  C   UNL     1      40.778   6.480  18.939  0.00  0.00    +0.000 A 
ATOM     11  C   UNL     1      39.586   5.886  19.209  0.00  0.00    +0.000 A 
ATOM     12  C   UNL     1      38.840   5.317  18.225  0.00  0.00    +0.000 A 
ATOM     13  C   UNL     1      39.257   5.317  16.909  0.00  0.00    +0.000 A 
ENDBRANCH   1  13
BRANCH   3  14
ATOM     14  C   UNL     1      35.878   5.593  13.272  0.00  0.00    +0.000 A 
ATOM     15  C   UNL     1      34.733   6.170  13.763  0.00  0.00    +0.000 A 
ATOM     16  C   UNL     1      33.882   6.859  12.927  0.00  0.00    +0.000 A 
ATOM     17  C   UNL     1      34.134   7.003  11.567  0.00  0.00    +0.000 A 
ATOM     18  O   UNL     1      33.250   7.710  10.742  0.00  0.00    +0.000 OA
ATOM     19  C   UNL     1      35.287   6.420  11.077  0.00  0.00    +0.000 A 
ATOM     20  C   UNL     1      36.129   5.735  11.923  0.00  0.00    +0.000 A 
ENDBRANCH   3  14
BRANCH   5  21
ATOM     21  N   UNL     1      37.852   1.313  14.453  0.00  0.00    +0.000 N 
ATOM     22  C   UNL     1      39.160   0.731  14.218  0.00  0.00    +0.000 C 
BRANCH  21  23
ATOM     23  C   UNL     1      36.620   0.568  14.489  0.00  0.00    +0.000 C 
BRANCH  23  24
ATOM     24  C   UNL     1      35.720   0.873  15.634  0.00  0.00    +0.000 C 
BRANCH  24  25
ATOM     25  C   UNL     1      36.118   0.103  16.833  0.00  0.00    +0.000 A 
ATOM     26  C   UNL     1      35.588   0.481  18.049  0.00  0.00    +0.000 A 
ATOM     27  C   UNL     1      35.932  -0.209  19.181  0.00  0.00    +0.000 A 
ATOM     28  C   UNL     1      36.805  -1.283  19.116  0.00  0.00    +0.000 A 
ATOM     29  C   UNL     1      37.343  -1.678  17.933  0.00  0.00    +0.000 A 
ATOM     30  C   UNL     1      36.980  -0.964  16.797  0.00  0.00    +0.000 A 
ENDBRANCH  24  25
ENDBRANCH  23  24
ENDBRANCH  21  23
ENDBRANCH   5  21
TORSDOF 6
ENDMDL
MODEL 5
REMARK VINA RESULT:      -8.4      3.026      7.743
REMARK  Name = 
REMARK  6 active torsions:
REMARK  status: ('A' for Active; 'I' for Inactive)
REMARK    1  A    between atoms: C_7  and  C_8
REMARK    2  A    between atoms: C_10  and  C_11
REMARK    3  A    between atoms: C_19  and  N_20
REMARK    4  A    between atoms: N_20  and  C_22
REMARK    5  A    between atoms: C_22  and  C_23
REMARK    6  A    between atoms: C_23  and  C_24
REMARK                            x       y       z     vdW  Elec       q    Type
REMARK                         _______ _______ _______ _____ _____    ______ ____
ROOT
ATOM      1  C   UNL     1      38.084   4.766  16.411  0.00  0.00    +0.000 A 
ATOM      2  C   UNL     1      37.367   5.493  15.470  0.00  0.00    +0.000 A 
ATOM      3  C   UNL     1      36.372   4.900  14.734  0.00  0.00    +0.000 A 
ATOM      4  N   UNL     1      36.120   3.601  14.955  0.00  0.00    +0.000 NA
ATOM      5  C   UNL     1      36.769   2.836  15.846  0.00  0.00    +0.000 A 
ATOM      6  C   UNL     1      37.779   3.429  16.596  0.00  0.00    +0.000 A 
ENDROOT
BRANCH   1  13
ATOM      7  C   UNL     1      40.526   5.637  15.143  0.00  0.00    +0.000 C 
ATOM      8  C   UNL     1      40.329   5.798  16.616  0.00  0.00    +0.000 A 
ATOM      9  C   UNL     1      41.310   6.369  17.405  0.00  0.00    +0.000 A 
ATOM     10  C   UNL     1      41.140   6.523  18.778  0.00  0.00    +0.000 A 
ATOM     11  C   UNL     1      39.974   6.094  19.327  0.00  0.00    +0.000 A 
ATOM     12  C   UNL     1      38.998   5.531  18.567  0.00  0.00    +0.000 A 
ATOM     13  C   UNL     1      39.146   5.369  17.204  0.00  0.00    +0.000 A 
ENDBRANCH   1  13
BRANCH   3  14
ATOM     14  C   UNL     1      35.591   5.628  13.736  0.00  0.00    +0.000 A 
ATOM     15  C   UNL     1      34.410   6.259  14.039  0.00  0.00    +0.000 A 
ATOM     16  C   UNL     1      33.704   6.930  13.065  0.00  0.00    +0.000 A 
ATOM     17  C   UNL     1      34.144   7.001  11.747  0.00  0.00    +0.000 A 
ATOM     18  O   UNL     1      33.404   7.690  10.777  0.00  0.00    +0.000 OA
ATOM     19  C   UNL     1      35.333   6.364  11.446  0.00  0.00    +0.000 A 
ATOM     20  C   UNL     1      36.028   5.697  12.429  0.00  0.00    +0.000 A 
ENDBRANCH   3  14
BRANCH   5  21
ATOM     21  N   UNL     1      36.453   1.439  16.042  0.00  0.00    +0.000 N 
ATOM     22  C   UNL     1      35.656   1.059  17.194  0.00  0.00    +0.000 C 
BRANCH  21  23
ATOM     23  C   UNL     1      36.960   0.518  15.060  0.00  0.00    +0.000 C 
BRANCH  23  24
ATOM     24  C   UNL     1      37.581  -0.721  15.602  0.00  0.00    +0.000 C 
BRANCH  24  25
ATOM     25  C   UNL     1      38.983  -0.848  15.146  0.00  0.00    +0.000 A 
ATOM     26  C   UNL     1      39.608  -2.066  15.313  0.00  0.00    +0.000 A 
ATOM     27  C   UNL     1      40.905  -2.222  14.901  0.00  0.00    +0.000 A 
ATOM     28  C   UNL     1      41.593  -1.169  14.318  0.00  0.00    +0.000 A 
ATOM     29  C   UNL     1      41.003   0.041  14.141  0.00  0.00    +0.000 A 
ATOM     30  C   UNL     1      39.686   0.177  14.566  0.00  0.00    +0.000 A 
ENDBRANCH  24  25
ENDBRANCH  23  24
ENDBRANCH  21  23
ENDBRANCH   5  21
TORSDOF 6
ENDMDL
MODEL 6
REMARK VINA RESULT:      -8.4      2.873      6.785
REMARK  Name = 
REMARK  6 active torsions:
REMARK  status: ('A' for Active; 'I' for Inactive)
REMARK    1  A    between atoms: C_7  and  C_8
REMARK    2  A    between atoms: C_10  and  C_11
REMARK    3  A    between atoms: C_19  and  N_20
REMARK    4  A    between atoms: N_20  and  C_22
REMARK    5  A    between atoms: C_22  and  C_23
REMARK    6  A    between atoms: C_23  and  C_24
REMARK                            x       y       z     vdW  Elec       q    Type
REMARK                         _______ _______ _______ _____ _____    ______ ____
ROOT
ATOM      1  C   UNL     1      36.549   4.855  14.534  0.00  0.00    +0.000 A 
ATOM      2  C   UNL     1      37.459   5.476  15.379  0.00  0.00    +0.000 A 
ATOM      3  C   UNL     1      38.297   4.735  16.173  0.00  0.00    +0.000 A 
ATOM      4  N   UNL     1      38.207   3.399  16.104  0.00  0.00    +0.000 NA
ATOM      5  C   UNL     1      37.354   2.729  15.312  0.00  0.00    +0.000 A 
ATOM      6  C   UNL     1      36.500   3.472  14.504  0.00  0.00    +0.000 A 
ENDROOT
BRANCH   1  13
ATOM      7  C   UNL     1      37.200   5.297  11.757  0.00  0.00    +0.000 C 
ATOM      8  C   UNL     1      35.936   5.839  12.343  0.00  0.00    +0.000 A 
ATOM      9  C   UNL     1      35.049   6.564  11.568  0.00  0.00    +0.000 A 
ATOM     10  C   UNL     1      33.870   7.077  12.101  0.00  0.00    +0.000 A 
ATOM     11  C   UNL     1      33.611   6.843  13.415  0.00  0.00    +0.000 A 
ATOM     12  C   UNL     1      34.471   6.133  14.191  0.00  0.00    +0.000 A 
ATOM     13  C   UNL     1      35.646   5.616  13.682  0.00  0.00    +0.000 A 
ENDBRANCH   1  13
BRANCH   3  14
ATOM     14  C   UNL     1      39.272   5.347  17.075  0.00  0.00    +0.000 A 
ATOM     15  C   UNL     1      40.462   5.869  16.632  0.00  0.00    +0.000 A 
ATOM     16  C   UNL     1      41.353   6.432  17.519  0.00  0.00    +0.000 A 
ATOM     17  C   UNL     1      41.098   6.499  18.885  0.00  0.00    +0.000 A 
ATOM     18  O   UNL     1      42.023   7.078  19.763  0.00  0.00    +0.000 OA
ATOM     19  C   UNL     1      39.898   5.972  19.326  0.00  0.00    +0.000 A 
ATOM     20  C   UNL     1      39.017   5.412  18.429  0.00  0.00    +0.000 A 
ENDBRANCH   3  14
BRANCH   5  21
ATOM     21  N   UNL     1      37.300   1.285  15.279  0.00  0.00    +0.000 N 
ATOM     22  C   UNL     1      38.220   0.573  14.410  0.00  0.00    +0.000 C 
BRANCH  21  23
ATOM     23  C   UNL     1      36.325   0.654  16.129  0.00  0.00    +0.000 C 
BRANCH  23  24
ATOM     24  C   UNL     1      36.243  -0.827  16.020  0.00  0.00    +0.000 C 
BRANCH  24  25
ATOM     25  C   UNL     1      36.988  -1.475  17.122  0.00  0.00    +0.000 A 
ATOM     26  C   UNL     1      37.990  -2.363  16.789  0.00  0.00    +0.000 A 
ATOM     27  C   UNL     1      38.704  -2.981  17.781  0.00  0.00    +0.000 A 
ATOM     28  C   UNL     1      38.429  -2.723  19.115  0.00  0.00    +0.000 A 
ATOM     29  C   UNL     1      37.448  -1.854  19.473  0.00  0.00    +0.000 A 
ATOM     30  C   UNL     1      36.737  -1.238  18.449  0.00  0.00    +0.000 A 
ENDBRANCH  24  25
ENDBRANCH  23  24
ENDBRANCH  21  23
ENDBRANCH   5  21
TORSDOF 6
ENDMDL
MODEL 7
REMARK VINA RESULT:      -8.3      2.837      6.159
REMARK  Name = 
REMARK  6 active torsions:
REMARK  status: ('A' for Active; 'I' for Inactive)
REMARK    1  A    between atoms: C_7  and  C_8
REMARK    2  A    between atoms: C_10  and  C_11
REMARK    3  A    between atoms: C_19  and  N_20
REMARK    4  A    between atoms: N_20  and  C_22
REMARK    5  A    between atoms: C_22  and  C_23
REMARK    6  A    between atoms: C_23  and  C_24
REMARK                            x       y       z     vdW  Elec       q    Type
REMARK                         _______ _______ _______ _____ _____    ______ ____
ROOT
ATOM      1  C   UNL     1      36.961   2.983  15.158  0.00  0.00    +0.000 A 
ATOM      2  C   UNL     1      36.309   3.611  14.106  0.00  0.00    +0.000 A 
ATOM      3  C   UNL     1      36.338   4.977  13.978  0.00  0.00    +0.000 A 
ATOM      4  N   UNL     1      37.013   5.678  14.901  0.00  0.00    +0.000 NA
ATOM      5  C   UNL     1      37.666   5.141  15.944  0.00  0.00    +0.000 A 
ATOM      6  C   UNL     1      37.642   3.757  16.081  0.00  0.00    +0.000 A 
ENDROOT
BRANCH   1  13
ATOM      7  C   UNL     1      34.804   1.705  16.588  0.00  0.00    +0.000 C 
ATOM      8  C   UNL     1      35.917   0.898  16.001  0.00  0.00    +0.000 A 
ATOM      9  C   UNL     1      35.938  -0.479  16.128  0.00  0.00    +0.000 A 
ATOM     10  C   UNL     1      36.970  -1.241  15.589  0.00  0.00    +0.000 A 
ATOM     11  C   UNL     1      37.963  -0.592  14.927  0.00  0.00    +0.000 A 
ATOM     12  C   UNL     1      37.958   0.760  14.792  0.00  0.00    +0.000 A 
ATOM     13  C   UNL     1      36.945   1.536  15.320  0.00  0.00    +0.000 A 
ENDBRANCH   1  13
BRANCH   3  14
ATOM     14  C   UNL     1      35.669   5.679  12.884  0.00  0.00    +0.000 A 
ATOM     15  C   UNL     1      34.541   6.439  13.075  0.00  0.00    +0.000 A 
ATOM     16  C   UNL     1      33.941   7.080  12.014  0.00  0.00    +0.000 A 
ATOM     17  C   UNL     1      34.436   6.991  10.717  0.00  0.00    +0.000 A 
ATOM     18  O   UNL     1      33.804   7.654   9.657  0.00  0.00    +0.000 OA
ATOM     19  C   UNL     1      35.572   6.225  10.530  0.00  0.00    +0.000 A 
ATOM     20  C   UNL     1      36.161   5.590  11.599  0.00  0.00    +0.000 A 
ENDBRANCH   3  14
BRANCH   5  21
ATOM     21  N   UNL     1      38.379   5.947  16.908  0.00  0.00    +0.000 N 
ATOM     22  C   UNL     1      38.286   7.393  16.815  0.00  0.00    +0.000 C 
BRANCH  21  23
ATOM     23  C   UNL     1      39.136   5.241  17.909  0.00  0.00    +0.000 C 
BRANCH  23  24
ATOM     24  C   UNL     1      39.464   6.019  19.133  0.00  0.00    +0.000 C 
BRANCH  24  25
ATOM     25  C   UNL     1      40.916   6.288  19.210  0.00  0.00    +0.000 A 
ATOM     26  C   UNL     1      41.507   6.294  20.456  0.00  0.00    +0.000 A 
ATOM     27  C   UNL     1      42.851   6.537  20.566  0.00  0.00    +0.000 A 
ATOM     28  C   UNL     1      43.621   6.777  19.440  0.00  0.00    +0.000 A 
ATOM     29  C   UNL     1      43.066   6.778  18.199  0.00  0.00    +0.000 A 
ATOM     30  C   UNL     1      41.701   6.528  18.111  0.00  0.00    +0.000 A 
ENDBRANCH  24  25
ENDBRANCH  23  24
ENDBRANCH  21  23
ENDBRANCH   5  21
TORSDOF 6
ENDMDL
MODEL 8
REMARK VINA RESULT:      -8.2      2.901      6.812
REMARK  Name = 
REMARK  6 active torsions:
REMARK  status: ('A' for Active; 'I' for Inactive)
REMARK    1  A    between atoms: C_7  and  C_8
REMARK    2  A    between atoms: C_10  and  C_11
REMARK    3  A    between atoms: C_19  and  N_20
REMARK    4  A    between atoms: N_20  and  C_22
REMARK    5  A    between atoms: C_22  and  C_23
REMARK    6  A    between atoms: C_23  and  C_24
REMARK                            x       y       z     vdW  Elec       q    Type
REMARK                         _______ _______ _______ _____ _____    ______ ____
ROOT
ATOM      1  C   UNL     1      36.386   2.562  15.797  0.00  0.00    +0.000 A 
ATOM      2  C   UNL     1      37.418   3.141  16.523  0.00  0.00    +0.000 A 
ATOM      3  C   UNL     1      37.797   4.439  16.291  0.00  0.00    +0.000 A 
ATOM      4  N   UNL     1      37.139   5.123  15.343  0.00  0.00    +0.000 NA
ATOM      5  C   UNL     1      36.132   4.632  14.603  0.00  0.00    +0.000 A 
ATOM      6  C   UNL     1      35.742   3.317  14.832  0.00  0.00    +0.000 A 
ENDROOT
BRANCH   1  13
ATOM      7  C   UNL     1      37.562   0.417  14.265  0.00  0.00    +0.000 C 
ATOM      8  C   UNL     1      36.518   0.137  15.298  0.00  0.00    +0.000 A 
ATOM      9  C   UNL     1      36.092  -1.155  15.544  0.00  0.00    +0.000 A 
ATOM     10  C   UNL     1      35.119  -1.429  16.500  0.00  0.00    +0.000 A 
ATOM     11  C   UNL     1      34.594  -0.384  17.193  0.00  0.00    +0.000 A 
ATOM     12  C   UNL     1      35.001   0.892  16.965  0.00  0.00    +0.000 A 
ATOM     13  C   UNL     1      35.964   1.186  16.021  0.00  0.00    +0.000 A 
ENDBRANCH   1  13
BRANCH   3  14
ATOM     14  C   UNL     1      38.876   5.088  17.033  0.00  0.00    +0.000 A 
ATOM     15  C   UNL     1      38.880   5.178  18.403  0.00  0.00    +0.000 A 
ATOM     16  C   UNL     1      39.916   5.804  19.061  0.00  0.00    +0.000 A 
ATOM     17  C   UNL     1      40.992   6.368  18.383  0.00  0.00    +0.000 A 
ATOM     18  O   UNL     1      42.031   6.998  19.079  0.00  0.00    +0.000 OA
ATOM     19  C   UNL     1      40.983   6.275  17.003  0.00  0.00    +0.000 A 
ATOM     20  C   UNL     1      39.942   5.647  16.359  0.00  0.00    +0.000 A 
ENDBRANCH   3  14
BRANCH   5  21
ATOM     21  N   UNL     1      35.458   5.417  13.595  0.00  0.00    +0.000 N 
ATOM     22  C   UNL     1      36.045   5.504  12.270  0.00  0.00    +0.000 C 
BRANCH  21  23
ATOM     23  C   UNL     1      34.233   6.061  13.990  0.00  0.00    +0.000 C 
BRANCH  23  24
ATOM     24  C   UNL     1      33.846   7.252  13.186  0.00  0.00    +0.000 C 
BRANCH  24  25
ATOM     25  C   UNL     1      33.955   8.487  13.993  0.00  0.00    +0.000 A 
ATOM     26  C   UNL     1      33.593   8.424  15.322  0.00  0.00    +0.000 A 
ATOM     27  C   UNL     1      33.683   9.546  16.102  0.00  0.00    +0.000 A 
ATOM     28  C   UNL     1      34.133  10.743  15.568  0.00  0.00    +0.000 A 
ATOM     29  C   UNL     1      34.496  10.836  14.262  0.00  0.00    +0.000 A 
ATOM     30  C   UNL     1      34.397   9.684  13.490  0.00  0.00    +0.000 A 
ENDBRANCH  24  25
ENDBRANCH  23  24
ENDBRANCH  21  23
ENDBRANCH   5  21
TORSDOF 6
ENDMDL
MODEL 9
REMARK VINA RESULT:      -8.1      2.086      5.356
REMARK  Name = 
REMARK  6 active torsions:
REMARK  status: ('A' for Active; 'I' for Inactive)
REMARK    1  A    between atoms: C_7  and  C_8
REMARK    2  A    between atoms: C_10  and  C_11
REMARK    3  A    between atoms: C_19  and  N_20
REMARK    4  A    between atoms: N_20  and  C_22
REMARK    5  A    between atoms: C_22  and  C_23
REMARK    6  A    between atoms: C_23  and  C_24
REMARK                            x       y       z     vdW  Elec       q    Type
REMARK                         _______ _______ _______ _____ _____    ______ ____
ROOT
ATOM      1  C   UNL     1      39.448   5.935  17.257  0.00  0.00    +0.000 A 
ATOM      2  C   UNL     1      39.097   4.643  16.891  0.00  0.00    +0.000 A 
ATOM      3  C   UNL     1      38.086   4.419  15.992  0.00  0.00    +0.000 A 
ATOM      4  N   UNL     1      37.453   5.486  15.483  0.00  0.00    +0.000 NA
ATOM      5  C   UNL     1      37.736   6.763  15.789  0.00  0.00    +0.000 A 
ATOM      6  C   UNL     1      38.760   6.999  16.700  0.00  0.00    +0.000 A 
ENDROOT
BRANCH   1  13
ATOM      7  C   UNL     1      42.125   6.477  16.324  0.00  0.00    +0.000 C 
ATOM      8  C   UNL     1      41.811   6.469  17.786  0.00  0.00    +0.000 A 
ATOM      9  C   UNL     1      42.794   6.722  18.725  0.00  0.00    +0.000 A 
ATOM     10  C   UNL     1      42.516   6.714  20.088  0.00  0.00    +0.000 A 
ATOM     11  C   UNL     1      41.240   6.451  20.476  0.00  0.00    +0.000 A 
ATOM     12  C   UNL     1      40.261   6.201  19.567  0.00  0.00    +0.000 A 
ATOM     13  C   UNL     1      40.516   6.203  18.211  0.00  0.00    +0.000 A 
ENDBRANCH   1  13
BRANCH   3  14
ATOM     14  C   UNL     1      37.686   3.076  15.576  0.00  0.00    +0.000 A 
ATOM     15  C   UNL     1      38.450   2.305  14.735  0.00  0.00    +0.000 A 
ATOM     16  C   UNL     1      38.031   1.045  14.366  0.00  0.00    +0.000 A 
ATOM     17  C   UNL     1      36.833   0.500  14.817  0.00  0.00    +0.000 A 
ATOM     18  O   UNL     1      36.433  -0.783  14.424  0.00  0.00    +0.000 OA
ATOM     19  C   UNL     1      36.067   1.280  15.664  0.00  0.00    +0.000 A 
ATOM     20  C   UNL     1      36.498   2.537  16.024  0.00  0.00    +0.000 A 
ENDBRANCH   3  14
BRANCH   5  21
ATOM     21  N   UNL     1      37.019   7.875  15.208  0.00  0.00    +0.000 N 
ATOM     22  C   UNL     1      36.077   7.614  14.135  0.00  0.00    +0.000 C 
BRANCH  21  23
ATOM     23  C   UNL     1      37.296   9.178  15.752  0.00  0.00    +0.000 C 
BRANCH  23  24
ATOM     24  C   UNL     1      36.482   9.566  16.935  0.00  0.00    +0.000 C 
BRANCH  24  25
ATOM     25  C   UNL     1      37.300   9.540  18.167  0.00  0.00    +0.000 A 
ATOM     26  C   UNL     1      36.852   8.777  19.224  0.00  0.00    +0.000 A 
ATOM     27  C   UNL     1      37.584   8.727  20.381  0.00  0.00    +0.000 A 
ATOM     28  C   UNL     1      38.770   9.434  20.498  0.00  0.00    +0.000 A 
ATOM     29  C   UNL     1      39.237  10.194  19.473  0.00  0.00    +0.000 A 
ATOM     30  C   UNL     1      38.477  10.230  18.309  0.00  0.00    +0.000 A 
ENDBRANCH  24  25
ENDBRANCH  23  24
ENDBRANCH  21  23
ENDBRANCH   5  21
TORSDOF 6
ENDMDL
MODEL 10
REMARK VINA RESULT:      -8.1      2.006      5.242
REMARK  Name = 
REMARK  6 active torsions:
REMARK  status: ('A' for Active; 'I' for Inactive)
REMARK    1  A    between atoms: C_7  and  C_8
REMARK    2  A    between atoms: C_10  and  C_11
REMARK    3  A    between atoms: C_19  and  N_20
REMARK    4  A    between atoms: N_20  and  C_22
REMARK    5  A    between atoms: C_22  and  C_23
REMARK    6  A    between atoms: C_23  and  C_24
REMARK                            x       y       z     vdW  Elec       q    Type
REMARK                         _______ _______ _______ _____ _____    ______ ____
ROOT
ATOM      1  C   UNL     1      38.285   5.093  16.636  0.00  0.00    +0.000 A 
ATOM      2  C   UNL     1      37.828   3.788  16.764  0.00  0.00    +0.000 A 
ATOM      3  C   UNL     1      36.825   3.314  15.959  0.00  0.00    +0.000 A 
ATOM      4  N   UNL     1      36.303   4.151  15.050  0.00  0.00    +0.000 NA
ATOM      5  C   UNL     1      36.692   5.423  14.868  0.00  0.00    +0.000 A 
ATOM      6  C   UNL     1      37.709   5.912  15.680  0.00  0.00    +0.000 A 
ENDROOT
BRANCH   1  13
ATOM      7  C   UNL     1      40.827   5.822  15.480  0.00  0.00    +0.000 C 
ATOM      8  C   UNL     1      40.578   5.985  16.945  0.00  0.00    +0.000 A 
ATOM      9  C   UNL     1      41.558   6.488  17.780  0.00  0.00    +0.000 A 
ATOM     10  C   UNL     1      41.340   6.642  19.145  0.00  0.00    +0.000 A 
ATOM     11  C   UNL     1      40.127   6.281  19.642  0.00  0.00    +0.000 A 
ATOM     12  C   UNL     1      39.152   5.784  18.836  0.00  0.00    +0.000 A 
ATOM     13  C   UNL     1      39.347   5.624  17.479  0.00  0.00    +0.000 A 
ENDBRANCH   1  13
BRANCH   3  14
ATOM     14  C   UNL     1      36.316   1.946  16.058  0.00  0.00    +0.000 A 
ATOM     15  C   UNL     1      35.257   1.609  16.863  0.00  0.00    +0.000 A 
ATOM     16  C   UNL     1      34.814   0.306  16.928  0.00  0.00    +0.000 A 
ATOM     17  C   UNL     1      35.407  -0.716  16.196  0.00  0.00    +0.000 A 
ATOM     18  O   UNL     1      34.935  -2.032  16.283  0.00  0.00    +0.000 OA
ATOM     19  C   UNL     1      36.474  -0.372  15.386  0.00  0.00    +0.000 A 
ATOM     20  C   UNL     1      36.906   0.933  15.331  0.00  0.00    +0.000 A 
ENDBRANCH   3  14
BRANCH   5  21
ATOM     21  N   UNL     1      36.093   6.280  13.870  0.00  0.00    +0.000 N 
ATOM     22  C   UNL     1      36.937   6.829  12.825  0.00  0.00    +0.000 C 
BRANCH  21  23
ATOM     23  C   UNL     1      34.679   6.523  13.991  0.00  0.00    +0.000 C 
BRANCH  23  24
ATOM     24  C   UNL     1      34.253   7.936  13.806  0.00  0.00    +0.000 C 
BRANCH  24  25
ATOM     25  C   UNL     1      34.297   8.670  15.089  0.00  0.00    +0.000 A 
ATOM     26  C   UNL     1      35.465   9.327  15.418  0.00  0.00    +0.000 A 
ATOM     27  C   UNL     1      35.542  10.019  16.597  0.00  0.00    +0.000 A 
ATOM     28  C   UNL     1      34.461  10.065  17.462  0.00  0.00    +0.000 A 
ATOM     29  C   UNL     1      33.299   9.427  17.166  0.00  0.00    +0.000 A 
ATOM     30  C   UNL     1      33.242   8.732  15.963  0.00  0.00    +0.000 A 
ENDBRANCH  24  25
ENDBRANCH  23  24
ENDBRANCH  21  23
ENDBRANCH   5  21
TORSDOF 6
ENDMDL
