MODEL 1
REMARK VINA RESULT:      -8.2      0.000      0.000
REMARK  Name = 
REMARK  7 active torsions:
REMARK  status: ('A' for Active; 'I' for Inactive)
REMARK    1  A    between atoms: C_7  and  N_8
REMARK    2  A    between atoms: N_8  and  C_9
REMARK    3  A    between atoms: C_10  and  S_11
REMARK    4  A    between atoms: S_11  and  C_12
REMARK    5  A    between atoms: N_20  and  C_21
REMARK    6  A    between atoms: C_21  and  C_22
REMARK    7  A    between atoms: C_22  and  C_23
REMARK                            x       y       z     vdW  Elec       q    Type
REMARK                         _______ _______ _______ _____ _____    ______ ____
ROOT
ATOM      1  C   UNL     1      37.251   1.778  15.084  0.00  0.00    +0.000 C 
ATOM      2  C   UNL     1      38.281   2.070  14.260  0.00  0.00    +0.000 C 
ATOM      3  C   UNL     1      38.853   3.342  14.649  0.00  0.00    +0.000 C 
ATOM      4  O   UNL     1      39.800   3.970  14.164  0.00  0.00    +0.000 OA
ATOM      5  N   UNL     1      38.111   3.837  15.782  0.00  0.00    +0.000 N 
ATOM      6  C   UNL     1      37.120   2.857  16.041  0.00  0.00    +0.000 C 
ATOM      7  O   UNL     1      36.257   2.923  16.970  0.00  0.00    +0.000 OA
ENDROOT
BRANCH   1   8
ATOM      8  N   UNL     1      36.431   0.626  15.041  0.00  0.00    +0.000 NA
BRANCH   8  15
ATOM      9  C   UNL     1      39.304  -3.070  16.713  0.00  0.00    +0.000 C 
ATOM     10  C   UNL     1      38.087  -2.218  16.763  0.00  0.00    +0.000 A 
ATOM     11  C   UNL     1      37.148  -2.444  17.743  0.00  0.00    +0.000 A 
ATOM     12  C   UNL     1      36.004  -1.702  17.852  0.00  0.00    +0.000 A 
ATOM     13  C   UNL     1      35.753  -0.686  16.970  0.00  0.00    +0.000 A 
ATOM     14  C   UNL     1      34.542   0.162  17.020  0.00  0.00    +0.000 C 
ATOM     15  C   UNL     1      36.697  -0.441  15.967  0.00  0.00    +0.000 A 
ATOM     16  C   UNL     1      37.847  -1.198  15.867  0.00  0.00    +0.000 A 
ENDBRANCH   8  15
ENDBRANCH   1   8
BRANCH   2  17
ATOM     17  S   UNL     1      38.751   0.991  12.958  0.00  0.00    +0.000 S 
BRANCH  17  18
ATOM     18  C   UNL     1      39.919  -0.250  13.363  0.00  0.00    +0.000 A 
ATOM     19  C   UNL     1      39.693  -1.514  12.792  0.00  0.00    +0.000 A 
ATOM     20  C   UNL     1      40.525  -2.569  13.025  0.00  0.00    +0.000 A 
ATOM     21  C   UNL     1      41.624  -2.423  13.836  0.00  0.00    +0.000 A 
ATOM     22  C   UNL     1      41.836  -1.181  14.391  0.00  0.00    +0.000 A 
ATOM     23  C   UNL     1      41.006  -0.122  14.160  0.00  0.00    +0.000 A 
ENDBRANCH  17  18
ENDBRANCH   2  17
BRANCH   5  24
ATOM     24  C   UNL     1      38.329   5.065  16.504  0.00  0.00    +0.000 C 
BRANCH  24  25
ATOM     25  C   UNL     1      38.952   4.794  17.848  0.00  0.00    +0.000 C 
BRANCH  25  26
ATOM     26  C   UNL     1      39.032   6.026  18.642  0.00  0.00    +0.000 A 
ATOM     27  C   UNL     1      38.137   7.039  18.470  0.00  0.00    +0.000 A 
ATOM     28  C   UNL     1      38.201   8.197  19.216  0.00  0.00    +0.000 A 
ATOM     29  C   UNL     1      39.194   8.329  20.156  0.00  0.00    +0.000 A 
ATOM     30  C   UNL     1      40.103   7.311  20.338  0.00  0.00    +0.000 A 
ATOM     31  C   UNL     1      40.028   6.162  19.589  0.00  0.00    +0.000 A 
ENDBRANCH  25  26
ENDBRANCH  24  25
ENDBRANCH   5  24
TORSDOF 7
ENDMDL
MODEL 2
REMARK VINA RESULT:      -8.0      1.583      2.094
REMARK  Name = 
REMARK  7 active torsions:
REMARK  status: ('A' for Active; 'I' for Inactive)
REMARK    1  A    between atoms: C_7  and  N_8
REMARK    2  A    between atoms: N_8  and  C_9
REMARK    3  A    between atoms: C_10  and  S_11
REMARK    4  A    between atoms: S_11  and  C_12
REMARK    5  A    between atoms: N_20  and  C_21
REMARK    6  A    between atoms: C_21  and  C_22
REMARK    7  A    between atoms: C_22  and  C_23
REMARK                            x       y       z     vdW  Elec       q    Type
REMARK                         _______ _______ _______ _____ _____    ______ ____
ROOT
ATOM      1  C   UNL     1      36.663   1.556  15.243  0.00  0.00    +0.000 C 
ATOM      2  C   UNL     1      36.977   1.824  13.957  0.00  0.00    +0.000 C 
ATOM      3  C   UNL     1      37.534   3.158  13.874  0.00  0.00    +0.000 C 
ATOM      4  O   UNL     1      37.948   3.789  12.896  0.00  0.00    +0.000 OA
ATOM      5  N   UNL     1      37.551   3.717  15.203  0.00  0.00    +0.000 N 
ATOM      6  C   UNL     1      37.006   2.713  16.043  0.00  0.00    +0.000 C 
ATOM      7  O   UNL     1      36.849   2.820  17.298  0.00  0.00    +0.000 OA
ENDROOT
BRANCH   1   8
ATOM      8  N   UNL     1      36.095   0.361  15.745  0.00  0.00    +0.000 NA
BRANCH   8  15
ATOM      9  C   UNL     1      39.955  -2.773  15.716  0.00  0.00    +0.000 C 
ATOM     10  C   UNL     1      38.815  -2.087  16.382  0.00  0.00    +0.000 A 
ATOM     11  C   UNL     1      38.550  -2.355  17.705  0.00  0.00    +0.000 A 
ATOM     12  C   UNL     1      37.520  -1.764  18.384  0.00  0.00    +0.000 A 
ATOM     13  C   UNL     1      36.702  -0.867  17.752  0.00  0.00    +0.000 A 
ATOM     14  C   UNL     1      35.568  -0.185  18.415  0.00  0.00    +0.000 C 
ATOM     15  C   UNL     1      36.956  -0.582  16.406  0.00  0.00    +0.000 A 
ATOM     16  C   UNL     1      37.999  -1.186  15.732  0.00  0.00    +0.000 A 
ENDBRANCH   8  15
ENDBRANCH   1   8
BRANCH   2  17
ATOM     17  S   UNL     1      36.704   0.653  12.679  0.00  0.00    +0.000 S 
BRANCH  17  18
ATOM     18  C   UNL     1      38.135  -0.022  11.926  0.00  0.00    +0.000 A 
ATOM     19  C   UNL     1      38.668   0.713  10.853  0.00  0.00    +0.000 A 
ATOM     20  C   UNL     1      39.779   0.301  10.179  0.00  0.00    +0.000 A 
ATOM     21  C   UNL     1      40.417  -0.862  10.535  0.00  0.00    +0.000 A 
ATOM     22  C   UNL     1      39.887  -1.575  11.587  0.00  0.00    +0.000 A 
ATOM     23  C   UNL     1      38.775  -1.165  12.266  0.00  0.00    +0.000 A 
ENDBRANCH  17  18
ENDBRANCH   2  17
BRANCH   5  24
ATOM     24  C   UNL     1      38.023   5.020  15.601  0.00  0.00    +0.000 C 
BRANCH  24  25
ATOM     25  C   UNL     1      39.525   5.037  15.706  0.00  0.00    +0.000 C 
BRANCH  25  26
ATOM     26  C   UNL     1      39.949   5.580  17.003  0.00  0.00    +0.000 A 
ATOM     27  C   UNL     1      39.154   5.482  18.106  0.00  0.00    +0.000 A 
ATOM     28  C   UNL     1      39.547   5.983  19.329  0.00  0.00    +0.000 A 
ATOM     29  C   UNL     1      40.772   6.596  19.434  0.00  0.00    +0.000 A 
ATOM     30  C   UNL     1      41.583   6.700  18.326  0.00  0.00    +0.000 A 
ATOM     31  C   UNL     1      41.180   6.196  17.113  0.00  0.00    +0.000 A 
ENDBRANCH  25  26
ENDBRANCH  24  25
ENDBRANCH   5  24
TORSDOF 7
ENDMDL
MODEL 3
REMARK VINA RESULT:      -7.9      1.226      4.101
REMARK  Name = 
REMARK  7 active torsions:
REMARK  status: ('A' for Active; 'I' for Inactive)
REMARK    1  A    between atoms: C_7  and  N_8
REMARK    2  A    between atoms: N_8  and  C_9
REMARK    3  A    between atoms: C_10  and  S_11
REMARK    4  A    between atoms: S_11  and  C_12
REMARK    5  A    between atoms: N_20  and  C_21
REMARK    6  A    between atoms: C_21  and  C_22
REMARK    7  A    between atoms: C_22  and  C_23
REMARK                            x       y       z     vdW  Elec       q    Type
REMARK                         _______ _______ _______ _____ _____    ______ ____
ROOT
ATOM      1  C   UNL     1      38.361   2.148  14.398  0.00  0.00    +0.000 C 
ATOM      2  C   UNL     1      37.160   1.936  14.980  0.00  0.00    +0.000 C 
ATOM      3  C   UNL     1      36.903   2.997  15.933  0.00  0.00    +0.000 C 
ATOM      4  O   UNL     1      35.932   3.184  16.672  0.00  0.00    +0.000 OA
ATOM      5  N   UNL     1      38.029   3.897  15.911  0.00  0.00    +0.000 N 
ATOM      6  C   UNL     1      38.926   3.359  14.955  0.00  0.00    +0.000 C 
ATOM      7  O   UNL     1      40.048   3.866  14.643  0.00  0.00    +0.000 OA
ENDROOT
BRANCH   1   8
ATOM      8  N   UNL     1      38.978   1.342  13.413  0.00  0.00    +0.000 NA
BRANCH   8  15
ATOM      9  C   UNL     1      39.981  -2.925  15.760  0.00  0.00    +0.000 C 
ATOM     10  C   UNL     1      40.375  -1.727  14.971  0.00  0.00    +0.000 A 
ATOM     11  C   UNL     1      41.694  -1.559  14.618  0.00  0.00    +0.000 A 
ATOM     12  C   UNL     1      42.132  -0.484  13.894  0.00  0.00    +0.000 A 
ATOM     13  C   UNL     1      41.249   0.480  13.489  0.00  0.00    +0.000 A 
ATOM     14  C   UNL     1      41.641   1.672  12.704  0.00  0.00    +0.000 C 
ATOM     15  C   UNL     1      39.903   0.327  13.838  0.00  0.00    +0.000 A 
ATOM     16  C   UNL     1      39.475  -0.763  14.570  0.00  0.00    +0.000 A 
ENDBRANCH   8  15
ENDBRANCH   1   8
BRANCH   2  17
ATOM     17  S   UNL     1      36.164   0.555  14.561  0.00  0.00    +0.000 S 
BRANCH  17  18
ATOM     18  C   UNL     1      36.291  -0.842  15.611  0.00  0.00    +0.000 A 
ATOM     19  C   UNL     1      36.640  -0.575  16.946  0.00  0.00    +0.000 A 
ATOM     20  C   UNL     1      36.773  -1.569  17.869  0.00  0.00    +0.000 A 
ATOM     21  C   UNL     1      36.566  -2.880  17.514  0.00  0.00    +0.000 A 
ATOM     22  C   UNL     1      36.225  -3.131  16.203  0.00  0.00    +0.000 A 
ATOM     23  C   UNL     1      36.090  -2.137  15.276  0.00  0.00    +0.000 A 
ENDBRANCH  17  18
ENDBRANCH   2  17
BRANCH   5  24
ATOM     24  C   UNL     1      38.208   5.096  16.692  0.00  0.00    +0.000 C 
BRANCH  24  25
ATOM     25  C   UNL     1      38.813   4.777  18.034  0.00  0.00    +0.000 C 
BRANCH  25  26
ATOM     26  C   UNL     1      39.091   6.008  18.784  0.00  0.00    +0.000 A 
ATOM     27  C   UNL     1      40.181   6.112  19.596  0.00  0.00    +0.000 A 
ATOM     28  C   UNL     1      40.454   7.266  20.299  0.00  0.00    +0.000 A 
ATOM     29  C   UNL     1      39.602   8.337  20.177  0.00  0.00    +0.000 A 
ATOM     30  C   UNL     1      38.498   8.242  19.360  0.00  0.00    +0.000 A 
ATOM     31  C   UNL     1      38.237   7.087  18.663  0.00  0.00    +0.000 A 
ENDBRANCH  25  26
ENDBRANCH  24  25
ENDBRANCH   5  24
TORSDOF 7
ENDMDL
MODEL 4
REMARK VINA RESULT:      -7.9      3.508      5.381
REMARK  Name = 
REMARK  7 active torsions:
REMARK  status: ('A' for Active; 'I' for Inactive)
REMARK    1  A    between atoms: C_7  and  N_8
REMARK    2  A    between atoms: N_8  and  C_9
REMARK    3  A    between atoms: C_10  and  S_11
REMARK    4  A    between atoms: S_11  and  C_12
REMARK    5  A    between atoms: N_20  and  C_21
REMARK    6  A    between atoms: C_21  and  C_22
REMARK    7  A    between atoms: C_22  and  C_23
REMARK                            x       y       z     vdW  Elec       q    Type
REMARK                         _______ _______ _______ _____ _____    ______ ____
ROOT
ATOM      1  C   UNL     1      38.155  -1.666  14.048  0.00  0.00    +0.000 C 
ATOM      2  C   UNL     1      39.328  -1.907  14.672  0.00  0.00    +0.000 C 
ATOM      3  C   UNL     1      40.339  -1.015  14.142  0.00  0.00    +0.000 C 
ATOM      4  O   UNL     1      41.534  -0.905  14.433  0.00  0.00    +0.000 OA
ATOM      5  N   UNL     1      39.720  -0.189  13.136  0.00  0.00    +0.000 N 
ATOM      6  C   UNL     1      38.365  -0.603  13.086  0.00  0.00    +0.000 C 
ATOM      7  O   UNL     1      37.481  -0.113  12.317  0.00  0.00    +0.000 OA
ENDROOT
BRANCH   1   8
ATOM      8  N   UNL     1      36.923  -2.323  14.275  0.00  0.00    +0.000 NA
BRANCH   8  15
ATOM      9  C   UNL     1      34.916   1.465  16.794  0.00  0.00    +0.000 C 
ATOM     10  C   UNL     1      35.094   0.016  16.506  0.00  0.00    +0.000 A 
ATOM     11  C   UNL     1      34.397  -0.907  17.251  0.00  0.00    +0.000 A 
ATOM     12  C   UNL     1      34.508  -2.254  17.045  0.00  0.00    +0.000 A 
ATOM     13  C   UNL     1      35.337  -2.737  16.068  0.00  0.00    +0.000 A 
ATOM     14  C   UNL     1      35.513  -4.178  15.783  0.00  0.00    +0.000 C 
ATOM     15  C   UNL     1      36.053  -1.814  15.300  0.00  0.00    +0.000 A 
ATOM     16  C   UNL     1      35.932  -0.456  15.519  0.00  0.00    +0.000 A 
ENDBRANCH   8  15
ENDBRANCH   1   8
BRANCH   2  17
ATOM     17  S   UNL     1      39.473  -3.138  15.914  0.00  0.00    +0.000 S 
BRANCH  17  18
ATOM     18  C   UNL     1      38.762  -2.758  17.470  0.00  0.00    +0.000 A 
ATOM     19  C   UNL     1      38.764  -3.797  18.415  0.00  0.00    +0.000 A 
ATOM     20  C   UNL     1      38.243  -3.637  19.664  0.00  0.00    +0.000 A 
ATOM     21  C   UNL     1      37.692  -2.435  20.039  0.00  0.00    +0.000 A 
ATOM     22  C   UNL     1      37.695  -1.423  19.105  0.00  0.00    +0.000 A 
ATOM     23  C   UNL     1      38.217  -1.580  17.853  0.00  0.00    +0.000 A 
ENDBRANCH  17  18
ENDBRANCH   2  17
BRANCH   5  24
ATOM     24  C   UNL     1      40.342   0.845  12.346  0.00  0.00    +0.000 C 
BRANCH  24  25
ATOM     25  C   UNL     1      40.578   2.082  13.172  0.00  0.00    +0.000 C 
BRANCH  25  26
ATOM     26  C   UNL     1      39.303   2.676  13.593  0.00  0.00    +0.000 A 
ATOM     27  C   UNL     1      38.948   2.731  14.908  0.00  0.00    +0.000 A 
ATOM     28  C   UNL     1      37.756   3.293  15.314  0.00  0.00    +0.000 A 
ATOM     29  C   UNL     1      36.907   3.810  14.364  0.00  0.00    +0.000 A 
ATOM     30  C   UNL     1      37.256   3.759  13.034  0.00  0.00    +0.000 A 
ATOM     31  C   UNL     1      38.447   3.197  12.642  0.00  0.00    +0.000 A 
ENDBRANCH  25  26
ENDBRANCH  24  25
ENDBRANCH   5  24
TORSDOF 7
ENDMDL
MODEL 5
REMARK VINA RESULT:      -7.9      3.153      8.195
REMARK  Name = 
REMARK  7 active torsions:
REMARK  status: ('A' for Active; 'I' for Inactive)
REMARK    1  A    between atoms: C_7  and  N_8
REMARK    2  A    between atoms: N_8  and  C_9
REMARK    3  A    between atoms: C_10  and  S_11
REMARK    4  A    between atoms: S_11  and  C_12
REMARK    5  A    between atoms: N_20  and  C_21
REMARK    6  A    between atoms: C_21  and  C_22
REMARK    7  A    between atoms: C_22  and  C_23
REMARK                            x       y       z     vdW  Elec       q    Type
REMARK                         _______ _______ _______ _____ _____    ______ ____
ROOT
ATOM      1  C   UNL     1      36.932   4.362  14.872  0.00  0.00    +0.000 C 
ATOM      2  C   UNL     1      37.644   4.432  16.018  0.00  0.00    +0.000 C 
ATOM      3  C   UNL     1      37.135   3.449  16.952  0.00  0.00    +0.000 C 
ATOM      4  O   UNL     1      37.497   3.182  18.102  0.00  0.00    +0.000 OA
ATOM      5  N   UNL     1      36.048   2.748  16.313  0.00  0.00    +0.000 N 
ATOM      6  C   UNL     1      35.933   3.326  15.023  0.00  0.00    +0.000 C 
ATOM      7  O   UNL     1      35.083   2.980  14.145  0.00  0.00    +0.000 OA
ENDROOT
BRANCH   1   8
ATOM      8  N   UNL     1      37.113   5.153  13.713  0.00  0.00    +0.000 NA
BRANCH   8  15
ATOM      9  C   UNL     1      33.757   8.654  14.806  0.00  0.00    +0.000 C 
ATOM     10  C   UNL     1      34.449   7.737  13.862  0.00  0.00    +0.000 A 
ATOM     11  C   UNL     1      34.077   7.730  12.538  0.00  0.00    +0.000 A 
ATOM     12  C   UNL     1      34.666   6.915  11.611  0.00  0.00    +0.000 A 
ATOM     13  C   UNL     1      35.668   6.060  11.983  0.00  0.00    +0.000 A 
ATOM     14  C   UNL     1      36.356   5.147  11.042  0.00  0.00    +0.000 C 
ATOM     15  C   UNL     1      36.061   6.052  13.325  0.00  0.00    +0.000 A 
ATOM     16  C   UNL     1      35.457   6.880  14.250  0.00  0.00    +0.000 A 
ENDBRANCH   8  15
ENDBRANCH   1   8
BRANCH   2  17
ATOM     17  S   UNL     1      38.955   5.580  16.219  0.00  0.00    +0.000 S 
BRANCH  17  18
ATOM     18  C   UNL     1      39.151   6.263  17.821  0.00  0.00    +0.000 A 
ATOM     19  C   UNL     1      38.241   7.273  18.172  0.00  0.00    +0.000 A 
ATOM     20  C   UNL     1      38.281   7.889  19.388  0.00  0.00    +0.000 A 
ATOM     21  C   UNL     1      39.228   7.532  20.317  0.00  0.00    +0.000 A 
ATOM     22  C   UNL     1      40.116   6.541  19.962  0.00  0.00    +0.000 A 
ATOM     23  C   UNL     1      40.078   5.922  18.746  0.00  0.00    +0.000 A 
ENDBRANCH  17  18
ENDBRANCH   2  17
BRANCH   5  24
ATOM     24  C   UNL     1      35.248   1.683  16.864  0.00  0.00    +0.000 C 
BRANCH  24  25
ATOM     25  C   UNL     1      35.623   0.359  16.252  0.00  0.00    +0.000 C 
BRANCH  25  26
ATOM     26  C   UNL     1      36.408  -0.447  17.196  0.00  0.00    +0.000 A 
ATOM     27  C   UNL     1      37.377  -1.301  16.763  0.00  0.00    +0.000 A 
ATOM     28  C   UNL     1      38.123  -2.057  17.642  0.00  0.00    +0.000 A 
ATOM     29  C   UNL     1      37.879  -1.943  18.990  0.00  0.00    +0.000 A 
ATOM     30  C   UNL     1      36.902  -1.082  19.438  0.00  0.00    +0.000 A 
ATOM     31  C   UNL     1      36.166  -0.334  18.551  0.00  0.00    +0.000 A 
ENDBRANCH  25  26
ENDBRANCH  24  25
ENDBRANCH   5  24
TORSDOF 7
ENDMDL
MODEL 6
REMARK VINA RESULT:      -7.7      1.803      4.317
REMARK  Name = 
REMARK  7 active torsions:
REMARK  status: ('A' for Active; 'I' for Inactive)
REMARK    1  A    between atoms: C_7  and  N_8
REMARK    2  A    between atoms: N_8  and  C_9
REMARK    3  A    between atoms: C_10  and  S_11
REMARK    4  A    between atoms: S_11  and  C_12
REMARK    5  A    between atoms: N_20  and  C_21
REMARK    6  A    between atoms: C_21  and  C_22
REMARK    7  A    between atoms: C_22  and  C_23
REMARK                            x       y       z     vdW  Elec       q    Type
REMARK                         _______ _______ _______ _____ _____    ______ ____
ROOT
ATOM      1  C   UNL     1      36.994   2.041  14.030  0.00  0.00    +0.000 C 
ATOM      2  C   UNL     1      36.690   1.730  15.309  0.00  0.00    +0.000 C 
ATOM      3  C   UNL     1      37.039   2.848  16.162  0.00  0.00    +0.000 C 
ATOM      4  O   UNL     1      36.927   2.980  17.385  0.00  0.00    +0.000 OA
ATOM      5  N   UNL     1      37.585   3.891  15.330  0.00  0.00    +0.000 N 
ATOM      6  C   UNL     1      37.552   3.377  14.009  0.00  0.00    +0.000 C 
ATOM      7  O   UNL     1      37.950   3.998  12.976  0.00  0.00    +0.000 OA
ENDROOT
BRANCH   1   8
ATOM      8  N   UNL     1      36.808   1.221  12.892  0.00  0.00    +0.000 NA
BRANCH   8  15
ATOM      9  C   UNL     1      40.479  -2.085  13.447  0.00  0.00    +0.000 C 
ATOM     10  C   UNL     1      39.701  -1.096  12.655  0.00  0.00    +0.000 A 
ATOM     11  C   UNL     1      40.066  -0.843  11.352  0.00  0.00    +0.000 A 
ATOM     12  C   UNL     1      39.399   0.052  10.562  0.00  0.00    +0.000 A 
ATOM     13  C   UNL     1      38.323   0.741  11.054  0.00  0.00    +0.000 A 
ATOM     14  C   UNL     1      37.549   1.725  10.265  0.00  0.00    +0.000 C 
ATOM     15  C   UNL     1      37.938   0.497  12.376  0.00  0.00    +0.000 A 
ATOM     16  C   UNL     1      38.620  -0.409  13.164  0.00  0.00    +0.000 A 
ENDBRANCH   8  15
ENDBRANCH   1   8
BRANCH   2  17
ATOM     17  S   UNL     1      35.988   0.181  15.738  0.00  0.00    +0.000 S 
BRANCH  17  18
ATOM     18  C   UNL     1      36.917  -0.813  16.842  0.00  0.00    +0.000 A 
ATOM     19  C   UNL     1      36.585  -0.693  18.202  0.00  0.00    +0.000 A 
ATOM     20  C   UNL     1      37.229  -1.409  19.167  0.00  0.00    +0.000 A 
ATOM     21  C   UNL     1      38.236  -2.281  18.831  0.00  0.00    +0.000 A 
ATOM     22  C   UNL     1      38.555  -2.390  17.496  0.00  0.00    +0.000 A 
ATOM     23  C   UNL     1      37.911  -1.675  16.526  0.00  0.00    +0.000 A 
ENDBRANCH  17  18
ENDBRANCH   2  17
BRANCH   5  24
ATOM     24  C   UNL     1      38.061   5.186  15.747  0.00  0.00    +0.000 C 
BRANCH  24  25
ATOM     25  C   UNL     1      39.564   5.198  15.846  0.00  0.00    +0.000 C 
BRANCH  25  26
ATOM     26  C   UNL     1      39.994   5.708  17.154  0.00  0.00    +0.000 A 
ATOM     27  C   UNL     1      39.162   5.684  18.232  0.00  0.00    +0.000 A 
ATOM     28  C   UNL     1      39.560   6.155  19.466  0.00  0.00    +0.000 A 
ATOM     29  C   UNL     1      40.831   6.659  19.607  0.00  0.00    +0.000 A 
ATOM     30  C   UNL     1      41.680   6.687  18.524  0.00  0.00    +0.000 A 
ATOM     31  C   UNL     1      41.271   6.215  17.300  0.00  0.00    +0.000 A 
ENDBRANCH  25  26
ENDBRANCH  24  25
ENDBRANCH   5  24
TORSDOF 7
ENDMDL
MODEL 7
REMARK VINA RESULT:      -7.5      1.831      3.884
REMARK  Name = 
REMARK  7 active torsions:
REMARK  status: ('A' for Active; 'I' for Inactive)
REMARK    1  A    between atoms: C_7  and  N_8
REMARK    2  A    between atoms: N_8  and  C_9
REMARK    3  A    between atoms: C_10  and  S_11
REMARK    4  A    between atoms: S_11  and  C_12
REMARK    5  A    between atoms: N_20  and  C_21
REMARK    6  A    between atoms: C_21  and  C_22
REMARK    7  A    between atoms: C_22  and  C_23
REMARK                            x       y       z     vdW  Elec       q    Type
REMARK                         _______ _______ _______ _____ _____    ______ ____
ROOT
ATOM      1  C   UNL     1      38.355   2.982  13.591  0.00  0.00    +0.000 C 
ATOM      2  C   UNL     1      37.429   2.362  14.353  0.00  0.00    +0.000 C 
ATOM      3  C   UNL     1      37.189   3.151  15.544  0.00  0.00    +0.000 C 
ATOM      4  O   UNL     1      36.426   2.947  16.493  0.00  0.00    +0.000 OA
ATOM      5  N   UNL     1      38.031   4.320  15.480  0.00  0.00    +0.000 N 
ATOM      6  C   UNL     1      38.750   4.202  14.264  0.00  0.00    +0.000 C 
ATOM      7  O   UNL     1      39.604   5.040  13.840  0.00  0.00    +0.000 OA
ENDROOT
BRANCH   1   8
ATOM      8  N   UNL     1      38.866   2.538  12.349  0.00  0.00    +0.000 NA
BRANCH   8  15
ATOM      9  C   UNL     1      42.550  -0.172  14.297  0.00  0.00    +0.000 C 
ATOM     10  C   UNL     1      41.498   0.088  13.279  0.00  0.00    +0.000 A 
ATOM     11  C   UNL     1      41.318  -0.812  12.254  0.00  0.00    +0.000 A 
ATOM     12  C   UNL     1      40.372  -0.640  11.281  0.00  0.00    +0.000 A 
ATOM     13  C   UNL     1      39.556   0.459  11.298  0.00  0.00    +0.000 A 
ATOM     14  C   UNL     1      38.509   0.717  10.285  0.00  0.00    +0.000 C 
ATOM     15  C   UNL     1      39.724   1.385  12.333  0.00  0.00    +0.000 A 
ATOM     16  C   UNL     1      40.684   1.200  13.308  0.00  0.00    +0.000 A 
ENDBRANCH   8  15
ENDBRANCH   1   8
BRANCH   2  17
ATOM     17  S   UNL     1      36.705   0.840  13.865  0.00  0.00    +0.000 S 
BRANCH  17  18
ATOM     18  C   UNL     1      37.628  -0.607  14.219  0.00  0.00    +0.000 A 
ATOM     19  C   UNL     1      38.405  -0.569  15.389  0.00  0.00    +0.000 A 
ATOM     20  C   UNL     1      39.170  -1.626  15.781  0.00  0.00    +0.000 A 
ATOM     21  C   UNL     1      39.204  -2.777  15.031  0.00  0.00    +0.000 A 
ATOM     22  C   UNL     1      38.439  -2.804  13.886  0.00  0.00    +0.000 A 
ATOM     23  C   UNL     1      37.671  -1.747  13.490  0.00  0.00    +0.000 A 
ENDBRANCH  17  18
ENDBRANCH   2  17
BRANCH   5  24
ATOM     24  C   UNL     1      38.124   5.387  16.445  0.00  0.00    +0.000 C 
BRANCH  24  25
ATOM     25  C   UNL     1      38.931   4.959  17.642  0.00  0.00    +0.000 C 
BRANCH  25  26
ATOM     26  C   UNL     1      39.086   6.071  18.589  0.00  0.00    +0.000 A 
ATOM     27  C   UNL     1      38.183   7.091  18.637  0.00  0.00    +0.000 A 
ATOM     28  C   UNL     1      38.317   8.135  19.528  0.00  0.00    +0.000 A 
ATOM     29  C   UNL     1      39.390   8.144  20.387  0.00  0.00    +0.000 A 
ATOM     30  C   UNL     1      40.307   7.118  20.346  0.00  0.00    +0.000 A 
ATOM     31  C   UNL     1      40.162   6.082  19.454  0.00  0.00    +0.000 A 
ENDBRANCH  25  26
ENDBRANCH  24  25
ENDBRANCH   5  24
TORSDOF 7
ENDMDL
MODEL 8
REMARK VINA RESULT:      -7.4      2.806      8.554
REMARK  Name = 
REMARK  7 active torsions:
REMARK  status: ('A' for Active; 'I' for Inactive)
REMARK    1  A    between atoms: C_7  and  N_8
REMARK    2  A    between atoms: N_8  and  C_9
REMARK    3  A    between atoms: C_10  and  S_11
REMARK    4  A    between atoms: S_11  and  C_12
REMARK    5  A    between atoms: N_20  and  C_21
REMARK    6  A    between atoms: C_21  and  C_22
REMARK    7  A    between atoms: C_22  and  C_23
REMARK                            x       y       z     vdW  Elec       q    Type
REMARK                         _______ _______ _______ _____ _____    ______ ____
ROOT
ATOM      1  C   UNL     1      39.022   5.049  16.821  0.00  0.00    +0.000 C 
ATOM      2  C   UNL     1      39.319   5.536  15.597  0.00  0.00    +0.000 C 
ATOM      3  C   UNL     1      38.410   4.963  14.626  0.00  0.00    +0.000 C 
ATOM      4  O   UNL     1      38.335   5.138  13.406  0.00  0.00    +0.000 OA
ATOM      5  N   UNL     1      37.513   4.076  15.325  0.00  0.00    +0.000 N 
ATOM      6  C   UNL     1      37.904   4.138  16.686  0.00  0.00    +0.000 C 
ATOM      7  O   UNL     1      37.354   3.494  17.632  0.00  0.00    +0.000 OA
ENDROOT
BRANCH   1   8
ATOM      8  N   UNL     1      39.675   5.359  18.038  0.00  0.00    +0.000 NA
BRANCH   8  15
ATOM      9  C   UNL     1      36.371   8.979  18.871  0.00  0.00    +0.000 C 
ATOM     10  C   UNL     1      37.612   8.224  19.190  0.00  0.00    +0.000 A 
ATOM     11  C   UNL     1      38.372   8.608  20.271  0.00  0.00    +0.000 A 
ATOM     12  C   UNL     1      39.525   7.963  20.627  0.00  0.00    +0.000 A 
ATOM     13  C   UNL     1      39.968   6.891  19.901  0.00  0.00    +0.000 A 
ATOM     14  C   UNL     1      41.203   6.140  20.219  0.00  0.00    +0.000 C 
ATOM     15  C   UNL     1      39.208   6.485  18.799  0.00  0.00    +0.000 A 
ATOM     16  C   UNL     1      38.046   7.145  18.450  0.00  0.00    +0.000 A 
ENDBRANCH   8  15
ENDBRANCH   1   8
BRANCH   2  17
ATOM     17  S   UNL     1      40.627   6.680  15.354  0.00  0.00    +0.000 S 
BRANCH  17  18
ATOM     18  C   UNL     1      40.450   8.239  16.133  0.00  0.00    +0.000 A 
ATOM     19  C   UNL     1      39.317   8.983  15.764  0.00  0.00    +0.000 A 
ATOM     20  C   UNL     1      39.058  10.212  16.295  0.00  0.00    +0.000 A 
ATOM     21  C   UNL     1      39.912  10.765  17.217  0.00  0.00    +0.000 A 
ATOM     22  C   UNL     1      41.020  10.028  17.572  0.00  0.00    +0.000 A 
ATOM     23  C   UNL     1      41.282   8.797  17.043  0.00  0.00    +0.000 A 
ENDBRANCH  17  18
ENDBRANCH   2  17
BRANCH   5  24
ATOM     24  C   UNL     1      36.441   3.293  14.764  0.00  0.00    +0.000 C 
BRANCH  24  25
ATOM     25  C   UNL     1      36.924   1.919  14.380  0.00  0.00    +0.000 C 
BRANCH  25  26
ATOM     26  C   UNL     1      36.263   0.890  15.194  0.00  0.00    +0.000 A 
ATOM     27  C   UNL     1      36.532  -0.433  15.016  0.00  0.00    +0.000 A 
ATOM     28  C   UNL     1      35.922  -1.406  15.779  0.00  0.00    +0.000 A 
ATOM     29  C   UNL     1      35.019  -1.026  16.743  0.00  0.00    +0.000 A 
ATOM     30  C   UNL     1      34.741   0.309  16.931  0.00  0.00    +0.000 A 
ATOM     31  C   UNL     1      35.356   1.269  16.164  0.00  0.00    +0.000 A 
ENDBRANCH  25  26
ENDBRANCH  24  25
ENDBRANCH   5  24
TORSDOF 7
ENDMDL
MODEL 9
REMARK VINA RESULT:      -7.3      3.228      8.780
REMARK  Name = 
REMARK  7 active torsions:
REMARK  status: ('A' for Active; 'I' for Inactive)
REMARK    1  A    between atoms: C_7  and  N_8
REMARK    2  A    between atoms: N_8  and  C_9
REMARK    3  A    between atoms: C_10  and  S_11
REMARK    4  A    between atoms: S_11  and  C_12
REMARK    5  A    between atoms: N_20  and  C_21
REMARK    6  A    between atoms: C_21  and  C_22
REMARK    7  A    between atoms: C_22  and  C_23
REMARK                            x       y       z     vdW  Elec       q    Type
REMARK                         _______ _______ _______ _____ _____    ______ ____
ROOT
ATOM      1  C   UNL     1      38.062   5.762  16.411  0.00  0.00    +0.000 C 
ATOM      2  C   UNL     1      37.492   5.924  15.198  0.00  0.00    +0.000 C 
ATOM      3  C   UNL     1      37.007   4.643  14.728  0.00  0.00    +0.000 C 
ATOM      4  O   UNL     1      36.428   4.348  13.678  0.00  0.00    +0.000 OA
ATOM      5  N   UNL     1      37.310   3.655  15.734  0.00  0.00    +0.000 N 
ATOM      6  C   UNL     1      37.966   4.363  16.773  0.00  0.00    +0.000 C 
ATOM      7  O   UNL     1      38.396   3.843  17.848  0.00  0.00    +0.000 OA
ENDROOT
BRANCH   1   8
ATOM      8  N   UNL     1      38.656   6.768  17.210  0.00  0.00    +0.000 NA
BRANCH   8  15
ATOM      9  C   UNL     1      43.330   6.591  15.523  0.00  0.00    +0.000 C 
ATOM     10  C   UNL     1      42.320   6.629  16.615  0.00  0.00    +0.000 A 
ATOM     11  C   UNL     1      42.744   6.613  17.923  0.00  0.00    +0.000 A 
ATOM     12  C   UNL     1      41.875   6.645  18.979  0.00  0.00    +0.000 A 
ATOM     13  C   UNL     1      40.525   6.696  18.761  0.00  0.00    +0.000 A 
ATOM     14  C   UNL     1      39.520   6.734  19.847  0.00  0.00    +0.000 C 
ATOM     15  C   UNL     1      40.074   6.714  17.437  0.00  0.00    +0.000 A 
ATOM     16  C   UNL     1      40.962   6.681  16.380  0.00  0.00    +0.000 A 
ENDBRANCH   8  15
ENDBRANCH   1   8
BRANCH   2  17
ATOM     17  S   UNL     1      37.415   7.494  14.419  0.00  0.00    +0.000 S 
BRANCH  17  18
ATOM     18  C   UNL     1      36.170   8.585  14.992  0.00  0.00    +0.000 A 
ATOM     19  C   UNL     1      34.868   8.324  14.534  0.00  0.00    +0.000 A 
ATOM     20  C   UNL     1      33.806   9.095  14.903  0.00  0.00    +0.000 A 
ATOM     21  C   UNL     1      33.982  10.165  15.746  0.00  0.00    +0.000 A 
ATOM     22  C   UNL     1      35.262  10.413  16.189  0.00  0.00    +0.000 A 
ATOM     23  C   UNL     1      36.328   9.642  15.822  0.00  0.00    +0.000 A 
ENDBRANCH  17  18
ENDBRANCH   2  17
BRANCH   5  24
ATOM     24  C   UNL     1      37.009   2.246  15.697  0.00  0.00    +0.000 C 
BRANCH  24  25
ATOM     25  C   UNL     1      35.659   1.970  16.303  0.00  0.00    +0.000 C 
BRANCH  25  26
ATOM     26  C   UNL     1      35.414   0.525  16.390  0.00  0.00    +0.000 A 
ATOM     27  C   UNL     1      34.549   0.007  17.307  0.00  0.00    +0.000 A 
ATOM     28  C   UNL     1      34.308  -1.348  17.392  0.00  0.00    +0.000 A 
ATOM     29  C   UNL     1      34.959  -2.195  16.528  0.00  0.00    +0.000 A 
ATOM     30  C   UNL     1      35.835  -1.682  15.597  0.00  0.00    +0.000 A 
ATOM     31  C   UNL     1      36.066  -0.329  15.523  0.00  0.00    +0.000 A 
ENDBRANCH  25  26
ENDBRANCH  24  25
ENDBRANCH   5  24
TORSDOF 7
ENDMDL
MODEL 10
REMARK VINA RESULT:      -7.2      3.661      7.431
REMARK  Name = 
REMARK  7 active torsions:
REMARK  status: ('A' for Active; 'I' for Inactive)
REMARK    1  A    between atoms: C_7  and  N_8
REMARK    2  A    between atoms: N_8  and  C_9
REMARK    3  A    between atoms: C_10  and  S_11
REMARK    4  A    between atoms: S_11  and  C_12
REMARK    5  A    between atoms: N_20  and  C_21
REMARK    6  A    between atoms: C_21  and  C_22
REMARK    7  A    between atoms: C_22  and  C_23
REMARK                            x       y       z     vdW  Elec       q    Type
REMARK                         _______ _______ _______ _____ _____    ______ ____
ROOT
ATOM      1  C   UNL     1      38.534  -1.543  13.880  0.00  0.00    +0.000 C 
ATOM      2  C   UNL     1      38.646  -2.443  14.881  0.00  0.00    +0.000 C 
ATOM      3  C   UNL     1      40.041  -2.791  15.051  0.00  0.00    +0.000 C 
ATOM      4  O   UNL     1      40.576  -3.569  15.847  0.00  0.00    +0.000 OA
ATOM      5  N   UNL     1      40.807  -2.044  14.084  0.00  0.00    +0.000 N 
ATOM      6  C   UNL     1      39.859  -1.275  13.364  0.00  0.00    +0.000 C 
ATOM      7  O   UNL     1      40.139  -0.477  12.416  0.00  0.00    +0.000 OA
ENDROOT
BRANCH   1   8
ATOM      8  N   UNL     1      37.340  -0.952  13.402  0.00  0.00    +0.000 NA
BRANCH   8  15
ATOM      9  C   UNL     1      36.392   2.549  16.802  0.00  0.00    +0.000 C 
ATOM     10  C   UNL     1      36.604   2.089  15.404  0.00  0.00    +0.000 A 
ATOM     11  C   UNL     1      36.532   3.003  14.378  0.00  0.00    +0.000 A 
ATOM     12  C   UNL     1      36.715   2.655  13.068  0.00  0.00    +0.000 A 
ATOM     13  C   UNL     1      36.982   1.355  12.730  0.00  0.00    +0.000 A 
ATOM     14  C   UNL     1      37.193   0.898  11.338  0.00  0.00    +0.000 C 
ATOM     15  C   UNL     1      37.060   0.412  13.759  0.00  0.00    +0.000 A 
ATOM     16  C   UNL     1      36.872   0.777  15.078  0.00  0.00    +0.000 A 
ENDBRANCH   8  15
ENDBRANCH   1   8
BRANCH   2  17
ATOM     17  S   UNL     1      37.242  -3.020  15.761  0.00  0.00    +0.000 S 
BRANCH  17  18
ATOM     18  C   UNL     1      36.707  -2.032  17.105  0.00  0.00    +0.000 A 
ATOM     19  C   UNL     1      35.364  -1.619  17.066  0.00  0.00    +0.000 A 
ATOM     20  C   UNL     1      34.819  -0.847  18.048  0.00  0.00    +0.000 A 
ATOM     21  C   UNL     1      35.579  -0.444  19.119  0.00  0.00    +0.000 A 
ATOM     22  C   UNL     1      36.894  -0.853  19.147  0.00  0.00    +0.000 A 
ATOM     23  C   UNL     1      37.443  -1.627  18.166  0.00  0.00    +0.000 A 
ENDBRANCH  17  18
ENDBRANCH   2  17
BRANCH   5  24
ATOM     24  C   UNL     1      42.236  -2.069  13.889  0.00  0.00    +0.000 C 
BRANCH  24  25
ATOM     25  C   UNL     1      42.873  -0.819  14.435  0.00  0.00    +0.000 C 
BRANCH  25  26
ATOM     26  C   UNL     1      44.217  -1.104  14.954  0.00  0.00    +0.000 A 
ATOM     27  C   UNL     1      44.877  -2.248  14.619  0.00  0.00    +0.000 A 
ATOM     28  C   UNL     1      46.142  -2.521  15.097  0.00  0.00    +0.000 A 
ATOM     29  C   UNL     1      46.748  -1.613  15.931  0.00  0.00    +0.000 A 
ATOM     30  C   UNL     1      46.090  -0.453  16.274  0.00  0.00    +0.000 A 
ATOM     31  C   UNL     1      44.830  -0.193  15.792  0.00  0.00    +0.000 A 
ENDBRANCH  25  26
ENDBRANCH  24  25
ENDBRANCH   5  24
TORSDOF 7
ENDMDL
