MODEL 1
REMARK VINA RESULT:      -7.4      0.000      0.000
REMARK  Name = 
REMARK  3 active torsions:
REMARK  status: ('A' for Active; 'I' for Inactive)
REMARK    1  A    between atoms: C_2  and  C_3
REMARK    2  A    between atoms: C_3  and  C_4
REMARK    3  A    between atoms: C_8  and  C_10
REMARK                            x       y       z     vdW  Elec       q    Type
REMARK                         _______ _______ _______ _____ _____    ______ ____
ROOT
ATOM      1  C   UNL     1      17.353  10.065  38.489  0.00  0.00    +0.000 A 
ATOM      2  S   UNL     1      16.097  10.673  37.498  0.00  0.00    +0.000 S 
ATOM      3  C   UNL     1      17.004  10.955  36.080  0.00  0.00    +0.000 A 
ATOM      4  N   UNL     1      16.633  11.475  34.788  0.00  0.00    +0.000 NA
ATOM      5  C   UNL     1      15.291  11.846  34.571  0.00  0.00    +0.000 C 
ATOM      6  O   UNL     1      14.478  11.708  35.515  0.00  0.00    +0.000 OA
ATOM      7  N   UNL     1      18.218  10.570  36.438  0.00  0.00    +0.000 NA
ATOM      8  C   UNL     1      18.425  10.120  37.632  0.00  0.00    +0.000 A 
ATOM      9  C   UNL     1      19.796   9.666  38.104  0.00  0.00    +0.000 C 
ENDROOT
BRANCH   5  10
ATOM     10  C   UNL     1      14.816  12.379  33.302  0.00  0.00    +0.000 A 
ATOM     11  C   UNL     1      14.161  13.599  33.224  0.00  0.00    +0.000 A 
ATOM     12  C   UNL     1      13.717  14.091  32.017  0.00  0.00    +0.000 A 
ATOM     13  C   UNL     1      13.912  13.382  30.844  0.00  0.00    +0.000 A 
ATOM     14  C   UNL     1      14.563  12.178  30.945  0.00  0.00    +0.000 A 
ATOM     15  C   UNL     1      15.012  11.672  32.137  0.00  0.00    +0.000 A 
ATOM     16  O   UNL     1      15.672  10.442  32.210  0.00  0.00    +0.000 OA
ENDBRANCH   5  10
BRANCH   1  17
ATOM     17  C   UNL     1      17.333   9.585  39.914  0.00  0.00    +0.000 C 
BRANCH  17  19
ATOM     18  C   UNL     1      15.795   8.461  41.414  0.00  0.00    +0.000 C 
ATOM     19  C   UNL     1      15.910   9.630  40.456  0.00  0.00    +0.000 C 
ENDBRANCH  17  19
ENDBRANCH   1  17
TORSDOF 3
ENDMDL
MODEL 2
REMARK VINA RESULT:      -6.2     19.290     21.451
REMARK  Name = 
REMARK  3 active torsions:
REMARK  status: ('A' for Active; 'I' for Inactive)
REMARK    1  A    between atoms: C_2  and  C_3
REMARK    2  A    between atoms: C_3  and  C_4
REMARK    3  A    between atoms: C_8  and  C_10
REMARK                            x       y       z     vdW  Elec       q    Type
REMARK                         _______ _______ _______ _____ _____    ______ ____
ROOT
ATOM      1  C   UNL     1      33.363  -3.543  33.711  0.00  0.00    +0.000 A 
ATOM      2  S   UNL     1      33.884  -1.948  33.378  0.00  0.00    +0.000 S 
ATOM      3  C   UNL     1      32.914  -1.121  34.512  0.00  0.00    +0.000 A 
ATOM      4  N   UNL     1      32.787   0.280  34.830  0.00  0.00    +0.000 NA
ATOM      5  C   UNL     1      33.575   1.206  34.119  0.00  0.00    +0.000 C 
ATOM      6  O   UNL     1      34.351   0.770  33.237  0.00  0.00    +0.000 OA
ATOM      7  N   UNL     1      32.243  -2.106  35.086  0.00  0.00    +0.000 NA
ATOM      8  C   UNL     1      32.445  -3.327  34.709  0.00  0.00    +0.000 A 
ATOM      9  C   UNL     1      31.704  -4.501  35.326  0.00  0.00    +0.000 C 
ENDROOT
BRANCH   5  10
ATOM     10  C   UNL     1      33.521   2.640  34.367  0.00  0.00    +0.000 A 
ATOM     11  C   UNL     1      33.074   3.530  33.402  0.00  0.00    +0.000 A 
ATOM     12  C   UNL     1      33.029   4.884  33.650  0.00  0.00    +0.000 A 
ATOM     13  C   UNL     1      33.430   5.397  34.872  0.00  0.00    +0.000 A 
ATOM     14  C   UNL     1      33.869   4.498  35.811  0.00  0.00    +0.000 A 
ATOM     15  C   UNL     1      33.920   3.147  35.583  0.00  0.00    +0.000 A 
ATOM     16  O   UNL     1      34.372   2.255  36.558  0.00  0.00    +0.000 OA
ENDBRANCH   5  10
BRANCH   1  17
ATOM     17  C   UNL     1      33.774  -4.857  33.103  0.00  0.00    +0.000 C 
BRANCH  17  19
ATOM     18  C   UNL     1      34.451  -5.659  30.917  0.00  0.00    +0.000 C 
ATOM     19  C   UNL     1      33.352  -4.906  31.641  0.00  0.00    +0.000 C 
ENDBRANCH  17  19
ENDBRANCH   1  17
TORSDOF 3
ENDMDL
MODEL 3
REMARK VINA RESULT:      -5.9      1.682      2.324
REMARK  Name = 
REMARK  3 active torsions:
REMARK  status: ('A' for Active; 'I' for Inactive)
REMARK    1  A    between atoms: C_2  and  C_3
REMARK    2  A    between atoms: C_3  and  C_4
REMARK    3  A    between atoms: C_8  and  C_10
REMARK                            x       y       z     vdW  Elec       q    Type
REMARK                         _______ _______ _______ _____ _____    ______ ____
ROOT
ATOM      1  C   UNL     1      18.840  10.232  39.020  0.00  0.00    +0.000 A 
ATOM      2  S   UNL     1      17.698  10.076  37.755  0.00  0.00    +0.000 S 
ATOM      3  C   UNL     1      17.991  11.559  36.963  0.00  0.00    +0.000 A 
ATOM      4  N   UNL     1      17.401  12.157  35.791  0.00  0.00    +0.000 NA
ATOM      5  C   UNL     1      16.386  11.453  35.114  0.00  0.00    +0.000 C 
ATOM      6  O   UNL     1      16.039  10.336  35.563  0.00  0.00    +0.000 OA
ATOM      7  N   UNL     1      18.945  12.096  37.706  0.00  0.00    +0.000 NA
ATOM      8  C   UNL     1      19.392  11.458  38.739  0.00  0.00    +0.000 A 
ATOM      9  C   UNL     1      20.484  12.021  39.633  0.00  0.00    +0.000 C 
ENDROOT
BRANCH   5  10
ATOM     10  C   UNL     1      15.730  11.970  33.921  0.00  0.00    +0.000 A 
ATOM     11  C   UNL     1      16.166  11.636  32.648  0.00  0.00    +0.000 A 
ATOM     12  C   UNL     1      15.536  12.133  31.529  0.00  0.00    +0.000 A 
ATOM     13  C   UNL     1      14.448  12.981  31.642  0.00  0.00    +0.000 A 
ATOM     14  C   UNL     1      14.034  13.298  32.911  0.00  0.00    +0.000 A 
ATOM     15  C   UNL     1      14.648  12.813  34.037  0.00  0.00    +0.000 A 
ATOM     16  O   UNL     1      14.205  13.153  35.318  0.00  0.00    +0.000 OA
ENDBRANCH   5  10
BRANCH   1  17
ATOM     17  C   UNL     1      19.184   9.302  40.151  0.00  0.00    +0.000 C 
BRANCH  17  19
ATOM     18  C   UNL     1      18.649   6.943  39.981  0.00  0.00    +0.000 C 
ATOM     19  C   UNL     1      18.062   8.291  40.350  0.00  0.00    +0.000 C 
ENDBRANCH  17  19
ENDBRANCH   1  17
TORSDOF 3
ENDMDL
MODEL 4
REMARK VINA RESULT:      -5.7     23.204     25.843
REMARK  Name = 
REMARK  3 active torsions:
REMARK  status: ('A' for Active; 'I' for Inactive)
REMARK    1  A    between atoms: C_2  and  C_3
REMARK    2  A    between atoms: C_3  and  C_4
REMARK    3  A    between atoms: C_8  and  C_10
REMARK                            x       y       z     vdW  Elec       q    Type
REMARK                         _______ _______ _______ _____ _____    ______ ____
ROOT
ATOM      1  C   UNL     1      30.017  28.329  18.313  0.00  0.00    +0.000 A 
ATOM      2  S   UNL     1      29.961  26.794  19.067  0.00  0.00    +0.000 S 
ATOM      3  C   UNL     1      29.551  27.299  20.645  0.00  0.00    +0.000 A 
ATOM      4  N   UNL     1      29.326  26.562  21.863  0.00  0.00    +0.000 NA
ATOM      5  C   UNL     1      29.449  25.159  21.834  0.00  0.00    +0.000 C 
ATOM      6  O   UNL     1      29.751  24.613  20.748  0.00  0.00    +0.000 OA
ATOM      7  N   UNL     1      29.478  28.614  20.513  0.00  0.00    +0.000 NA
ATOM      8  C   UNL     1      29.705  29.158  19.363  0.00  0.00    +0.000 A 
ATOM      9  C   UNL     1      29.640  30.661  19.147  0.00  0.00    +0.000 C 
ENDROOT
BRANCH   5  10
ATOM     10  C   UNL     1      29.240  24.325  23.010  0.00  0.00    +0.000 A 
ATOM     11  C   UNL     1      30.301  23.858  23.770  0.00  0.00    +0.000 A 
ATOM     12  C   UNL     1      30.089  23.071  24.879  0.00  0.00    +0.000 A 
ATOM     13  C   UNL     1      28.808  22.721  25.269  0.00  0.00    +0.000 A 
ATOM     14  C   UNL     1      27.773  23.194  24.503  0.00  0.00    +0.000 A 
ATOM     15  C   UNL     1      27.964  23.980  23.395  0.00  0.00    +0.000 A 
ATOM     16  O   UNL     1      26.890  24.447  22.633  0.00  0.00    +0.000 OA
ENDBRANCH   5  10
BRANCH   1  17
ATOM     17  C   UNL     1      30.319  28.713  16.891  0.00  0.00    +0.000 C 
BRANCH  17  19
ATOM     18  C   UNL     1      29.101  27.214  15.424  0.00  0.00    +0.000 C 
ATOM     19  C   UNL     1      30.466  27.460  16.036  0.00  0.00    +0.000 C 
ENDBRANCH  17  19
ENDBRANCH   1  17
TORSDOF 3
ENDMDL
MODEL 5
REMARK VINA RESULT:      -5.6     22.357     23.437
REMARK  Name = 
REMARK  3 active torsions:
REMARK  status: ('A' for Active; 'I' for Inactive)
REMARK    1  A    between atoms: C_2  and  C_3
REMARK    2  A    between atoms: C_3  and  C_4
REMARK    3  A    between atoms: C_8  and  C_10
REMARK                            x       y       z     vdW  Elec       q    Type
REMARK                         _______ _______ _______ _____ _____    ______ ____
ROOT
ATOM      1  C   UNL     1      19.292  -7.312  26.600  0.00  0.00    +0.000 A 
ATOM      2  S   UNL     1      20.541  -8.279  25.941  0.00  0.00    +0.000 S 
ATOM      3  C   UNL     1      21.371  -7.067  25.073  0.00  0.00    +0.000 A 
ATOM      4  N   UNL     1      22.552  -7.113  24.246  0.00  0.00    +0.000 NA
ATOM      5  C   UNL     1      23.201  -8.350  24.068  0.00  0.00    +0.000 C 
ATOM      6  O   UNL     1      22.721  -9.358  24.636  0.00  0.00    +0.000 OA
ATOM      7  N   UNL     1      20.652  -5.987  25.332  0.00  0.00    +0.000 NA
ATOM      8  C   UNL     1      19.608  -6.076  26.091  0.00  0.00    +0.000 A 
ATOM      9  C   UNL     1      18.739  -4.875  26.423  0.00  0.00    +0.000 C 
ENDROOT
BRANCH   5  10
ATOM     10  C   UNL     1      24.399  -8.500  23.254  0.00  0.00    +0.000 A 
ATOM     11  C   UNL     1      25.614  -7.950  23.637  0.00  0.00    +0.000 A 
ATOM     12  C   UNL     1      26.739  -8.100  22.857  0.00  0.00    +0.000 A 
ATOM     13  C   UNL     1      26.691  -8.803  21.666  0.00  0.00    +0.000 A 
ATOM     14  C   UNL     1      25.479  -9.338  21.306  0.00  0.00    +0.000 A 
ATOM     15  C   UNL     1      24.349  -9.200  22.070  0.00  0.00    +0.000 A 
ATOM     16  O   UNL     1      23.127  -9.755  21.678  0.00  0.00    +0.000 OA
ENDBRANCH   5  10
BRANCH   1  17
ATOM     17  C   UNL     1      18.142  -7.674  27.499  0.00  0.00    +0.000 C 
BRANCH  17  19
ATOM     18  C   UNL     1      16.312  -7.904  25.925  0.00  0.00    +0.000 C 
ATOM     19  C   UNL     1      17.250  -8.699  26.812  0.00  0.00    +0.000 C 
ENDBRANCH  17  19
ENDBRANCH   1  17
TORSDOF 3
ENDMDL
MODEL 6
REMARK VINA RESULT:      -5.6     19.025     21.064
REMARK  Name = 
REMARK  3 active torsions:
REMARK  status: ('A' for Active; 'I' for Inactive)
REMARK    1  A    between atoms: C_2  and  C_3
REMARK    2  A    between atoms: C_3  and  C_4
REMARK    3  A    between atoms: C_8  and  C_10
REMARK                            x       y       z     vdW  Elec       q    Type
REMARK                         _______ _______ _______ _____ _____    ______ ____
ROOT
ATOM      1  C   UNL     1      26.762  23.160  26.054  0.00  0.00    +0.000 A 
ATOM      2  S   UNL     1      28.350  22.576  26.305  0.00  0.00    +0.000 S 
ATOM      3  C   UNL     1      28.621  23.234  27.857  0.00  0.00    +0.000 A 
ATOM      4  N   UNL     1      29.758  23.174  28.743  0.00  0.00    +0.000 NA
ATOM      5  C   UNL     1      30.899  22.460  28.327  0.00  0.00    +0.000 C 
ATOM      6  O   UNL     1      30.876  21.910  27.201  0.00  0.00    +0.000 OA
ATOM      7  N   UNL     1      27.484  23.865  28.101  0.00  0.00    +0.000 NA
ATOM      8  C   UNL     1      26.537  23.847  27.222  0.00  0.00    +0.000 A 
ATOM      9  C   UNL     1      25.210  24.554  27.442  0.00  0.00    +0.000 C 
ENDROOT
BRANCH   5  10
ATOM     10  C   UNL     1      32.095  22.339  29.149  0.00  0.00    +0.000 A 
ATOM     11  C   UNL     1      32.203  21.375  30.139  0.00  0.00    +0.000 A 
ATOM     12  C   UNL     1      33.340  21.273  30.909  0.00  0.00    +0.000 A 
ATOM     13  C   UNL     1      34.410  22.130  30.717  0.00  0.00    +0.000 A 
ATOM     14  C   UNL     1      34.280  23.076  29.732  0.00  0.00    +0.000 A 
ATOM     15  C   UNL     1      33.157  23.193  28.955  0.00  0.00    +0.000 A 
ATOM     16  O   UNL     1      33.053  24.167  27.958  0.00  0.00    +0.000 OA
ENDBRANCH   5  10
BRANCH   1  17
ATOM     17  C   UNL     1      25.827  22.990  24.888  0.00  0.00    +0.000 C 
BRANCH  17  19
ATOM     18  C   UNL     1      26.704  24.862  23.619  0.00  0.00    +0.000 C 
ATOM     19  C   UNL     1      26.542  23.355  23.593  0.00  0.00    +0.000 C 
ENDBRANCH  17  19
ENDBRANCH   1  17
TORSDOF 3
ENDMDL
MODEL 7
REMARK VINA RESULT:      -5.6     23.626     25.532
REMARK  Name = 
REMARK  3 active torsions:
REMARK  status: ('A' for Active; 'I' for Inactive)
REMARK    1  A    between atoms: C_2  and  C_3
REMARK    2  A    between atoms: C_3  and  C_4
REMARK    3  A    between atoms: C_8  and  C_10
REMARK                            x       y       z     vdW  Elec       q    Type
REMARK                         _______ _______ _______ _____ _____    ______ ____
ROOT
ATOM      1  C   UNL     1      28.155  25.179  23.085  0.00  0.00    +0.000 A 
ATOM      2  S   UNL     1      28.129  26.358  21.846  0.00  0.00    +0.000 S 
ATOM      3  C   UNL     1      29.313  25.678  20.821  0.00  0.00    +0.000 A 
ATOM      4  N   UNL     1      29.853  26.109  19.556  0.00  0.00    +0.000 NA
ATOM      5  C   UNL     1      29.370  27.305  18.990  0.00  0.00    +0.000 C 
ATOM      6  O   UNL     1      28.492  27.943  19.614  0.00  0.00    +0.000 OA
ATOM      7  N   UNL     1      29.665  24.585  21.479  0.00  0.00    +0.000 NA
ATOM      8  C   UNL     1      29.106  24.307  22.611  0.00  0.00    +0.000 A 
ATOM      9  C   UNL     1      29.468  23.071  23.416  0.00  0.00    +0.000 C 
ENDROOT
BRANCH   5  10
ATOM     10  C   UNL     1      29.850  27.823  17.716  0.00  0.00    +0.000 A 
ATOM     11  C   UNL     1      29.270  27.452  16.513  0.00  0.00    +0.000 A 
ATOM     12  C   UNL     1      29.734  27.949  15.316  0.00  0.00    +0.000 A 
ATOM     13  C   UNL     1      30.796  28.836  15.279  0.00  0.00    +0.000 A 
ATOM     14  C   UNL     1      31.356  29.190  16.481  0.00  0.00    +0.000 A 
ATOM     15  C   UNL     1      30.907  28.705  17.682  0.00  0.00    +0.000 A 
ATOM     16  O   UNL     1      31.496  29.082  18.892  0.00  0.00    +0.000 OA
ENDBRANCH   5  10
BRANCH   1  17
ATOM     17  C   UNL     1      27.366  25.080  24.362  0.00  0.00    +0.000 C 
BRANCH  17  19
ATOM     18  C   UNL     1      26.034  23.125  24.898  0.00  0.00    +0.000 C 
ATOM     19  C   UNL     1      26.025  24.409  24.092  0.00  0.00    +0.000 C 
ENDBRANCH  17  19
ENDBRANCH   1  17
TORSDOF 3
ENDMDL
MODEL 8
REMARK VINA RESULT:      -5.5      6.630      8.245
REMARK  Name = 
REMARK  3 active torsions:
REMARK  status: ('A' for Active; 'I' for Inactive)
REMARK    1  A    between atoms: C_2  and  C_3
REMARK    2  A    between atoms: C_3  and  C_4
REMARK    3  A    between atoms: C_8  and  C_10
REMARK                            x       y       z     vdW  Elec       q    Type
REMARK                         _______ _______ _______ _____ _____    ______ ____
ROOT
ATOM      1  C   UNL     1      23.070  11.264  38.009  0.00  0.00    +0.000 A 
ATOM      2  S   UNL     1      21.877  11.055  39.217  0.00  0.00    +0.000 S 
ATOM      3  C   UNL     1      20.861   9.964  38.386  0.00  0.00    +0.000 A 
ATOM      4  N   UNL     1      19.625   9.322  38.763  0.00  0.00    +0.000 NA
ATOM      5  C   UNL     1      19.087   9.592  40.036  0.00  0.00    +0.000 C 
ATOM      6  O   UNL     1      19.706  10.382  40.786  0.00  0.00    +0.000 OA
ATOM      7  N   UNL     1      21.486   9.816  37.230  0.00  0.00    +0.000 NA
ATOM      8  C   UNL     1      22.591  10.451  37.011  0.00  0.00    +0.000 A 
ATOM      9  C   UNL     1      23.356  10.326  35.703  0.00  0.00    +0.000 C 
ENDROOT
BRANCH   5  10
ATOM     10  C   UNL     1      17.847   8.993  40.509  0.00  0.00    +0.000 A 
ATOM     11  C   UNL     1      16.677   9.730  40.619  0.00  0.00    +0.000 A 
ATOM     12  C   UNL     1      15.512   9.151  41.069  0.00  0.00    +0.000 A 
ATOM     13  C   UNL     1      15.473   7.814  41.425  0.00  0.00    +0.000 A 
ATOM     14  C   UNL     1      16.641   7.104  41.309  0.00  0.00    +0.000 A 
ATOM     15  C   UNL     1      17.811   7.663  40.863  0.00  0.00    +0.000 A 
ATOM     16  O   UNL     1      18.987   6.916  40.754  0.00  0.00    +0.000 OA
ENDBRANCH   5  10
BRANCH   1  17
ATOM     17  C   UNL     1      24.322  12.098  38.000  0.00  0.00    +0.000 C 
BRANCH  17  19
ATOM     18  C   UNL     1      25.264  14.325  38.182  0.00  0.00    +0.000 C 
ATOM     19  C   UNL     1      23.994  13.528  38.408  0.00  0.00    +0.000 C 
ENDBRANCH  17  19
ENDBRANCH   1  17
TORSDOF 3
ENDMDL
MODEL 9
REMARK VINA RESULT:      -5.5     20.907     22.180
REMARK  Name = 
REMARK  3 active torsions:
REMARK  status: ('A' for Active; 'I' for Inactive)
REMARK    1  A    between atoms: C_2  and  C_3
REMARK    2  A    between atoms: C_3  and  C_4
REMARK    3  A    between atoms: C_8  and  C_10
REMARK                            x       y       z     vdW  Elec       q    Type
REMARK                         _______ _______ _______ _____ _____    ______ ____
ROOT
ATOM      1  C   UNL     1      26.935   4.927  17.142  0.00  0.00    +0.000 A 
ATOM      2  S   UNL     1      25.629   3.993  17.734  0.00  0.00    +0.000 S 
ATOM      3  C   UNL     1      24.625   4.057  16.355  0.00  0.00    +0.000 A 
ATOM      4  N   UNL     1      23.324   3.496  16.085  0.00  0.00    +0.000 NA
ATOM      5  C   UNL     1      22.693   2.742  17.094  0.00  0.00    +0.000 C 
ATOM      6  O   UNL     1      23.292   2.594  18.185  0.00  0.00    +0.000 OA
ATOM      7  N   UNL     1      25.340   4.788  15.515  0.00  0.00    +0.000 NA
ATOM      8  C   UNL     1      26.497   5.237  15.878  0.00  0.00    +0.000 A 
ATOM      9  C   UNL     1      27.364   6.084  14.962  0.00  0.00    +0.000 C 
ENDROOT
BRANCH   5  10
ATOM     10  C   UNL     1      21.382   2.133  16.919  0.00  0.00    +0.000 A 
ATOM     11  C   UNL     1      20.280   2.555  17.646  0.00  0.00    +0.000 A 
ATOM     12  C   UNL     1      19.046   1.971  17.471  0.00  0.00    +0.000 A 
ATOM     13  C   UNL     1      18.869   0.942  16.561  0.00  0.00    +0.000 A 
ATOM     14  C   UNL     1      19.973   0.540  15.853  0.00  0.00    +0.000 A 
ATOM     15  C   UNL     1      21.209   1.111  16.013  0.00  0.00    +0.000 A 
ATOM     16  O   UNL     1      22.317   0.681  15.278  0.00  0.00    +0.000 OA
ENDBRANCH   5  10
BRANCH   1  17
ATOM     17  C   UNL     1      28.231   5.324  17.794  0.00  0.00    +0.000 C 
BRANCH  17  19
ATOM     18  C   UNL     1      27.912   7.328  19.122  0.00  0.00    +0.000 C 
ATOM     19  C   UNL     1      27.970   5.815  19.211  0.00  0.00    +0.000 C 
ENDBRANCH  17  19
ENDBRANCH   1  17
TORSDOF 3
ENDMDL
MODEL 10
REMARK VINA RESULT:      -5.5      1.976      2.978
REMARK  Name = 
REMARK  3 active torsions:
REMARK  status: ('A' for Active; 'I' for Inactive)
REMARK    1  A    between atoms: C_2  and  C_3
REMARK    2  A    between atoms: C_3  and  C_4
REMARK    3  A    between atoms: C_8  and  C_10
REMARK                            x       y       z     vdW  Elec       q    Type
REMARK                         _______ _______ _______ _____ _____    ______ ____
ROOT
ATOM      1  C   UNL     1      18.954   9.215  40.247  0.00  0.00    +0.000 A 
ATOM      2  S   UNL     1      17.702   9.693  39.184  0.00  0.00    +0.000 S 
ATOM      3  C   UNL     1      18.627   9.857  37.758  0.00  0.00    +0.000 A 
ATOM      4  N   UNL     1      18.266  10.239  36.416  0.00  0.00    +0.000 NA
ATOM      5  C   UNL     1      16.920  10.555  36.144  0.00  0.00    +0.000 C 
ATOM      6  O   UNL     1      16.095  10.490  37.085  0.00  0.00    +0.000 OA
ATOM      7  N   UNL     1      19.843   9.537  38.169  0.00  0.00    +0.000 NA
ATOM      8  C   UNL     1      20.040   9.212  39.405  0.00  0.00    +0.000 A 
ATOM      9  C   UNL     1      21.413   8.838  39.940  0.00  0.00    +0.000 C 
ENDROOT
BRANCH   5  10
ATOM     10  C   UNL     1      16.456  10.950  34.822  0.00  0.00    +0.000 A 
ATOM     11  C   UNL     1      16.889  10.304  33.674  0.00  0.00    +0.000 A 
ATOM     12  C   UNL     1      16.442  10.688  32.430  0.00  0.00    +0.000 A 
ATOM     13  C   UNL     1      15.545  11.733  32.288  0.00  0.00    +0.000 A 
ATOM     14  C   UNL     1      15.130  12.358  33.436  0.00  0.00    +0.000 A 
ATOM     15  C   UNL     1      15.564  11.989  34.683  0.00  0.00    +0.000 A 
ATOM     16  O   UNL     1      15.124  12.645  35.837  0.00  0.00    +0.000 OA
ENDBRANCH   5  10
BRANCH   1  17
ATOM     17  C   UNL     1      18.921   8.877  41.713  0.00  0.00    +0.000 C 
BRANCH  17  19
ATOM     18  C   UNL     1      18.265   6.568  41.367  0.00  0.00    +0.000 C 
ATOM     19  C   UNL     1      17.809   7.874  41.987  0.00  0.00    +0.000 C 
ENDBRANCH  17  19
ENDBRANCH   1  17
TORSDOF 3
ENDMDL
