MODEL 1
REMARK VINA RESULT:      -8.4      0.000      0.000
REMARK  Name = 
REMARK  7 active torsions:
REMARK  status: ('A' for Active; 'I' for Inactive)
REMARK    1  A    between atoms: C_2  and  O_3
REMARK    2  A    between atoms: O_3  and  C_4
REMARK    3  A    between atoms: C_7  and  N_8
REMARK    4  A    between atoms: C_11  and  N_12
REMARK    5  A    between atoms: N_12  and  C_13
REMARK    6  A    between atoms: C_20  and  S_21
REMARK    7  A    between atoms: S_21  and  C_22
REMARK                            x       y       z     vdW  Elec       q    Type
REMARK                         _______ _______ _______ _____ _____    ______ ____
ROOT
ATOM      1  N   UNL     1      36.515   1.978  15.133  0.00  0.00    +0.000 N 
ATOM      2  C   UNL     1      35.571   3.019  14.817  0.00  0.00    +0.000 C 
ATOM      3  O   UNL     1      34.335   2.773  14.706  0.00  0.00    +0.000 OA
ATOM      4  C   UNL     1      36.236   4.302  14.661  0.00  0.00    +0.000 C 
ATOM      5  C   UNL     1      37.545   4.041  14.877  0.00  0.00    +0.000 C 
ATOM      6  C   UNL     1      37.761   2.643  15.169  0.00  0.00    +0.000 C 
ATOM      7  O   UNL     1      38.910   2.132  15.412  0.00  0.00    +0.000 OA
ENDROOT
BRANCH   1  11
ATOM      8  C   UNL     1      35.687  -2.132  15.795  0.00  0.00    +0.000 A 
ATOM      9  C   UNL     1      36.397  -1.699  14.700  0.00  0.00    +0.000 A 
ATOM     10  C   UNL     1      36.672  -0.363  14.476  0.00  0.00    +0.000 A 
ATOM     11  C   UNL     1      36.235   0.603  15.361  0.00  0.00    +0.000 A 
ATOM     12  C   UNL     1      35.521   0.173  16.462  0.00  0.00    +0.000 A 
ATOM     13  C   UNL     1      35.249  -1.164  16.680  0.00  0.00    +0.000 A 
BRANCH   8  14
ATOM     14  O   UNL     1      35.446  -3.488  15.954  0.00  0.00    +0.000 OA
BRANCH  14  16
ATOM     15  C   UNL     1      33.464  -4.409  14.909  0.00  0.00    +0.000 C 
ATOM     16  C   UNL     1      34.961  -4.289  14.888  0.00  0.00    +0.000 C 
ENDBRANCH  14  16
ENDBRANCH   8  14
ENDBRANCH   1  11
BRANCH   4  17
ATOM     17  N   UNL     1      35.752   5.591  14.367  0.00  0.00    +0.000 NA
BRANCH  17  18
ATOM     18  C   UNL     1      35.335   6.042  13.118  0.00  0.00    +0.000 A 
ATOM     19  C   UNL     1      34.174   6.853  13.082  0.00  0.00    +0.000 A 
ATOM     20  C   UNL     1      33.736   7.315  11.876  0.00  0.00    +0.000 A 
ATOM     21  C   UNL     1      34.373   7.031  10.685  0.00  0.00    +0.000 A 
ATOM     22  C   UNL     1      35.515   6.235  10.713  0.00  0.00    +0.000 A 
ATOM     23  C   UNL     1      36.210   5.927   9.431  0.00  0.00    +0.000 C 
ATOM     24  C   UNL     1      35.924   5.791  11.921  0.00  0.00    +0.000 A 
ENDBRANCH  17  18
ENDBRANCH   4  17
BRANCH   5  25
ATOM     25  S   UNL     1      38.829   5.290  14.809  0.00  0.00    +0.000 S 
BRANCH  25  26
ATOM     26  C   UNL     1      39.484   5.614  16.430  0.00  0.00    +0.000 A 
ATOM     27  C   UNL     1      38.767   5.332  17.582  0.00  0.00    +0.000 A 
ATOM     28  C   UNL     1      39.293   5.589  18.827  0.00  0.00    +0.000 A 
ATOM     29  C   UNL     1      40.552   6.135  18.962  0.00  0.00    +0.000 A 
ATOM     30  C   UNL     1      41.196   6.445  20.258  0.00  0.00    +0.000 C 
ATOM     31  C   UNL     1      41.252   6.410  17.811  0.00  0.00    +0.000 A 
ATOM     32  C   UNL     1      40.727   6.154  16.564  0.00  0.00    +0.000 A 
ENDBRANCH  25  26
ENDBRANCH   5  25
TORSDOF 7
ENDMDL
MODEL 2
REMARK VINA RESULT:      -8.3      3.612      8.628
REMARK  Name = 
REMARK  7 active torsions:
REMARK  status: ('A' for Active; 'I' for Inactive)
REMARK    1  A    between atoms: C_2  and  O_3
REMARK    2  A    between atoms: O_3  and  C_4
REMARK    3  A    between atoms: C_7  and  N_8
REMARK    4  A    between atoms: C_11  and  N_12
REMARK    5  A    between atoms: N_12  and  C_13
REMARK    6  A    between atoms: C_20  and  S_21
REMARK    7  A    between atoms: S_21  and  C_22
REMARK                            x       y       z     vdW  Elec       q    Type
REMARK                         _______ _______ _______ _____ _____    ______ ____
ROOT
ATOM      1  N   UNL     1      38.196   4.016  16.060  0.00  0.00    +0.000 N 
ATOM      2  C   UNL     1      38.988   3.609  14.928  0.00  0.00    +0.000 C 
ATOM      3  O   UNL     1      40.037   4.237  14.602  0.00  0.00    +0.000 OA
ATOM      4  C   UNL     1      38.417   2.442  14.277  0.00  0.00    +0.000 C 
ATOM      5  C   UNL     1      37.309   2.153  14.998  0.00  0.00    +0.000 C 
ATOM      6  C   UNL     1      37.136   3.081  16.090  0.00  0.00    +0.000 C 
ATOM      7  O   UNL     1      36.167   3.031  16.926  0.00  0.00    +0.000 OA
ENDROOT
BRANCH   1  11
ATOM      8  C   UNL     1      38.933   7.287  18.663  0.00  0.00    +0.000 A 
ATOM      9  C   UNL     1      38.420   7.462  17.400  0.00  0.00    +0.000 A 
ATOM     10  C   UNL     1      38.177   6.403  16.545  0.00  0.00    +0.000 A 
ATOM     11  C   UNL     1      38.444   5.106  16.937  0.00  0.00    +0.000 A 
ATOM     12  C   UNL     1      38.960   4.925  18.205  0.00  0.00    +0.000 A 
ATOM     13  C   UNL     1      39.201   5.987  19.055  0.00  0.00    +0.000 A 
BRANCH   8  14
ATOM     14  O   UNL     1      39.154   8.395  19.465  0.00  0.00    +0.000 OA
BRANCH  14  16
ATOM     15  C   UNL     1      38.537  10.044  21.129  0.00  0.00    +0.000 C 
ATOM     16  C   UNL     1      38.384   8.636  20.632  0.00  0.00    +0.000 C 
ENDBRANCH  14  16
ENDBRANCH   8  14
ENDBRANCH   1  11
BRANCH   4  17
ATOM     17  N   UNL     1      38.823   1.684  13.163  0.00  0.00    +0.000 NA
BRANCH  17  18
ATOM     18  C   UNL     1      39.472   0.454  13.204  0.00  0.00    +0.000 A 
ATOM     19  C   UNL     1      40.259   0.180  14.350  0.00  0.00    +0.000 A 
ATOM     20  C   UNL     1      40.910  -1.016  14.426  0.00  0.00    +0.000 A 
ATOM     21  C   UNL     1      40.836  -1.976  13.437  0.00  0.00    +0.000 A 
ATOM     22  C   UNL     1      40.065  -1.714  12.309  0.00  0.00    +0.000 A 
ATOM     23  C   UNL     1      39.978  -2.748  11.238  0.00  0.00    +0.000 C 
ATOM     24  C   UNL     1      39.433  -0.521  12.260  0.00  0.00    +0.000 A 
ENDBRANCH  17  18
ENDBRANCH   4  17
BRANCH   5  25
ATOM     25  S   UNL     1      36.215   0.783  14.626  0.00  0.00    +0.000 S 
BRANCH  25  26
ATOM     26  C   UNL     1      36.888  -0.748  15.232  0.00  0.00    +0.000 A 
ATOM     27  C   UNL     1      36.885  -1.904  14.468  0.00  0.00    +0.000 A 
ATOM     28  C   UNL     1      37.411  -3.078  14.955  0.00  0.00    +0.000 A 
ATOM     29  C   UNL     1      37.958  -3.135  16.220  0.00  0.00    +0.000 A 
ATOM     30  C   UNL     1      38.545  -4.352  16.824  0.00  0.00    +0.000 C 
ATOM     31  C   UNL     1      37.954  -1.981  16.966  0.00  0.00    +0.000 A 
ATOM     32  C   UNL     1      37.427  -0.804  16.481  0.00  0.00    +0.000 A 
ENDBRANCH  25  26
ENDBRANCH   5  25
TORSDOF 7
ENDMDL
MODEL 3
REMARK VINA RESULT:      -8.1      2.482      5.774
REMARK  Name = 
REMARK  7 active torsions:
REMARK  status: ('A' for Active; 'I' for Inactive)
REMARK    1  A    between atoms: C_2  and  O_3
REMARK    2  A    between atoms: O_3  and  C_4
REMARK    3  A    between atoms: C_7  and  N_8
REMARK    4  A    between atoms: C_11  and  N_12
REMARK    5  A    between atoms: N_12  and  C_13
REMARK    6  A    between atoms: C_20  and  S_21
REMARK    7  A    between atoms: S_21  and  C_22
REMARK                            x       y       z     vdW  Elec       q    Type
REMARK                         _______ _______ _______ _____ _____    ______ ____
ROOT
ATOM      1  N   UNL     1      36.633   3.203  15.789  0.00  0.00    +0.000 N 
ATOM      2  C   UNL     1      37.573   3.950  16.585  0.00  0.00    +0.000 C 
ATOM      3  O   UNL     1      38.111   3.443  17.612  0.00  0.00    +0.000 OA
ATOM      4  C   UNL     1      37.778   5.284  16.045  0.00  0.00    +0.000 C 
ATOM      5  C   UNL     1      36.983   5.338  14.952  0.00  0.00    +0.000 C 
ATOM      6  C   UNL     1      36.271   4.098  14.757  0.00  0.00    +0.000 C 
ATOM      7  O   UNL     1      35.452   3.885  13.794  0.00  0.00    +0.000 OA
ENDROOT
BRANCH   1  11
ATOM      8  C   UNL     1      35.300  -0.773  16.448  0.00  0.00    +0.000 A 
ATOM      9  C   UNL     1      34.686   0.308  17.035  0.00  0.00    +0.000 A 
ATOM     10  C   UNL     1      35.113   1.607  16.826  0.00  0.00    +0.000 A 
ATOM     11  C   UNL     1      36.191   1.870  16.005  0.00  0.00    +0.000 A 
ATOM     12  C   UNL     1      36.812   0.786  15.413  0.00  0.00    +0.000 A 
ATOM     13  C   UNL     1      36.381  -0.509  15.626  0.00  0.00    +0.000 A 
BRANCH   8  14
ATOM     14  O   UNL     1      34.820  -2.047  16.705  0.00  0.00    +0.000 OA
BRANCH  14  16
ATOM     15  C   UNL     1      34.251  -3.857  15.198  0.00  0.00    +0.000 C 
ATOM     16  C   UNL     1      35.316  -3.183  16.015  0.00  0.00    +0.000 C 
ENDBRANCH  14  16
ENDBRANCH   8  14
ENDBRANCH   1  11
BRANCH   4  17
ATOM     17  N   UNL     1      38.589   6.358  16.454  0.00  0.00    +0.000 NA
BRANCH  17  18
ATOM     18  C   UNL     1      38.824   6.750  17.769  0.00  0.00    +0.000 A 
ATOM     19  C   UNL     1      39.857   6.076  18.466  0.00  0.00    +0.000 A 
ATOM     20  C   UNL     1      40.117   6.435  19.757  0.00  0.00    +0.000 A 
ATOM     21  C   UNL     1      39.420   7.427  20.416  0.00  0.00    +0.000 A 
ATOM     22  C   UNL     1      38.404   8.094  19.736  0.00  0.00    +0.000 A 
ATOM     23  C   UNL     1      37.650   9.169  20.442  0.00  0.00    +0.000 C 
ATOM     24  C   UNL     1      38.168   7.717  18.461  0.00  0.00    +0.000 A 
ENDBRANCH  17  18
ENDBRANCH   4  17
BRANCH   5  25
ATOM     25  S   UNL     1      36.853   6.779  13.893  0.00  0.00    +0.000 S 
BRANCH  25  26
ATOM     26  C   UNL     1      35.866   8.043  14.662  0.00  0.00    +0.000 A 
ATOM     27  C   UNL     1      34.490   8.098  14.504  0.00  0.00    +0.000 A 
ATOM     28  C   UNL     1      33.745   9.084  15.109  0.00  0.00    +0.000 A 
ATOM     29  C   UNL     1      34.349  10.046  15.890  0.00  0.00    +0.000 A 
ATOM     30  C   UNL     1      33.628  11.141  16.577  0.00  0.00    +0.000 C 
ATOM     31  C   UNL     1      35.714   9.979  16.038  0.00  0.00    +0.000 A 
ATOM     32  C   UNL     1      36.462   8.993  15.433  0.00  0.00    +0.000 A 
ENDBRANCH  25  26
ENDBRANCH   5  25
TORSDOF 7
ENDMDL
MODEL 4
REMARK VINA RESULT:      -8.0      3.515      8.622
REMARK  Name = 
REMARK  7 active torsions:
REMARK  status: ('A' for Active; 'I' for Inactive)
REMARK    1  A    between atoms: C_2  and  O_3
REMARK    2  A    between atoms: O_3  and  C_4
REMARK    3  A    between atoms: C_7  and  N_8
REMARK    4  A    between atoms: C_11  and  N_12
REMARK    5  A    between atoms: N_12  and  C_13
REMARK    6  A    between atoms: C_20  and  S_21
REMARK    7  A    between atoms: S_21  and  C_22
REMARK                            x       y       z     vdW  Elec       q    Type
REMARK                         _______ _______ _______ _____ _____    ______ ____
ROOT
ATOM      1  N   UNL     1      38.385   4.267  16.185  0.00  0.00    +0.000 N 
ATOM      2  C   UNL     1      37.489   3.144  16.283  0.00  0.00    +0.000 C 
ATOM      3  O   UNL     1      36.748   2.982  17.295  0.00  0.00    +0.000 OA
ATOM      4  C   UNL     1      37.579   2.296  15.106  0.00  0.00    +0.000 C 
ATOM      5  C   UNL     1      38.504   2.894  14.320  0.00  0.00    +0.000 C 
ATOM      6  C   UNL     1      39.020   4.094  14.935  0.00  0.00    +0.000 C 
ATOM      7  O   UNL     1      39.907   4.848  14.401  0.00  0.00    +0.000 OA
ENDROOT
BRANCH   1  11
ATOM      8  C   UNL     1      38.941   7.356  19.044  0.00  0.00    +0.000 A 
ATOM      9  C   UNL     1      39.360   6.067  19.274  0.00  0.00    +0.000 A 
ATOM     10  C   UNL     1      39.184   5.055  18.349  0.00  0.00    +0.000 A 
ATOM     11  C   UNL     1      38.569   5.306  17.138  0.00  0.00    +0.000 A 
ATOM     12  C   UNL     1      38.145   6.600  16.903  0.00  0.00    +0.000 A 
ATOM     13  C   UNL     1      38.324   7.607  17.832  0.00  0.00    +0.000 A 
BRANCH   8  14
ATOM     14  O   UNL     1      39.149   8.320  20.018  0.00  0.00    +0.000 OA
BRANCH  14  16
ATOM     15  C   UNL     1      38.536  10.432  21.035  0.00  0.00    +0.000 C 
ATOM     16  C   UNL     1      38.079   9.088  20.546  0.00  0.00    +0.000 C 
ENDBRANCH  14  16
ENDBRANCH   8  14
ENDBRANCH   1  11
BRANCH   4  17
ATOM     17  N   UNL     1      36.911   1.114  14.736  0.00  0.00    +0.000 NA
BRANCH  17  18
ATOM     18  C   UNL     1      36.943  -0.093  15.428  0.00  0.00    +0.000 A 
ATOM     19  C   UNL     1      35.726  -0.539  16.001  0.00  0.00    +0.000 A 
ATOM     20  C   UNL     1      35.719  -1.719  16.686  0.00  0.00    +0.000 A 
ATOM     21  C   UNL     1      36.844  -2.502  16.845  0.00  0.00    +0.000 A 
ATOM     22  C   UNL     1      38.043  -2.071  16.283  0.00  0.00    +0.000 A 
ATOM     23  C   UNL     1      39.261  -2.915  16.448  0.00  0.00    +0.000 C 
ATOM     24  C   UNL     1      38.020  -0.899  15.613  0.00  0.00    +0.000 A 
ENDBRANCH  17  18
ENDBRANCH   4  17
BRANCH   5  25
ATOM     25  S   UNL     1      39.004   2.257  12.721  0.00  0.00    +0.000 S 
BRANCH  25  26
ATOM     26  C   UNL     1      39.751   0.652  12.883  0.00  0.00    +0.000 A 
ATOM     27  C   UNL     1      39.329  -0.434  12.131  0.00  0.00    +0.000 A 
ATOM     28  C   UNL     1      39.921  -1.668  12.271  0.00  0.00    +0.000 A 
ATOM     29  C   UNL     1      40.953  -1.858  13.165  0.00  0.00    +0.000 A 
ATOM     30  C   UNL     1      41.647  -3.147  13.381  0.00  0.00    +0.000 C 
ATOM     31  C   UNL     1      41.361  -0.773  13.904  0.00  0.00    +0.000 A 
ATOM     32  C   UNL     1      40.769   0.463  13.766  0.00  0.00    +0.000 A 
ENDBRANCH  25  26
ENDBRANCH   5  25
TORSDOF 7
ENDMDL
MODEL 5
REMARK VINA RESULT:      -7.8      2.429      7.322
REMARK  Name = 
REMARK  7 active torsions:
REMARK  status: ('A' for Active; 'I' for Inactive)
REMARK    1  A    between atoms: C_2  and  O_3
REMARK    2  A    between atoms: O_3  and  C_4
REMARK    3  A    between atoms: C_7  and  N_8
REMARK    4  A    between atoms: C_11  and  N_12
REMARK    5  A    between atoms: N_12  and  C_13
REMARK    6  A    between atoms: C_20  and  S_21
REMARK    7  A    between atoms: S_21  and  C_22
REMARK                            x       y       z     vdW  Elec       q    Type
REMARK                         _______ _______ _______ _____ _____    ______ ____
ROOT
ATOM      1  N   UNL     1      38.470   5.259  16.703  0.00  0.00    +0.000 N 
ATOM      2  C   UNL     1      38.181   5.732  15.374  0.00  0.00    +0.000 C 
ATOM      3  O   UNL     1      38.715   6.787  14.922  0.00  0.00    +0.000 OA
ATOM      4  C   UNL     1      37.243   4.854  14.695  0.00  0.00    +0.000 C 
ATOM      5  C   UNL     1      36.974   3.878  15.592  0.00  0.00    +0.000 C 
ATOM      6  C   UNL     1      37.697   4.082  16.824  0.00  0.00    +0.000 C 
ATOM      7  O   UNL     1      37.622   3.301  17.837  0.00  0.00    +0.000 OA
ENDROOT
BRANCH   1  11
ATOM      8  C   UNL     1      41.057   7.033  19.563  0.00  0.00    +0.000 A 
ATOM      9  C   UNL     1      39.713   6.870  19.799  0.00  0.00    +0.000 A 
ATOM     10  C   UNL     1      38.862   6.293  18.874  0.00  0.00    +0.000 A 
ATOM     11  C   UNL     1      39.342   5.851  17.656  0.00  0.00    +0.000 A 
ATOM     12  C   UNL     1      40.692   6.014  17.414  0.00  0.00    +0.000 A 
ATOM     13  C   UNL     1      41.537   6.591  18.342  0.00  0.00    +0.000 A 
BRANCH   8  14
ATOM     14  O   UNL     1      41.850   7.622  20.535  0.00  0.00    +0.000 OA
BRANCH  14  16
ATOM     15  C   UNL     1      43.388   6.041  21.538  0.00  0.00    +0.000 C 
ATOM     16  C   UNL     1      43.215   7.272  20.696  0.00  0.00    +0.000 C 
ENDBRANCH  14  16
ENDBRANCH   8  14
ENDBRANCH   1  11
BRANCH   4  17
ATOM     17  N   UNL     1      36.675   4.887  13.407  0.00  0.00    +0.000 NA
BRANCH  17  18
ATOM     18  C   UNL     1      35.628   5.707  12.997  0.00  0.00    +0.000 A 
ATOM     19  C   UNL     1      34.672   6.070  13.978  0.00  0.00    +0.000 A 
ATOM     20  C   UNL     1      33.633   6.874  13.612  0.00  0.00    +0.000 A 
ATOM     21  C   UNL     1      33.468   7.353  12.329  0.00  0.00    +0.000 A 
ATOM     22  C   UNL     1      34.403   7.001  11.360  0.00  0.00    +0.000 A 
ATOM     23  C   UNL     1      34.233   7.518   9.972  0.00  0.00    +0.000 C 
ATOM     24  C   UNL     1      35.421   6.203  11.750  0.00  0.00    +0.000 A 
ENDBRANCH  17  18
ENDBRANCH   4  17
BRANCH   5  25
ATOM     25  S   UNL     1      35.860   2.512  15.264  0.00  0.00    +0.000 S 
BRANCH  25  26
ATOM     26  C   UNL     1      36.671   0.953  15.536  0.00  0.00    +0.000 A 
ATOM     27  C   UNL     1      36.122  -0.028  16.346  0.00  0.00    +0.000 A 
ATOM     28  C   UNL     1      36.765  -1.229  16.542  0.00  0.00    +0.000 A 
ATOM     29  C   UNL     1      37.976  -1.487  15.936  0.00  0.00    +0.000 A 
ATOM     30  C   UNL     1      38.737  -2.747  16.091  0.00  0.00    +0.000 C 
ATOM     31  C   UNL     1      38.509  -0.505  15.136  0.00  0.00    +0.000 A 
ATOM     32  C   UNL     1      37.867   0.698  14.938  0.00  0.00    +0.000 A 
ENDBRANCH  25  26
ENDBRANCH   5  25
TORSDOF 7
ENDMDL
MODEL 6
REMARK VINA RESULT:      -7.7      2.772      7.631
REMARK  Name = 
REMARK  7 active torsions:
REMARK  status: ('A' for Active; 'I' for Inactive)
REMARK    1  A    between atoms: C_2  and  O_3
REMARK    2  A    between atoms: O_3  and  C_4
REMARK    3  A    between atoms: C_7  and  N_8
REMARK    4  A    between atoms: C_11  and  N_12
REMARK    5  A    between atoms: N_12  and  C_13
REMARK    6  A    between atoms: C_20  and  S_21
REMARK    7  A    between atoms: S_21  and  C_22
REMARK                            x       y       z     vdW  Elec       q    Type
REMARK                         _______ _______ _______ _____ _____    ______ ____
ROOT
ATOM      1  N   UNL     1      38.676   5.944  16.538  0.00  0.00    +0.000 N 
ATOM      2  C   UNL     1      37.974   6.954  15.789  0.00  0.00    +0.000 C 
ATOM      3  O   UNL     1      38.147   8.185  16.025  0.00  0.00    +0.000 OA
ATOM      4  C   UNL     1      37.100   6.358  14.793  0.00  0.00    +0.000 C 
ATOM      5  C   UNL     1      37.272   5.024  14.938  0.00  0.00    +0.000 C 
ATOM      6  C   UNL     1      38.220   4.726  15.985  0.00  0.00    +0.000 C 
ATOM      7  O   UNL     1      38.563   3.540  16.326  0.00  0.00    +0.000 OA
ENDROOT
BRANCH   1  11
ATOM      8  C   UNL     1      41.464   6.553  19.681  0.00  0.00    +0.000 A 
ATOM      9  C   UNL     1      40.116   6.427  19.918  0.00  0.00    +0.000 A 
ATOM     10  C   UNL     1      39.201   6.229  18.901  0.00  0.00    +0.000 A 
ATOM     11  C   UNL     1      39.615   6.147  17.586  0.00  0.00    +0.000 A 
ATOM     12  C   UNL     1      40.969   6.274  17.343  0.00  0.00    +0.000 A 
ATOM     13  C   UNL     1      41.879   6.473  18.364  0.00  0.00    +0.000 A 
BRANCH   8  14
ATOM     14  O   UNL     1      42.324   6.753  20.749  0.00  0.00    +0.000 OA
BRANCH  14  16
ATOM     15  C   UNL     1      44.194   5.510  21.659  0.00  0.00    +0.000 C 
ATOM     16  C   UNL     1      43.717   6.505  20.641  0.00  0.00    +0.000 C 
ENDBRANCH  14  16
ENDBRANCH   8  14
ENDBRANCH   1  11
BRANCH   4  17
ATOM     17  N   UNL     1      36.236   6.917  13.833  0.00  0.00    +0.000 NA
BRANCH  17  18
ATOM     18  C   UNL     1      35.479   8.074  13.991  0.00  0.00    +0.000 A 
ATOM     19  C   UNL     1      35.332   8.907  12.854  0.00  0.00    +0.000 A 
ATOM     20  C   UNL     1      34.595  10.049  12.970  0.00  0.00    +0.000 A 
ATOM     21  C   UNL     1      33.983  10.431  14.146  0.00  0.00    +0.000 A 
ATOM     22  C   UNL     1      34.122   9.618  15.267  0.00  0.00    +0.000 A 
ATOM     23  C   UNL     1      33.460  10.024  16.539  0.00  0.00    +0.000 C 
ATOM     24  C   UNL     1      34.858   8.495  15.123  0.00  0.00    +0.000 A 
ENDBRANCH  17  18
ENDBRANCH   4  17
BRANCH   5  25
ATOM     25  S   UNL     1      36.420   3.802  13.941  0.00  0.00    +0.000 S 
BRANCH  25  26
ATOM     26  C   UNL     1      35.948   2.398  14.925  0.00  0.00    +0.000 A 
ATOM     27  C   UNL     1      36.402   1.118  14.645  0.00  0.00    +0.000 A 
ATOM     28  C   UNL     1      36.026   0.046  15.420  0.00  0.00    +0.000 A 
ATOM     29  C   UNL     1      35.184   0.216  16.499  0.00  0.00    +0.000 A 
ATOM     30  C   UNL     1      34.728  -0.878  17.385  0.00  0.00    +0.000 C 
ATOM     31  C   UNL     1      34.742   1.490  16.765  0.00  0.00    +0.000 A 
ATOM     32  C   UNL     1      35.117   2.565  15.990  0.00  0.00    +0.000 A 
ENDBRANCH  25  26
ENDBRANCH   5  25
TORSDOF 7
ENDMDL
MODEL 7
REMARK VINA RESULT:      -7.7      1.780      2.329
REMARK  Name = 
REMARK  7 active torsions:
REMARK  status: ('A' for Active; 'I' for Inactive)
REMARK    1  A    between atoms: C_2  and  O_3
REMARK    2  A    between atoms: O_3  and  C_4
REMARK    3  A    between atoms: C_7  and  N_8
REMARK    4  A    between atoms: C_11  and  N_12
REMARK    5  A    between atoms: N_12  and  C_13
REMARK    6  A    between atoms: C_20  and  S_21
REMARK    7  A    between atoms: S_21  and  C_22
REMARK                            x       y       z     vdW  Elec       q    Type
REMARK                         _______ _______ _______ _____ _____    ______ ____
ROOT
ATOM      1  N   UNL     1      37.630   2.797  15.019  0.00  0.00    +0.000 N 
ATOM      2  C   UNL     1      37.335   3.544  13.824  0.00  0.00    +0.000 C 
ATOM      3  O   UNL     1      37.065   2.961  12.734  0.00  0.00    +0.000 OA
ATOM      4  C   UNL     1      37.397   4.975  14.070  0.00  0.00    +0.000 C 
ATOM      5  C   UNL     1      37.720   5.086  15.379  0.00  0.00    +0.000 C 
ATOM      6  C   UNL     1      37.870   3.789  15.995  0.00  0.00    +0.000 C 
ATOM      7  O   UNL     1      38.173   3.612  17.227  0.00  0.00    +0.000 OA
ENDROOT
BRANCH   1  11
ATOM      8  C   UNL     1      37.701  -1.425  15.462  0.00  0.00    +0.000 A 
ATOM      9  C   UNL     1      36.636  -0.666  15.886  0.00  0.00    +0.000 A 
ATOM     10  C   UNL     1      36.604   0.709  15.746  0.00  0.00    +0.000 A 
ATOM     11  C   UNL     1      37.659   1.383  15.164  0.00  0.00    +0.000 A 
ATOM     12  C   UNL     1      38.732   0.624  14.737  0.00  0.00    +0.000 A 
ATOM     13  C   UNL     1      38.759  -0.749  14.880  0.00  0.00    +0.000 A 
BRANCH   8  14
ATOM     14  O   UNL     1      37.667  -2.799  15.637  0.00  0.00    +0.000 OA
BRANCH  14  16
ATOM     15  C   UNL     1      38.711  -3.389  17.743  0.00  0.00    +0.000 C 
ATOM     16  C   UNL     1      37.459  -3.383  16.914  0.00  0.00    +0.000 C 
ENDBRANCH  14  16
ENDBRANCH   8  14
ENDBRANCH   1  11
BRANCH   4  17
ATOM     17  N   UNL     1      37.182   6.090  13.239  0.00  0.00    +0.000 NA
BRANCH  17  18
ATOM     18  C   UNL     1      35.972   6.454  12.657  0.00  0.00    +0.000 A 
ATOM     19  C   UNL     1      34.870   6.642  13.528  0.00  0.00    +0.000 A 
ATOM     20  C   UNL     1      33.667   7.001  12.993  0.00  0.00    +0.000 A 
ATOM     21  C   UNL     1      33.473   7.192  11.640  0.00  0.00    +0.000 A 
ATOM     22  C   UNL     1      34.551   7.010  10.779  0.00  0.00    +0.000 A 
ATOM     23  C   UNL     1      34.349   7.219   9.316  0.00  0.00    +0.000 C 
ATOM     24  C   UNL     1      35.728   6.654  11.335  0.00  0.00    +0.000 A 
ENDBRANCH  17  18
ENDBRANCH   4  17
BRANCH   5  25
ATOM     25  S   UNL     1      37.924   6.657  16.219  0.00  0.00    +0.000 S 
BRANCH  25  26
ATOM     26  C   UNL     1      39.203   6.555  17.450  0.00  0.00    +0.000 A 
ATOM     27  C   UNL     1      40.542   6.438  17.111  0.00  0.00    +0.000 A 
ATOM     28  C   UNL     1      41.516   6.362  18.079  0.00  0.00    +0.000 A 
ATOM     29  C   UNL     1      41.185   6.401  19.417  0.00  0.00    +0.000 A 
ATOM     30  C   UNL     1      42.165   6.326  20.524  0.00  0.00    +0.000 C 
ATOM     31  C   UNL     1      39.854   6.518  19.739  0.00  0.00    +0.000 A 
ATOM     32  C   UNL     1      38.877   6.593  18.771  0.00  0.00    +0.000 A 
ENDBRANCH  25  26
ENDBRANCH   5  25
TORSDOF 7
ENDMDL
MODEL 8
REMARK VINA RESULT:      -7.6     26.180     29.101
REMARK  Name = 
REMARK  7 active torsions:
REMARK  status: ('A' for Active; 'I' for Inactive)
REMARK    1  A    between atoms: C_2  and  O_3
REMARK    2  A    between atoms: O_3  and  C_4
REMARK    3  A    between atoms: C_7  and  N_8
REMARK    4  A    between atoms: C_11  and  N_12
REMARK    5  A    between atoms: N_12  and  C_13
REMARK    6  A    between atoms: C_20  and  S_21
REMARK    7  A    between atoms: S_21  and  C_22
REMARK                            x       y       z     vdW  Elec       q    Type
REMARK                         _______ _______ _______ _____ _____    ______ ____
ROOT
ATOM      1  N   UNL     1      26.405  15.176  38.051  0.00  0.00    +0.000 N 
ATOM      2  C   UNL     1      27.721  15.183  38.637  0.00  0.00    +0.000 C 
ATOM      3  O   UNL     1      28.715  15.654  38.013  0.00  0.00    +0.000 OA
ATOM      4  C   UNL     1      27.707  14.600  39.968  0.00  0.00    +0.000 C 
ATOM      5  C   UNL     1      26.417  14.252  40.178  0.00  0.00    +0.000 C 
ATOM      6  C   UNL     1      25.591  14.583  39.042  0.00  0.00    +0.000 C 
ATOM      7  O   UNL     1      24.331  14.359  38.982  0.00  0.00    +0.000 OA
ENDROOT
BRANCH   1  11
ATOM      8  C   UNL     1      25.281  16.654  34.233  0.00  0.00    +0.000 A 
ATOM      9  C   UNL     1      25.105  17.391  35.380  0.00  0.00    +0.000 A 
ATOM     10  C   UNL     1      25.468  16.918  36.628  0.00  0.00    +0.000 A 
ATOM     11  C   UNL     1      26.032  15.665  36.770  0.00  0.00    +0.000 A 
ATOM     12  C   UNL     1      26.210  14.921  35.620  0.00  0.00    +0.000 A 
ATOM     13  C   UNL     1      25.845  15.398  34.376  0.00  0.00    +0.000 A 
BRANCH   8  14
ATOM     14  O   UNL     1      24.891  17.190  33.016  0.00  0.00    +0.000 OA
BRANCH  14  16
ATOM     15  C   UNL     1      24.039  18.874  31.497  0.00  0.00    +0.000 C 
ATOM     16  C   UNL     1      24.353  18.499  32.917  0.00  0.00    +0.000 C 
ENDBRANCH  14  16
ENDBRANCH   8  14
ENDBRANCH   1  11
BRANCH   4  17
ATOM     17  N   UNL     1      28.719  14.397  40.925  0.00  0.00    +0.000 NA
BRANCH  17  18
ATOM     18  C   UNL     1      29.504  13.255  41.052  0.00  0.00    +0.000 A 
ATOM     19  C   UNL     1      29.980  12.664  39.855  0.00  0.00    +0.000 A 
ATOM     20  C   UNL     1      30.754  11.545  39.941  0.00  0.00    +0.000 A 
ATOM     21  C   UNL     1      31.099  10.959  41.142  0.00  0.00    +0.000 A 
ATOM     22  C   UNL     1      30.636  11.535  42.322  0.00  0.00    +0.000 A 
ATOM     23  C   UNL     1      31.008  10.909  43.624  0.00  0.00    +0.000 C 
ATOM     24  C   UNL     1      29.871  12.641  42.207  0.00  0.00    +0.000 A 
ENDBRANCH  17  18
ENDBRANCH   4  17
BRANCH   5  25
ATOM     25  S   UNL     1      25.832  13.481  41.687  0.00  0.00    +0.000 S 
BRANCH  25  26
ATOM     26  C   UNL     1      26.497  11.841  41.860  0.00  0.00    +0.000 A 
ATOM     27  C   UNL     1      26.811  11.056  40.761  0.00  0.00    +0.000 A 
ATOM     28  C   UNL     1      27.326   9.790  40.916  0.00  0.00    +0.000 A 
ATOM     29  C   UNL     1      27.544   9.267  42.173  0.00  0.00    +0.000 A 
ATOM     30  C   UNL     1      28.094   7.918  42.434  0.00  0.00    +0.000 C 
ATOM     31  C   UNL     1      27.229  10.056  43.254  0.00  0.00    +0.000 A 
ATOM     32  C   UNL     1      26.713  11.324  43.100  0.00  0.00    +0.000 A 
ENDBRANCH  25  26
ENDBRANCH   5  25
TORSDOF 7
ENDMDL
MODEL 9
REMARK VINA RESULT:      -7.5      3.400      8.432
REMARK  Name = 
REMARK  7 active torsions:
REMARK  status: ('A' for Active; 'I' for Inactive)
REMARK    1  A    between atoms: C_2  and  O_3
REMARK    2  A    between atoms: O_3  and  C_4
REMARK    3  A    between atoms: C_7  and  N_8
REMARK    4  A    between atoms: C_11  and  N_12
REMARK    5  A    between atoms: N_12  and  C_13
REMARK    6  A    between atoms: C_20  and  S_21
REMARK    7  A    between atoms: S_21  and  C_22
REMARK                            x       y       z     vdW  Elec       q    Type
REMARK                         _______ _______ _______ _____ _____    ______ ____
ROOT
ATOM      1  N   UNL     1      36.245   3.216  14.466  0.00  0.00    +0.000 N 
ATOM      2  C   UNL     1      35.669   2.339  15.453  0.00  0.00    +0.000 C 
ATOM      3  O   UNL     1      34.984   2.794  16.414  0.00  0.00    +0.000 OA
ATOM      4  C   UNL     1      35.987   0.949  15.172  0.00  0.00    +0.000 C 
ATOM      5  C   UNL     1      36.735   0.988  14.046  0.00  0.00    +0.000 C 
ATOM      6  C   UNL     1      36.916   2.343  13.581  0.00  0.00    +0.000 C 
ATOM      7  O   UNL     1      37.584   2.658  12.534  0.00  0.00    +0.000 OA
ENDROOT
BRANCH   1  11
ATOM      8  C   UNL     1      35.959   7.448  14.309  0.00  0.00    +0.000 A 
ATOM      9  C   UNL     1      37.056   6.811  14.838  0.00  0.00    +0.000 A 
ATOM     10  C   UNL     1      37.159   5.434  14.894  0.00  0.00    +0.000 A 
ATOM     11  C   UNL     1      36.143   4.632  14.409  0.00  0.00    +0.000 A 
ATOM     12  C   UNL     1      35.038   5.268  13.877  0.00  0.00    +0.000 A 
ATOM     13  C   UNL     1      34.942   6.645  13.825  0.00  0.00    +0.000 A 
BRANCH   8  14
ATOM     14  O   UNL     1      35.923   8.833  14.288  0.00  0.00    +0.000 OA
BRANCH  14  16
ATOM     15  C   UNL     1      34.339  10.321  13.217  0.00  0.00    +0.000 C 
ATOM     16  C   UNL     1      34.710   9.550  14.451  0.00  0.00    +0.000 C 
ENDBRANCH  14  16
ENDBRANCH   8  14
ENDBRANCH   1  11
BRANCH   4  17
ATOM     17  N   UNL     1      35.652  -0.251  15.826  0.00  0.00    +0.000 NA
BRANCH  17  18
ATOM     18  C   UNL     1      36.318  -0.801  16.917  0.00  0.00    +0.000 A 
ATOM     19  C   UNL     1      35.995  -0.282  18.196  0.00  0.00    +0.000 A 
ATOM     20  C   UNL     1      36.627  -0.798  19.290  0.00  0.00    +0.000 A 
ATOM     21  C   UNL     1      37.568  -1.804  19.209  0.00  0.00    +0.000 A 
ATOM     22  C   UNL     1      37.890  -2.319  17.956  0.00  0.00    +0.000 A 
ATOM     23  C   UNL     1      38.902  -3.409  17.863  0.00  0.00    +0.000 C 
ATOM     24  C   UNL     1      37.250  -1.789  16.892  0.00  0.00    +0.000 A 
ENDBRANCH  17  18
ENDBRANCH   4  17
BRANCH   5  25
ATOM     25  S   UNL     1      37.401  -0.473  13.249  0.00  0.00    +0.000 S 
BRANCH  25  26
ATOM     26  C   UNL     1      39.114  -0.700  13.668  0.00  0.00    +0.000 A 
ATOM     27  C   UNL     1      39.627  -1.940  14.014  0.00  0.00    +0.000 A 
ATOM     28  C   UNL     1      40.956  -2.094  14.334  0.00  0.00    +0.000 A 
ATOM     29  C   UNL     1      41.815  -1.015  14.319  0.00  0.00    +0.000 A 
ATOM     30  C   UNL     1      43.256  -1.088  14.649  0.00  0.00    +0.000 C 
ATOM     31  C   UNL     1      41.292   0.209  13.975  0.00  0.00    +0.000 A 
ATOM     32  C   UNL     1      39.961   0.365  13.655  0.00  0.00    +0.000 A 
ENDBRANCH  25  26
ENDBRANCH   5  25
TORSDOF 7
ENDMDL
MODEL 10
REMARK VINA RESULT:      -7.5      2.593      5.045
REMARK  Name = 
REMARK  7 active torsions:
REMARK  status: ('A' for Active; 'I' for Inactive)
REMARK    1  A    between atoms: C_2  and  O_3
REMARK    2  A    between atoms: O_3  and  C_4
REMARK    3  A    between atoms: C_7  and  N_8
REMARK    4  A    between atoms: C_11  and  N_12
REMARK    5  A    between atoms: N_12  and  C_13
REMARK    6  A    between atoms: C_20  and  S_21
REMARK    7  A    between atoms: S_21  and  C_22
REMARK                            x       y       z     vdW  Elec       q    Type
REMARK                         _______ _______ _______ _____ _____    ______ ____
ROOT
ATOM      1  N   UNL     1      37.022   2.396  15.614  0.00  0.00    +0.000 N 
ATOM      2  C   UNL     1      37.354   3.381  16.611  0.00  0.00    +0.000 C 
ATOM      3  O   UNL     1      37.261   3.122  17.846  0.00  0.00    +0.000 OA
ATOM      4  C   UNL     1      37.781   4.627  15.997  0.00  0.00    +0.000 C 
ATOM      5  C   UNL     1      37.709   4.398  14.666  0.00  0.00    +0.000 C 
ATOM      6  C   UNL     1      37.253   3.057  14.387  0.00  0.00    +0.000 C 
ATOM      7  O   UNL     1      37.098   2.584  13.207  0.00  0.00    +0.000 OA
ENDROOT
BRANCH   1  11
ATOM      8  C   UNL     1      35.696  -1.584  16.264  0.00  0.00    +0.000 A 
ATOM      9  C   UNL     1      36.900  -1.307  15.663  0.00  0.00    +0.000 A 
ATOM     10  C   UNL     1      37.341  -0.014  15.447  0.00  0.00    +0.000 A 
ATOM     11  C   UNL     1      36.572   1.066  15.836  0.00  0.00    +0.000 A 
ATOM     12  C   UNL     1      35.360   0.792  16.440  0.00  0.00    +0.000 A 
ATOM     13  C   UNL     1      34.926  -0.502  16.652  0.00  0.00    +0.000 A 
BRANCH   8  14
ATOM     14  O   UNL     1      35.317  -2.905  16.446  0.00  0.00    +0.000 OA
BRANCH  14  16
ATOM     15  C   UNL     1      35.470  -4.782  14.922  0.00  0.00    +0.000 C 
ATOM     16  C   UNL     1      34.647  -3.634  15.431  0.00  0.00    +0.000 C 
ENDBRANCH  14  16
ENDBRANCH   8  14
ENDBRANCH   1  11
BRANCH   4  17
ATOM     17  N   UNL     1      38.207   5.854  16.540  0.00  0.00    +0.000 NA
BRANCH  17  18
ATOM     18  C   UNL     1      39.317   6.043  17.358  0.00  0.00    +0.000 A 
ATOM     19  C   UNL     1      39.102   5.989  18.758  0.00  0.00    +0.000 A 
ATOM     20  C   UNL     1      40.167   6.169  19.591  0.00  0.00    +0.000 A 
ATOM     21  C   UNL     1      41.448   6.401  19.134  0.00  0.00    +0.000 A 
ATOM     22  C   UNL     1      41.667   6.454  17.760  0.00  0.00    +0.000 A 
ATOM     23  C   UNL     1      43.050   6.701  17.260  0.00  0.00    +0.000 C 
ATOM     24  C   UNL     1      40.595   6.274  16.960  0.00  0.00    +0.000 A 
ENDBRANCH  17  18
ENDBRANCH   4  17
BRANCH   5  25
ATOM     25  S   UNL     1      38.134   5.621  13.427  0.00  0.00    +0.000 S 
BRANCH  25  26
ATOM     26  C   UNL     1      39.880   5.959  13.443  0.00  0.00    +0.000 A 
ATOM     27  C   UNL     1      40.379   7.250  13.375  0.00  0.00    +0.000 A 
ATOM     28  C   UNL     1      41.733   7.490  13.389  0.00  0.00    +0.000 A 
ATOM     29  C   UNL     1      42.633   6.448  13.473  0.00  0.00    +0.000 A 
ATOM     30  C   UNL     1      44.104   6.613  13.495  0.00  0.00    +0.000 C 
ATOM     31  C   UNL     1      42.124   5.173  13.540  0.00  0.00    +0.000 A 
ATOM     32  C   UNL     1      40.768   4.931  13.524  0.00  0.00    +0.000 A 
ENDBRANCH  25  26
ENDBRANCH   5  25
TORSDOF 7
ENDMDL
