MODEL 1
REMARK VINA RESULT:      -5.5      0.000      0.000
REMARK  Name = 
REMARK  4 active torsions:
REMARK  status: ('A' for Active; 'I' for Inactive)
REMARK    1  A    between atoms: C_2  and  O_3
REMARK    2  A    between atoms: O_3  and  C_4
REMARK    3  A    between atoms: C_4  and  C_6
REMARK    4  A    between atoms: C_9  and  C_10
REMARK                            x       y       z     vdW  Elec       q    Type
REMARK                         _______ _______ _______ _____ _____    ______ ____
ROOT
ATOM      1  C   UNL     1      27.752  25.240  23.780  0.00  0.00    +0.000 C 
ATOM      2  C   UNL     1      27.138  25.555  24.830  0.00  0.00    +0.000 C 
ATOM      3  C   UNL     1      27.679  26.611  25.739  0.00  0.00    +0.000 C 
ATOM      4  C   UNL     1      25.799  24.987  25.393  0.00  0.00    +0.000 C 
ATOM      5  N   UNL     1      25.393  23.943  24.368  0.00  0.00    +0.000 NA
ATOM      6  C   UNL     1      26.063  23.606  23.230  0.00  0.00    +0.000 C 
ATOM      7  O   UNL     1      25.598  22.715  22.473  0.00  0.00    +0.000 OA
ATOM      8  N   UNL     1      27.270  24.248  22.900  0.00  0.00    +0.000 N 
ATOM      9  C   UNL     1      27.970  23.877  21.687  0.00  0.00    +0.000 C 
ENDROOT
BRANCH   4  10
ATOM     10  C   UNL     1      26.483  23.958  26.424  0.00  0.00    +0.000 A 
ATOM     11  C   UNL     1      27.347  23.037  25.969  0.00  0.00    +0.000 A 
ATOM     12  C   UNL     1      27.936  22.150  26.834  0.00  0.00    +0.000 A 
ATOM     13  C   UNL     1      27.623  22.225  28.170  0.00  0.00    +0.000 A 
ATOM     14  C   UNL     1      26.731  23.179  28.614  0.00  0.00    +0.000 A 
ATOM     15  C   UNL     1      26.149  24.064  27.728  0.00  0.00    +0.000 A 
ATOM     16 CL   UNL     1      25.015  25.297  28.222  0.00  0.00    +0.000 Cl
ENDBRANCH   4  10
BRANCH   1  17
ATOM     17  C   UNL     1      29.001  25.938  23.484  0.00  0.00    +0.000 C 
ATOM     18  O   UNL     1      29.042  27.116  23.046  0.00  0.00    +0.000 OA
BRANCH  17  19
ATOM     19  O   UNL     1      30.202  25.286  23.692  0.00  0.00    +0.000 OA
BRANCH  19  21
ATOM     20  C   UNL     1      30.779  23.145  24.438  0.00  0.00    +0.000 C 
ATOM     21  C   UNL     1      30.530  24.583  24.873  0.00  0.00    +0.000 C 
ENDBRANCH  19  21
ENDBRANCH  17  19
ENDBRANCH   1  17
TORSDOF 4
ENDMDL
MODEL 2
REMARK VINA RESULT:      -5.4      2.478      3.398
REMARK  Name = 
REMARK  4 active torsions:
REMARK  status: ('A' for Active; 'I' for Inactive)
REMARK    1  A    between atoms: C_2  and  O_3
REMARK    2  A    between atoms: O_3  and  C_4
REMARK    3  A    between atoms: C_4  and  C_6
REMARK    4  A    between atoms: C_9  and  C_10
REMARK                            x       y       z     vdW  Elec       q    Type
REMARK                         _______ _______ _______ _____ _____    ______ ____
ROOT
ATOM      1  C   UNL     1      28.061  26.166  23.209  0.00  0.00    +0.000 C 
ATOM      2  C   UNL     1      27.627  25.143  23.798  0.00  0.00    +0.000 C 
ATOM      3  C   UNL     1      26.847  25.268  25.066  0.00  0.00    +0.000 C 
ATOM      4  C   UNL     1      27.777  23.643  23.398  0.00  0.00    +0.000 C 
ATOM      5  N   UNL     1      28.582  23.693  22.111  0.00  0.00    +0.000 NA
ATOM      6  C   UNL     1      29.048  24.805  21.477  0.00  0.00    +0.000 C 
ATOM      7  O   UNL     1      29.705  24.687  20.410  0.00  0.00    +0.000 OA
ATOM      8  N   UNL     1      28.800  26.083  22.011  0.00  0.00    +0.000 N 
ATOM      9  C   UNL     1      29.305  27.255  21.326  0.00  0.00    +0.000 C 
ENDROOT
BRANCH   4  10
ATOM     10  C   UNL     1      29.025  23.342  24.369  0.00  0.00    +0.000 A 
ATOM     11  C   UNL     1      30.262  23.700  23.992  0.00  0.00    +0.000 A 
ATOM     12  C   UNL     1      31.337  23.448  24.807  0.00  0.00    +0.000 A 
ATOM     13  C   UNL     1      31.119  22.823  26.010  0.00  0.00    +0.000 A 
ATOM     14  C   UNL     1      29.838  22.464  26.377  0.00  0.00    +0.000 A 
ATOM     15  C   UNL     1      28.768  22.727  25.543  0.00  0.00    +0.000 A 
ATOM     16 CL   UNL     1      27.123  22.301  25.945  0.00  0.00    +0.000 Cl
ENDBRANCH   4  10
BRANCH   1  17
ATOM     17  C   UNL     1      27.775  27.468  23.806  0.00  0.00    +0.000 C 
ATOM     18  O   UNL     1      26.825  28.202  23.429  0.00  0.00    +0.000 OA
BRANCH  17  19
ATOM     19  O   UNL     1      28.576  27.928  24.834  0.00  0.00    +0.000 OA
BRANCH  19  21
ATOM     20  C   UNL     1      30.162  26.798  26.130  0.00  0.00    +0.000 C 
ATOM     21  C   UNL     1      29.968  27.700  24.918  0.00  0.00    +0.000 C 
ENDBRANCH  19  21
ENDBRANCH  17  19
ENDBRANCH   1  17
TORSDOF 4
ENDMDL
MODEL 3
REMARK VINA RESULT:      -5.4      3.061      5.081
REMARK  Name = 
REMARK  4 active torsions:
REMARK  status: ('A' for Active; 'I' for Inactive)
REMARK    1  A    between atoms: C_2  and  O_3
REMARK    2  A    between atoms: O_3  and  C_4
REMARK    3  A    between atoms: C_4  and  C_6
REMARK    4  A    between atoms: C_9  and  C_10
REMARK                            x       y       z     vdW  Elec       q    Type
REMARK                         _______ _______ _______ _____ _____    ______ ____
ROOT
ATOM      1  C   UNL     1      28.132  23.785  24.301  0.00  0.00    +0.000 C 
ATOM      2  C   UNL     1      28.852  24.237  23.375  0.00  0.00    +0.000 C 
ATOM      3  C   UNL     1      30.219  24.767  23.666  0.00  0.00    +0.000 C 
ATOM      4  C   UNL     1      28.538  24.349  21.852  0.00  0.00    +0.000 C 
ATOM      5  N   UNL     1      27.136  23.779  21.731  0.00  0.00    +0.000 NA
ATOM      6  C   UNL     1      26.360  23.289  22.738  0.00  0.00    +0.000 C 
ATOM      7  O   UNL     1      25.210  22.847  22.481  0.00  0.00    +0.000 OA
ATOM      8  N   UNL     1      26.837  23.278  24.061  0.00  0.00    +0.000 N 
ATOM      9  C   UNL     1      25.999  22.756  25.121  0.00  0.00    +0.000 C 
ENDROOT
BRANCH   4  10
ATOM     10  C   UNL     1      28.092  25.895  21.894  0.00  0.00    +0.000 A 
ATOM     11  C   UNL     1      27.205  26.306  22.814  0.00  0.00    +0.000 A 
ATOM     12  C   UNL     1      26.812  27.620  22.860  0.00  0.00    +0.000 A 
ATOM     13  C   UNL     1      27.342  28.499  21.949  0.00  0.00    +0.000 A 
ATOM     14  C   UNL     1      28.252  28.054  21.013  0.00  0.00    +0.000 A 
ATOM     15  C   UNL     1      28.637  26.728  20.981  0.00  0.00    +0.000 A 
ATOM     16 CL   UNL     1      29.784  26.098  19.825  0.00  0.00    +0.000 Cl
ENDBRANCH   4  10
BRANCH   1  17
ATOM     17  C   UNL     1      28.676  23.797  25.657  0.00  0.00    +0.000 C 
ATOM     18  O   UNL     1      28.628  24.806  26.406  0.00  0.00    +0.000 OA
BRANCH  17  19
ATOM     19  O   UNL     1      29.274  22.653  26.153  0.00  0.00    +0.000 OA
BRANCH  19  21
ATOM     20  C   UNL     1      30.836  22.404  27.876  0.00  0.00    +0.000 C 
ATOM     21  C   UNL     1      30.663  22.514  26.367  0.00  0.00    +0.000 C 
ENDBRANCH  19  21
ENDBRANCH  17  19
ENDBRANCH   1  17
TORSDOF 4
ENDMDL
MODEL 4
REMARK VINA RESULT:      -5.4     19.832     22.081
REMARK  Name = 
REMARK  4 active torsions:
REMARK  status: ('A' for Active; 'I' for Inactive)
REMARK    1  A    between atoms: C_2  and  O_3
REMARK    2  A    between atoms: O_3  and  C_4
REMARK    3  A    between atoms: C_4  and  C_6
REMARK    4  A    between atoms: C_9  and  C_10
REMARK                            x       y       z     vdW  Elec       q    Type
REMARK                         _______ _______ _______ _____ _____    ______ ____
ROOT
ATOM      1  C   UNL     1      19.760   9.433  39.485  0.00  0.00    +0.000 C 
ATOM      2  C   UNL     1      18.774  10.171  39.233  0.00  0.00    +0.000 C 
ATOM      3  C   UNL     1      17.421   9.844  39.779  0.00  0.00    +0.000 C 
ATOM      4  C   UNL     1      18.715  11.475  38.380  0.00  0.00    +0.000 C 
ATOM      5  N   UNL     1      20.146  11.660  37.908  0.00  0.00    +0.000 NA
ATOM      6  C   UNL     1      21.212  10.857  38.185  0.00  0.00    +0.000 C 
ATOM      7  O   UNL     1      22.346  11.142  37.718  0.00  0.00    +0.000 OA
ATOM      8  N   UNL     1      21.049   9.713  38.985  0.00  0.00    +0.000 N 
ATOM      9  C   UNL     1      22.192   8.868  39.268  0.00  0.00    +0.000 C 
ENDROOT
BRANCH   4  10
ATOM     10  C   UNL     1      18.181  10.765  37.038  0.00  0.00    +0.000 A 
ATOM     11  C   UNL     1      18.757   9.628  36.615  0.00  0.00    +0.000 A 
ATOM     12  C   UNL     1      18.316   9.012  35.471  0.00  0.00    +0.000 A 
ATOM     13  C   UNL     1      17.280   9.581  34.772  0.00  0.00    +0.000 A 
ATOM     14  C   UNL     1      16.705  10.750  35.227  0.00  0.00    +0.000 A 
ATOM     15  C   UNL     1      17.162  11.355  36.381  0.00  0.00    +0.000 A 
ATOM     16 CL   UNL     1      16.479  12.834  37.013  0.00  0.00    +0.000 Cl
ENDBRANCH   4  10
BRANCH   1  17
ATOM     17  C   UNL     1      19.536   8.257  40.322  0.00  0.00    +0.000 C 
ATOM     18  O   UNL     1      19.821   8.222  41.546  0.00  0.00    +0.000 OA
BRANCH  17  19
ATOM     19  O   UNL     1      18.987   7.122  39.755  0.00  0.00    +0.000 OA
BRANCH  19  21
ATOM     20  C   UNL     1      17.234   6.228  41.021  0.00  0.00    +0.000 C 
ATOM     21  C   UNL     1      18.634   5.963  40.483  0.00  0.00    +0.000 C 
ENDBRANCH  19  21
ENDBRANCH  17  19
ENDBRANCH   1  17
TORSDOF 4
ENDMDL
MODEL 5
REMARK VINA RESULT:      -5.3     32.942     34.893
REMARK  Name = 
REMARK  4 active torsions:
REMARK  status: ('A' for Active; 'I' for Inactive)
REMARK    1  A    between atoms: C_2  and  O_3
REMARK    2  A    between atoms: O_3  and  C_4
REMARK    3  A    between atoms: C_4  and  C_6
REMARK    4  A    between atoms: C_9  and  C_10
REMARK                            x       y       z     vdW  Elec       q    Type
REMARK                         _______ _______ _______ _____ _____    ______ ____
ROOT
ATOM      1  C   UNL     1      17.814 -10.016  27.422  0.00  0.00    +0.000 C 
ATOM      2  C   UNL     1      18.916  -9.572  27.013  0.00  0.00    +0.000 C 
ATOM      3  C   UNL     1      20.101  -9.522  27.922  0.00  0.00    +0.000 C 
ATOM      4  C   UNL     1      19.289  -9.019  25.603  0.00  0.00    +0.000 C 
ATOM      5  N   UNL     1      17.995  -9.137  24.816  0.00  0.00    +0.000 NA
ATOM      6  C   UNL     1      16.803  -9.621  25.266  0.00  0.00    +0.000 C 
ATOM      7  O   UNL     1      15.812  -9.657  24.491  0.00  0.00    +0.000 OA
ATOM      8  N   UNL     1      16.676 -10.077  26.590  0.00  0.00    +0.000 N 
ATOM      9  C   UNL     1      15.401 -10.587  27.053  0.00  0.00    +0.000 C 
ENDROOT
BRANCH   4  10
ATOM     10  C   UNL     1      19.113  -7.466  25.989  0.00  0.00    +0.000 A 
ATOM     11  C   UNL     1      17.996  -7.058  26.611  0.00  0.00    +0.000 A 
ATOM     12  C   UNL     1      17.830  -5.737  26.944  0.00  0.00    +0.000 A 
ATOM     13  C   UNL     1      18.826  -4.847  26.626  0.00  0.00    +0.000 A 
ATOM     14  C   UNL     1      19.965  -5.290  25.986  0.00  0.00    +0.000 A 
ATOM     15  C   UNL     1      20.115  -6.623  25.660  0.00  0.00    +0.000 A 
ATOM     16 CL   UNL     1      21.531  -7.251  24.851  0.00  0.00    +0.000 Cl
ENDBRANCH   4  10
BRANCH   1  17
ATOM     17  C   UNL     1      17.736 -10.477  28.807  0.00  0.00    +0.000 C 
ATOM     18  O   UNL     1      17.415  -9.726  29.763  0.00  0.00    +0.000 OA
BRANCH  17  19
ATOM     19  O   UNL     1      18.027 -11.798  29.094  0.00  0.00    +0.000 OA
BRANCH  19  21
ATOM     20  C   UNL     1      19.901 -12.247  30.419  0.00  0.00    +0.000 C 
ATOM     21  C   UNL     1      18.379 -12.271  30.377  0.00  0.00    +0.000 C 
ENDBRANCH  19  21
ENDBRANCH  17  19
ENDBRANCH   1  17
TORSDOF 4
ENDMDL
MODEL 6
REMARK VINA RESULT:      -5.2     19.124     21.183
REMARK  Name = 
REMARK  4 active torsions:
REMARK  status: ('A' for Active; 'I' for Inactive)
REMARK    1  A    between atoms: C_2  and  O_3
REMARK    2  A    between atoms: O_3  and  C_4
REMARK    3  A    between atoms: C_4  and  C_6
REMARK    4  A    between atoms: C_9  and  C_10
REMARK                            x       y       z     vdW  Elec       q    Type
REMARK                         _______ _______ _______ _____ _____    ______ ____
ROOT
ATOM      1  C   UNL     1      19.073   9.914  38.920  0.00  0.00    +0.000 C 
ATOM      2  C   UNL     1      19.764  10.963  38.862  0.00  0.00    +0.000 C 
ATOM      3  C   UNL     1      19.293  12.141  38.073  0.00  0.00    +0.000 C 
ATOM      4  C   UNL     1      21.141  11.269  39.527  0.00  0.00    +0.000 C 
ATOM      5  N   UNL     1      21.471   9.990  40.276  0.00  0.00    +0.000 NA
ATOM      6  C   UNL     1      20.716   8.856  40.336  0.00  0.00    +0.000 C 
ATOM      7  O   UNL     1      21.124   7.870  41.003  0.00  0.00    +0.000 OA
ATOM      8  N   UNL     1      19.488   8.784  39.656  0.00  0.00    +0.000 N 
ATOM      9  C   UNL     1      18.698   7.572  39.728  0.00  0.00    +0.000 C 
ENDROOT
BRANCH   4  10
ATOM     10  C   UNL     1      22.025  10.936  38.223  0.00  0.00    +0.000 A 
ATOM     11  C   UNL     1      21.631   9.967  37.383  0.00  0.00    +0.000 A 
ATOM     12  C   UNL     1      22.375   9.669  36.269  0.00  0.00    +0.000 A 
ATOM     13  C   UNL     1      23.526  10.380  36.036  0.00  0.00    +0.000 A 
ATOM     14  C   UNL     1      23.912  11.372  36.914  0.00  0.00    +0.000 A 
ATOM     15  C   UNL     1      23.149  11.658  38.030  0.00  0.00    +0.000 A 
ATOM     16 CL   UNL     1      23.578  12.899  39.181  0.00  0.00    +0.000 Cl
ENDBRANCH   4  10
BRANCH   1  17
ATOM     17  C   UNL     1      17.804   9.893  38.195  0.00  0.00    +0.000 C 
ATOM     18  O   UNL     1      16.712  10.238  38.713  0.00  0.00    +0.000 OA
BRANCH  17  19
ATOM     19  O   UNL     1      17.789   9.475  36.877  0.00  0.00    +0.000 OA
BRANCH  19  21
ATOM     20  C   UNL     1      17.857   9.914  34.580  0.00  0.00    +0.000 C 
ATOM     21  C   UNL     1      17.044  10.103  35.855  0.00  0.00    +0.000 C 
ENDBRANCH  19  21
ENDBRANCH  17  19
ENDBRANCH   1  17
TORSDOF 4
ENDMDL
MODEL 7
REMARK VINA RESULT:      -5.2      3.108      5.394
REMARK  Name = 
REMARK  4 active torsions:
REMARK  status: ('A' for Active; 'I' for Inactive)
REMARK    1  A    between atoms: C_2  and  O_3
REMARK    2  A    between atoms: O_3  and  C_4
REMARK    3  A    between atoms: C_4  and  C_6
REMARK    4  A    between atoms: C_9  and  C_10
REMARK                            x       y       z     vdW  Elec       q    Type
REMARK                         _______ _______ _______ _____ _____    ______ ____
ROOT
ATOM      1  C   UNL     1      28.592  22.946  25.717  0.00  0.00    +0.000 C 
ATOM      2  C   UNL     1      29.843  23.058  25.672  0.00  0.00    +0.000 C 
ATOM      3  C   UNL     1      30.664  22.920  26.913  0.00  0.00    +0.000 C 
ATOM      4  C   UNL     1      30.761  23.337  24.442  0.00  0.00    +0.000 C 
ATOM      5  N   UNL     1      29.785  23.449  23.284  0.00  0.00    +0.000 NA
ATOM      6  C   UNL     1      28.429  23.327  23.339  0.00  0.00    +0.000 C 
ATOM      7  O   UNL     1      27.748  23.446  22.287  0.00  0.00    +0.000 OA
ATOM      8  N   UNL     1      27.788  23.071  24.565  0.00  0.00    +0.000 N 
ATOM      9  C   UNL     1      26.345  22.945  24.606  0.00  0.00    +0.000 C 
ENDROOT
BRANCH   4  10
ATOM     10  C   UNL     1      30.901  24.919  24.703  0.00  0.00    +0.000 A 
ATOM     11  C   UNL     1      29.812  25.702  24.636  0.00  0.00    +0.000 A 
ATOM     12  C   UNL     1      29.915  27.053  24.852  0.00  0.00    +0.000 A 
ATOM     13  C   UNL     1      31.150  27.583  25.136  0.00  0.00    +0.000 A 
ATOM     14  C   UNL     1      32.254  26.759  25.200  0.00  0.00    +0.000 A 
ATOM     15  C   UNL     1      32.131  25.401  24.980  0.00  0.00    +0.000 A 
ATOM     16 CL   UNL     1      33.486  24.300  25.046  0.00  0.00    +0.000 Cl
ENDBRANCH   4  10
BRANCH   1  17
ATOM     17  C   UNL     1      27.977  22.680  27.016  0.00  0.00    +0.000 C 
ATOM     18  O   UNL     1      27.897  21.528  27.513  0.00  0.00    +0.000 OA
BRANCH  17  19
ATOM     19  O   UNL     1      27.455  23.734  27.742  0.00  0.00    +0.000 OA
BRANCH  19  21
ATOM     20  C   UNL     1      26.140  23.706  29.677  0.00  0.00    +0.000 C 
ATOM     21  C   UNL     1      26.108  23.820  28.158  0.00  0.00    +0.000 C 
ENDBRANCH  19  21
ENDBRANCH  17  19
ENDBRANCH   1  17
TORSDOF 4
ENDMDL
MODEL 8
REMARK VINA RESULT:      -5.1     19.927     22.313
REMARK  Name = 
REMARK  4 active torsions:
REMARK  status: ('A' for Active; 'I' for Inactive)
REMARK    1  A    between atoms: C_2  and  O_3
REMARK    2  A    between atoms: O_3  and  C_4
REMARK    3  A    between atoms: C_4  and  C_6
REMARK    4  A    between atoms: C_9  and  C_10
REMARK                            x       y       z     vdW  Elec       q    Type
REMARK                         _______ _______ _______ _____ _____    ______ ____
ROOT
ATOM      1  C   UNL     1      20.382  10.018  38.916  0.00  0.00    +0.000 C 
ATOM      2  C   UNL     1      19.534  10.086  39.841  0.00  0.00    +0.000 C 
ATOM      3  C   UNL     1      19.964  10.339  41.250  0.00  0.00    +0.000 C 
ATOM      4  C   UNL     1      17.983   9.940  39.764  0.00  0.00    +0.000 C 
ATOM      5  N   UNL     1      17.719   9.690  38.289  0.00  0.00    +0.000 NA
ATOM      6  C   UNL     1      18.643   9.618  37.291  0.00  0.00    +0.000 C 
ATOM      7  O   UNL     1      18.269   9.404  36.109  0.00  0.00    +0.000 OA
ATOM      8  N   UNL     1      20.011   9.781  37.576  0.00  0.00    +0.000 N 
ATOM      9  C   UNL     1      20.981   9.700  36.503  0.00  0.00    +0.000 C 
ENDROOT
BRANCH   4  10
ATOM     10  C   UNL     1      17.946   8.394  40.210  0.00  0.00    +0.000 A 
ATOM     11  C   UNL     1      18.920   7.563  39.807  0.00  0.00    +0.000 A 
ATOM     12  C   UNL     1      18.901   6.241  40.175  0.00  0.00    +0.000 A 
ATOM     13  C   UNL     1      17.869   5.790  40.960  0.00  0.00    +0.000 A 
ATOM     14  C   UNL     1      16.879   6.663  41.362  0.00  0.00    +0.000 A 
ATOM     15  C   UNL     1      16.915   7.990  40.982  0.00  0.00    +0.000 A 
ATOM     16 CL   UNL     1      15.696   9.148  41.455  0.00  0.00    +0.000 Cl
ENDBRANCH   4  10
BRANCH   1  17
ATOM     17  C   UNL     1      21.790  10.194  39.267  0.00  0.00    +0.000 C 
ATOM     18  O   UNL     1      22.585   9.232  39.418  0.00  0.00    +0.000 OA
BRANCH  17  19
ATOM     19  O   UNL     1      22.285  11.473  39.445  0.00  0.00    +0.000 OA
BRANCH  19  21
ATOM     20  C   UNL     1      21.332  13.528  38.861  0.00  0.00    +0.000 C 
ATOM     21  C   UNL     1      22.325  12.456  38.431  0.00  0.00    +0.000 C 
ENDBRANCH  19  21
ENDBRANCH  17  19
ENDBRANCH   1  17
TORSDOF 4
ENDMDL
MODEL 9
REMARK VINA RESULT:      -5.0     13.295     14.780
REMARK  Name = 
REMARK  4 active torsions:
REMARK  status: ('A' for Active; 'I' for Inactive)
REMARK    1  A    between atoms: C_2  and  O_3
REMARK    2  A    between atoms: O_3  and  C_4
REMARK    3  A    between atoms: C_4  and  C_6
REMARK    4  A    between atoms: C_9  and  C_10
REMARK                            x       y       z     vdW  Elec       q    Type
REMARK                         _______ _______ _______ _____ _____    ______ ____
ROOT
ATOM      1  C   UNL     1      20.002  22.251  37.442  0.00  0.00    +0.000 C 
ATOM      2  C   UNL     1      18.786  21.968  37.299  0.00  0.00    +0.000 C 
ATOM      3  C   UNL     1      18.225  20.707  37.873  0.00  0.00    +0.000 C 
ATOM      4  C   UNL     1      17.670  22.774  36.564  0.00  0.00    +0.000 C 
ATOM      5  N   UNL     1      18.397  24.004  36.048  0.00  0.00    +0.000 NA
ATOM      6  C   UNL     1      19.716  24.305  36.208  0.00  0.00    +0.000 C 
ATOM      7  O   UNL     1      20.177  25.369  35.719  0.00  0.00    +0.000 OA
ATOM      8  N   UNL     1      20.563  23.432  36.913  0.00  0.00    +0.000 N 
ATOM      9  C   UNL     1      21.964  23.766  37.073  0.00  0.00    +0.000 C 
ENDROOT
BRANCH   4  10
ATOM     10  C   UNL     1      17.748  21.939  35.190  0.00  0.00    +0.000 A 
ATOM     11  C   UNL     1      18.896  21.337  34.843  0.00  0.00    +0.000 A 
ATOM     12  C   UNL     1      18.980  20.625  33.673  0.00  0.00    +0.000 A 
ATOM     13  C   UNL     1      17.869  20.543  32.870  0.00  0.00    +0.000 A 
ATOM     14  C   UNL     1      16.700  21.170  33.249  0.00  0.00    +0.000 A 
ATOM     15  C   UNL     1      16.634  21.882  34.430  0.00  0.00    +0.000 A 
ATOM     16 CL   UNL     1      15.187  22.698  34.969  0.00  0.00    +0.000 Cl
ENDBRANCH   4  10
BRANCH   1  17
ATOM     17  C   UNL     1      20.838  21.309  38.184  0.00  0.00    +0.000 C 
ATOM     18  O   UNL     1      21.023  21.387  39.425  0.00  0.00    +0.000 OA
BRANCH  17  19
ATOM     19  O   UNL     1      21.460  20.280  37.503  0.00  0.00    +0.000 OA
BRANCH  19  21
ATOM     20  C   UNL     1      21.721  18.141  38.415  0.00  0.00    +0.000 C 
ATOM     21  C   UNL     1      22.444  19.436  38.066  0.00  0.00    +0.000 C 
ENDBRANCH  19  21
ENDBRANCH  17  19
ENDBRANCH   1  17
TORSDOF 4
ENDMDL
MODEL 10
REMARK VINA RESULT:      -5.0      1.892      3.163
REMARK  Name = 
REMARK  4 active torsions:
REMARK  status: ('A' for Active; 'I' for Inactive)
REMARK    1  A    between atoms: C_2  and  O_3
REMARK    2  A    between atoms: O_3  and  C_4
REMARK    3  A    between atoms: C_4  and  C_6
REMARK    4  A    between atoms: C_9  and  C_10
REMARK                            x       y       z     vdW  Elec       q    Type
REMARK                         _______ _______ _______ _____ _____    ______ ____
ROOT
ATOM      1  C   UNL     1      27.322  25.875  24.090  0.00  0.00    +0.000 C 
ATOM      2  C   UNL     1      27.078  25.212  25.129  0.00  0.00    +0.000 C 
ATOM      3  C   UNL     1      27.211  25.838  26.480  0.00  0.00    +0.000 C 
ATOM      4  C   UNL     1      26.622  23.726  25.261  0.00  0.00    +0.000 C 
ATOM      5  N   UNL     1      26.538  23.247  23.823  0.00  0.00    +0.000 NA
ATOM      6  C   UNL     1      26.804  23.972  22.700  0.00  0.00    +0.000 C 
ATOM      7  O   UNL     1      26.689  23.433  21.568  0.00  0.00    +0.000 OA
ATOM      8  N   UNL     1      27.207  25.315  22.800  0.00  0.00    +0.000 N 
ATOM      9  C   UNL     1      27.487  26.071  21.597  0.00  0.00    +0.000 C 
ENDROOT
BRANCH   4  10
ATOM     10  C   UNL     1      28.089  23.134  25.555  0.00  0.00    +0.000 A 
ATOM     11  C   UNL     1      29.001  23.099  24.570  0.00  0.00    +0.000 A 
ATOM     12  C   UNL     1      30.255  22.594  24.803  0.00  0.00    +0.000 A 
ATOM     13  C   UNL     1      30.555  22.127  26.059  0.00  0.00    +0.000 A 
ATOM     14  C   UNL     1      29.602  22.173  27.055  0.00  0.00    +0.000 A 
ATOM     15  C   UNL     1      28.344  22.685  26.802  0.00  0.00    +0.000 A 
ATOM     16 CL   UNL     1      27.092  22.774  28.016  0.00  0.00    +0.000 Cl
ENDBRANCH   4  10
BRANCH   1  17
ATOM     17  C   UNL     1      27.737  27.267  24.251  0.00  0.00    +0.000 C 
ATOM     18  O   UNL     1      28.936  27.639  24.171  0.00  0.00    +0.000 OA
BRANCH  17  19
ATOM     19  O   UNL     1      26.779  28.230  24.504  0.00  0.00    +0.000 OA
BRANCH  19  21
ATOM     20  C   UNL     1      24.440  28.165  24.485  0.00  0.00    +0.000 C 
ATOM     21  C   UNL     1      25.677  28.494  23.659  0.00  0.00    +0.000 C 
ENDBRANCH  19  21
ENDBRANCH  17  19
ENDBRANCH   1  17
TORSDOF 4
ENDMDL
