MODEL 1
REMARK VINA RESULT:      -6.6      0.000      0.000
REMARK  Name = 
REMARK  3 active torsions:
REMARK  status: ('A' for Active; 'I' for Inactive)
REMARK    1  A    between atoms: C_4  and  N_5
REMARK    2  A    between atoms: C_6  and  C_8
REMARK    3  A    between atoms: C_11  and  N_12
REMARK                            x       y       z     vdW  Elec       q    Type
REMARK                         _______ _______ _______ _____ _____    ______ ____
ROOT
ATOM      1  N   UNL     1      33.361  -5.177  32.086  0.00  0.00    +0.000 NA
ATOM      2  C   UNL     1      32.938  -4.754  33.357  0.00  0.00    +0.000 C 
ATOM      3  O   UNL     1      32.465  -5.628  34.128  0.00  0.00    +0.000 OA
ENDROOT
BRANCH   1   7
ATOM      4  C   UNL     1      35.613  -6.092  31.628  0.00  0.00    +0.000 C 
ATOM      5  C   UNL     1      34.621  -7.055  31.256  0.00  0.00    +0.000 C 
ATOM      6  C   UNL     1      34.862  -8.488  31.684  0.00  0.00    +0.000 C 
ATOM      7  C   UNL     1      33.153  -6.730  31.864  0.00  0.00    +0.000 C 
ATOM      8  C   UNL     1      32.342  -6.602  30.448  0.00  0.00    +0.000 C 
ATOM      9  C   UNL     1      30.929  -6.666  30.904  0.00  0.00    +0.000 C 
ATOM     10  C   UNL     1      32.651  -5.401  29.738  0.00  0.00    +0.000 C 
ATOM     11  C   UNL     1      34.047  -5.505  29.515  0.00  0.00    +0.000 C 
ATOM     12  C   UNL     1      34.433  -7.093  29.653  0.00  0.00    +0.000 C 
ATOM     13  C   UNL     1      32.889  -7.668  29.689  0.00  0.00    +0.000 C 
ENDBRANCH   1   7
BRANCH   2  14
ATOM     14  C   UNL     1      33.007  -3.379  33.842  0.00  0.00    +0.000 A 
ATOM     15  C   UNL     1      32.278  -2.911  34.909  0.00  0.00    +0.000 A 
ATOM     16  C   UNL     1      32.388  -1.585  35.322  0.00  0.00    +0.000 A 
ATOM     17  C   UNL     1      33.215  -0.700  34.692  0.00  0.00    +0.000 A 
ATOM     18  C   UNL     1      33.950  -1.158  33.620  0.00  0.00    +0.000 A 
ATOM     19  C   UNL     1      33.836  -2.475  33.215  0.00  0.00    +0.000 A 
BRANCH  17  20
ATOM     20  N   UNL     1      33.344   0.655  35.095  0.00  0.00    +0.000 N 
ATOM     21  O   UNL     1      33.515   0.999  36.279  0.00  0.00    +0.000 OA
ATOM     22  O   UNL     1      33.283   1.667  34.175  0.00  0.00    +0.000 OA
ENDBRANCH  17  20
ENDBRANCH   2  14
TORSDOF 3
ENDMDL
MODEL 2
REMARK VINA RESULT:      -6.6     20.242     22.339
REMARK  Name = 
REMARK  3 active torsions:
REMARK  status: ('A' for Active; 'I' for Inactive)
REMARK    1  A    between atoms: C_4  and  N_5
REMARK    2  A    between atoms: C_6  and  C_8
REMARK    3  A    between atoms: C_11  and  N_12
REMARK                            x       y       z     vdW  Elec       q    Type
REMARK                         _______ _______ _______ _____ _____    ______ ____
ROOT
ATOM      1  N   UNL     1      17.629   8.713  39.932  0.00  0.00    +0.000 NA
ATOM      2  C   UNL     1      18.065   9.783  39.132  0.00  0.00    +0.000 C 
ATOM      3  O   UNL     1      18.930  10.553  39.622  0.00  0.00    +0.000 OA
ENDROOT
BRANCH   1   7
ATOM      4  C   UNL     1      18.892   6.587  40.002  0.00  0.00    +0.000 C 
ATOM      5  C   UNL     1      18.793   7.129  41.323  0.00  0.00    +0.000 C 
ATOM      6  C   UNL     1      20.055   7.126  42.161  0.00  0.00    +0.000 C 
ATOM      7  C   UNL     1      18.338   8.685  41.346  0.00  0.00    +0.000 C 
ATOM      8  C   UNL     1      16.971   8.511  42.230  0.00  0.00    +0.000 C 
ATOM      9  C   UNL     1      16.678   9.917  42.610  0.00  0.00    +0.000 C 
ATOM     10  C   UNL     1      15.911   7.894  41.495  0.00  0.00    +0.000 C 
ATOM     11  C   UNL     1      16.451   6.632  41.144  0.00  0.00    +0.000 C 
ATOM     12  C   UNL     1      17.682   6.334  42.185  0.00  0.00    +0.000 C 
ATOM     13  C   UNL     1      17.368   7.578  43.221  0.00  0.00    +0.000 C 
ENDBRANCH   1   7
BRANCH   2  14
ATOM     14  C   UNL     1      17.587  10.061  37.782  0.00  0.00    +0.000 A 
ATOM     15  C   UNL     1      16.561  10.932  37.502  0.00  0.00    +0.000 A 
ATOM     16  C   UNL     1      16.151  11.154  36.190  0.00  0.00    +0.000 A 
ATOM     17  C   UNL     1      16.741  10.523  35.134  0.00  0.00    +0.000 A 
ATOM     18  C   UNL     1      17.771   9.647  35.401  0.00  0.00    +0.000 A 
ATOM     19  C   UNL     1      18.173   9.431  36.707  0.00  0.00    +0.000 A 
BRANCH  17  20
ATOM     20  N   UNL     1      16.340  10.733  33.788  0.00  0.00    +0.000 N 
ATOM     21  O   UNL     1      17.018  10.363  32.811  0.00  0.00    +0.000 OA
ATOM     22  O   UNL     1      15.161  11.367  33.500  0.00  0.00    +0.000 OA
ENDBRANCH  17  20
ENDBRANCH   2  14
TORSDOF 3
ENDMDL
MODEL 3
REMARK VINA RESULT:      -6.3     13.055     14.734
REMARK  Name = 
REMARK  3 active torsions:
REMARK  status: ('A' for Active; 'I' for Inactive)
REMARK    1  A    between atoms: C_4  and  N_5
REMARK    2  A    between atoms: C_6  and  C_8
REMARK    3  A    between atoms: C_11  and  N_12
REMARK                            x       y       z     vdW  Elec       q    Type
REMARK                         _______ _______ _______ _____ _____    ______ ____
ROOT
ATOM      1  N   UNL     1      23.193  -8.877  23.923  0.00  0.00    +0.000 NA
ATOM      2  C   UNL     1      22.604  -8.855  25.198  0.00  0.00    +0.000 C 
ATOM      3  O   UNL     1      23.105  -9.602  26.077  0.00  0.00    +0.000 OA
ENDROOT
BRANCH   1   7
ATOM      4  C   UNL     1      25.141  -7.488  23.296  0.00  0.00    +0.000 C 
ATOM      5  C   UNL     1      25.457  -8.871  23.103  0.00  0.00    +0.000 C 
ATOM      6  C   UNL     1      26.806  -9.342  23.606  0.00  0.00    +0.000 C 
ATOM      7  C   UNL     1      24.418  -9.875  23.838  0.00  0.00    +0.000 C 
ATOM      8  C   UNL     1      23.901 -10.682  22.510  0.00  0.00    +0.000 C 
ATOM      9  C   UNL     1      23.224 -11.857  23.117  0.00  0.00    +0.000 C 
ATOM     10  C   UNL     1      23.036  -9.897  21.686  0.00  0.00    +0.000 C 
ATOM     11  C   UNL     1      23.848  -8.792  21.324  0.00  0.00    +0.000 C 
ATOM     12  C   UNL     1      25.406  -9.256  21.536  0.00  0.00    +0.000 C 
ATOM     13  C   UNL     1      25.102 -10.858  21.777  0.00  0.00    +0.000 C 
ENDBRANCH   1   7
BRANCH   2  14
ATOM     14  C   UNL     1      21.458  -8.032  25.571  0.00  0.00    +0.000 A 
ATOM     15  C   UNL     1      21.326  -6.708  25.225  0.00  0.00    +0.000 A 
ATOM     16  C   UNL     1      20.207  -5.976  25.614  0.00  0.00    +0.000 A 
ATOM     17  C   UNL     1      19.201  -6.534  26.349  0.00  0.00    +0.000 A 
ATOM     18  C   UNL     1      19.321  -7.861  26.702  0.00  0.00    +0.000 A 
ATOM     19  C   UNL     1      20.436  -8.581  26.313  0.00  0.00    +0.000 A 
BRANCH  17  20
ATOM     20  N   UNL     1      18.051  -5.809  26.757  0.00  0.00    +0.000 N 
ATOM     21  O   UNL     1      17.981  -4.566  26.715  0.00  0.00    +0.000 OA
ATOM     22  O   UNL     1      16.942  -6.461  27.225  0.00  0.00    +0.000 OA
ENDBRANCH  17  20
ENDBRANCH   2  14
TORSDOF 3
ENDMDL
MODEL 4
REMARK VINA RESULT:      -6.2     33.012     34.480
REMARK  Name = 
REMARK  3 active torsions:
REMARK  status: ('A' for Active; 'I' for Inactive)
REMARK    1  A    between atoms: C_4  and  N_5
REMARK    2  A    between atoms: C_6  and  C_8
REMARK    3  A    between atoms: C_11  and  N_12
REMARK                            x       y       z     vdW  Elec       q    Type
REMARK                         _______ _______ _______ _____ _____    ______ ____
ROOT
ATOM      1  N   UNL     1      33.052  21.821  10.229  0.00  0.00    +0.000 NA
ATOM      2  C   UNL     1      31.704  21.457  10.078  0.00  0.00    +0.000 C 
ATOM      3  O   UNL     1      31.424  20.653   9.152  0.00  0.00    +0.000 OA
ENDROOT
BRANCH   1   7
ATOM      4  C   UNL     1      34.774  20.628  11.543  0.00  0.00    +0.000 C 
ATOM      5  C   UNL     1      35.192  20.718  10.177  0.00  0.00    +0.000 C 
ATOM      6  C   UNL     1      35.762  19.462   9.551  0.00  0.00    +0.000 C 
ATOM      7  C   UNL     1      33.992  21.123   9.165  0.00  0.00    +0.000 C 
ATOM      8  C   UNL     1      34.647  22.501   8.571  0.00  0.00    +0.000 C 
ATOM      9  C   UNL     1      33.795  22.751   7.381  0.00  0.00    +0.000 C 
ATOM     10  C   UNL     1      34.627  23.575   9.513  0.00  0.00    +0.000 C 
ATOM     11  C   UNL     1      35.395  23.073  10.595  0.00  0.00    +0.000 C 
ATOM     12  C   UNL     1      36.321  21.859   9.997  0.00  0.00    +0.000 C 
ATOM     13  C   UNL     1      36.008  22.140   8.403  0.00  0.00    +0.000 C 
ENDBRANCH   1   7
BRANCH   2  14
ATOM     14  C   UNL     1      30.611  21.944  10.914  0.00  0.00    +0.000 A 
ATOM     15  C   UNL     1      29.283  21.788  10.599  0.00  0.00    +0.000 A 
ATOM     16  C   UNL     1      28.287  22.277  11.440  0.00  0.00    +0.000 A 
ATOM     17  C   UNL     1      28.581  22.928  12.603  0.00  0.00    +0.000 A 
ATOM     18  C   UNL     1      29.910  23.092  12.930  0.00  0.00    +0.000 A 
ATOM     19  C   UNL     1      30.893  22.603  12.090  0.00  0.00    +0.000 A 
BRANCH  17  20
ATOM     20  N   UNL     1      27.583  23.435  13.476  0.00  0.00    +0.000 N 
ATOM     21  O   UNL     1      26.444  22.941  13.567  0.00  0.00    +0.000 OA
ATOM     22  O   UNL     1      27.837  24.517  14.276  0.00  0.00    +0.000 OA
ENDBRANCH  17  20
ENDBRANCH   2  14
TORSDOF 3
ENDMDL
MODEL 5
REMARK VINA RESULT:      -6.2     18.940     20.814
REMARK  Name = 
REMARK  3 active torsions:
REMARK  status: ('A' for Active; 'I' for Inactive)
REMARK    1  A    between atoms: C_4  and  N_5
REMARK    2  A    between atoms: C_6  and  C_8
REMARK    3  A    between atoms: C_11  and  N_12
REMARK                            x       y       z     vdW  Elec       q    Type
REMARK                         _______ _______ _______ _____ _____    ______ ____
ROOT
ATOM      1  N   UNL     1      25.680   4.630  16.824  0.00  0.00    +0.000 NA
ATOM      2  C   UNL     1      24.872   3.734  17.543  0.00  0.00    +0.000 C 
ATOM      3  O   UNL     1      25.331   3.286  18.625  0.00  0.00    +0.000 OA
ENDROOT
BRANCH   1   7
ATOM      4  C   UNL     1      25.664   7.040  17.380  0.00  0.00    +0.000 C 
ATOM      5  C   UNL     1      26.996   6.530  17.499  0.00  0.00    +0.000 C 
ATOM      6  C   UNL     1      27.779   6.939  18.729  0.00  0.00    +0.000 C 
ATOM      7  C   UNL     1      27.062   4.911  17.541  0.00  0.00    +0.000 C 
ATOM      8  C   UNL     1      28.000   4.684  16.218  0.00  0.00    +0.000 C 
ATOM      9  C   UNL     1      28.414   3.267  16.382  0.00  0.00    +0.000 C 
ATOM     10  C   UNL     1      27.303   4.930  14.995  0.00  0.00    +0.000 C 
ATOM     11  C   UNL     1      26.910   6.287  15.112  0.00  0.00    +0.000 C 
ATOM     12  C   UNL     1      27.893   6.973  16.231  0.00  0.00    +0.000 C 
ATOM     13  C   UNL     1      28.960   5.721  16.348  0.00  0.00    +0.000 C 
ENDBRANCH   1   7
BRANCH   2  14
ATOM     14  C   UNL     1      23.546   3.290  17.126  0.00  0.00    +0.000 A 
ATOM     15  C   UNL     1      23.199   3.053  15.818  0.00  0.00    +0.000 A 
ATOM     16  C   UNL     1      21.915   2.631  15.484  0.00  0.00    +0.000 A 
ATOM     17  C   UNL     1      20.952   2.435  16.432  0.00  0.00    +0.000 A 
ATOM     18  C   UNL     1      21.287   2.669  17.748  0.00  0.00    +0.000 A 
ATOM     19  C   UNL     1      22.565   3.089  18.071  0.00  0.00    +0.000 A 
BRANCH  17  20
ATOM     20  N   UNL     1      19.636   2.005  16.116  0.00  0.00    +0.000 N 
ATOM     21  O   UNL     1      19.011   1.173  16.800  0.00  0.00    +0.000 OA
ATOM     22  O   UNL     1      18.982   2.498  15.019  0.00  0.00    +0.000 OA
ENDBRANCH  17  20
ENDBRANCH   2  14
TORSDOF 3
ENDMDL
MODEL 6
REMARK VINA RESULT:      -6.0     27.398     29.792
REMARK  Name = 
REMARK  3 active torsions:
REMARK  status: ('A' for Active; 'I' for Inactive)
REMARK    1  A    between atoms: C_4  and  N_5
REMARK    2  A    between atoms: C_6  and  C_8
REMARK    3  A    between atoms: C_11  and  N_12
REMARK                            x       y       z     vdW  Elec       q    Type
REMARK                         _______ _______ _______ _____ _____    ______ ____
ROOT
ATOM      1  N   UNL     1      28.409  23.678  27.707  0.00  0.00    +0.000 NA
ATOM      2  C   UNL     1      28.977  23.065  26.579  0.00  0.00    +0.000 C 
ATOM      3  O   UNL     1      29.458  21.912  26.730  0.00  0.00    +0.000 OA
ENDROOT
BRANCH   1   7
ATOM      4  C   UNL     1      26.093  23.537  28.564  0.00  0.00    +0.000 C 
ATOM      5  C   UNL     1      27.004  23.084  29.571  0.00  0.00    +0.000 C 
ATOM      6  C   UNL     1      26.637  21.810  30.304  0.00  0.00    +0.000 C 
ATOM      7  C   UNL     1      28.487  22.766  28.998  0.00  0.00    +0.000 C 
ATOM      8  C   UNL     1      29.323  23.829  29.920  0.00  0.00    +0.000 C 
ATOM      9  C   UNL     1      30.719  23.360  29.730  0.00  0.00    +0.000 C 
ATOM     10  C   UNL     1      29.125  25.186  29.519  0.00  0.00    +0.000 C 
ATOM     11  C   UNL     1      27.728  25.371  29.673  0.00  0.00    +0.000 C 
ATOM     12  C   UNL     1      27.206  24.212  30.709  0.00  0.00    +0.000 C 
ATOM     13  C   UNL     1      28.696  23.689  31.185  0.00  0.00    +0.000 C 
ENDBRANCH   1   7
BRANCH   2  14
ATOM     14  C   UNL     1      29.050  23.668  25.252  0.00  0.00    +0.000 A 
ATOM     15  C   UNL     1      29.654  24.875  24.996  0.00  0.00    +0.000 A 
ATOM     16  C   UNL     1      29.689  25.397  23.705  0.00  0.00    +0.000 A 
ATOM     17  C   UNL     1      29.129  24.742  22.648  0.00  0.00    +0.000 A 
ATOM     18  C   UNL     1      28.519  23.530  22.891  0.00  0.00    +0.000 A 
ATOM     19  C   UNL     1      28.488  23.018  24.175  0.00  0.00    +0.000 A 
BRANCH  17  20
ATOM     20  N   UNL     1      29.152  25.254  21.323  0.00  0.00    +0.000 N 
ATOM     21  O   UNL     1      29.792  24.719  20.399  0.00  0.00    +0.000 OA
ATOM     22  O   UNL     1      28.454  26.386  20.999  0.00  0.00    +0.000 OA
ENDBRANCH  17  20
ENDBRANCH   2  14
TORSDOF 3
ENDMDL
MODEL 7
REMARK VINA RESULT:      -5.9     26.503     28.783
REMARK  Name = 
REMARK  3 active torsions:
REMARK  status: ('A' for Active; 'I' for Inactive)
REMARK    1  A    between atoms: C_4  and  N_5
REMARK    2  A    between atoms: C_6  and  C_8
REMARK    3  A    between atoms: C_11  and  N_12
REMARK                            x       y       z     vdW  Elec       q    Type
REMARK                         _______ _______ _______ _____ _____    ______ ____
ROOT
ATOM      1  N   UNL     1      30.259  23.193  28.984  0.00  0.00    +0.000 NA
ATOM      2  C   UNL     1      30.664  22.521  27.818  0.00  0.00    +0.000 C 
ATOM      3  O   UNL     1      31.570  21.656  27.937  0.00  0.00    +0.000 OA
ENDROOT
BRANCH   1   7
ATOM      4  C   UNL     1      28.529  22.574  30.640  0.00  0.00    +0.000 C 
ATOM      5  C   UNL     1      29.796  22.697  31.295  0.00  0.00    +0.000 C 
ATOM      6  C   UNL     1      30.169  21.606  32.277  0.00  0.00    +0.000 C 
ATOM      7  C   UNL     1      31.051  22.712  30.267  0.00  0.00    +0.000 C 
ATOM      8  C   UNL     1      31.656  24.180  30.666  0.00  0.00    +0.000 C 
ATOM      9  C   UNL     1      33.004  24.129  30.043  0.00  0.00    +0.000 C 
ATOM     10  C   UNL     1      30.854  25.261  30.184  0.00  0.00    +0.000 C 
ATOM     11  C   UNL     1      29.602  25.041  30.812  0.00  0.00    +0.000 C 
ATOM     12  C   UNL     1      29.884  24.085  32.115  0.00  0.00    +0.000 C 
ATOM     13  C   UNL     1      31.530  24.185  32.079  0.00  0.00    +0.000 C 
ENDBRANCH   1   7
BRANCH   2  14
ATOM     14  C   UNL     1      30.113  22.756  26.488  0.00  0.00    +0.000 A 
ATOM     15  C   UNL     1      28.767  22.758  26.211  0.00  0.00    +0.000 A 
ATOM     16  C   UNL     1      28.303  22.989  24.918  0.00  0.00    +0.000 A 
ATOM     17  C   UNL     1      29.156  23.219  23.878  0.00  0.00    +0.000 A 
ATOM     18  C   UNL     1      30.509  23.219  24.142  0.00  0.00    +0.000 A 
ATOM     19  C   UNL     1      30.961  22.990  25.429  0.00  0.00    +0.000 A 
BRANCH  17  20
ATOM     20  N   UNL     1      28.708  23.456  22.552  0.00  0.00    +0.000 N 
ATOM     21  O   UNL     1      29.443  23.917  21.658  0.00  0.00    +0.000 OA
ATOM     22  O   UNL     1      27.417  23.182  22.190  0.00  0.00    +0.000 OA
ENDBRANCH  17  20
ENDBRANCH   2  14
TORSDOF 3
ENDMDL
MODEL 8
REMARK VINA RESULT:      -5.9     31.986     34.804
REMARK  Name = 
REMARK  3 active torsions:
REMARK  status: ('A' for Active; 'I' for Inactive)
REMARK    1  A    between atoms: C_4  and  N_5
REMARK    2  A    between atoms: C_6  and  C_8
REMARK    3  A    between atoms: C_11  and  N_12
REMARK                            x       y       z     vdW  Elec       q    Type
REMARK                         _______ _______ _______ _____ _____    ______ ____
ROOT
ATOM      1  N   UNL     1      29.236  27.943  18.438  0.00  0.00    +0.000 NA
ATOM      2  C   UNL     1      29.306  27.940  19.841  0.00  0.00    +0.000 C 
ATOM      3  O   UNL     1      29.813  28.949  20.395  0.00  0.00    +0.000 OA
ENDROOT
BRANCH   1   7
ATOM      4  C   UNL     1      27.375  28.975  17.176  0.00  0.00    +0.000 C 
ATOM      5  C   UNL     1      28.612  29.578  16.782  0.00  0.00    +0.000 C 
ATOM      6  C   UNL     1      28.634  31.088  16.671  0.00  0.00    +0.000 C 
ATOM      7  C   UNL     1      29.832  29.265  17.804  0.00  0.00    +0.000 C 
ATOM      8  C   UNL     1      30.834  28.521  16.745  0.00  0.00    +0.000 C 
ATOM      9  C   UNL     1      32.117  28.522  17.493  0.00  0.00    +0.000 C 
ATOM     10  C   UNL     1      30.391  27.210  16.389  0.00  0.00    +0.000 C 
ATOM     11  C   UNL     1      29.119  27.444  15.806  0.00  0.00    +0.000 C 
ATOM     12  C   UNL     1      29.090  29.018  15.345  0.00  0.00    +0.000 C 
ATOM     13  C   UNL     1      30.693  29.322  15.582  0.00  0.00    +0.000 C 
ENDBRANCH   1   7
BRANCH   2  14
ATOM     14  C   UNL     1      28.834  26.854  20.694  0.00  0.00    +0.000 A 
ATOM     15  C   UNL     1      27.764  26.967  21.549  0.00  0.00    +0.000 A 
ATOM     16  C   UNL     1      27.364  25.893  22.339  0.00  0.00    +0.000 A 
ATOM     17  C   UNL     1      28.011  24.692  22.303  0.00  0.00    +0.000 A 
ATOM     18  C   UNL     1      29.087  24.566  21.451  0.00  0.00    +0.000 A 
ATOM     19  C   UNL     1      29.478  25.637  20.669  0.00  0.00    +0.000 A 
BRANCH  17  20
ATOM     20  N   UNL     1      27.623  23.582  23.099  0.00  0.00    +0.000 N 
ATOM     21  O   UNL     1      28.376  23.049  23.935  0.00  0.00    +0.000 OA
ATOM     22  O   UNL     1      26.372  23.037  22.978  0.00  0.00    +0.000 OA
ENDBRANCH  17  20
ENDBRANCH   2  14
TORSDOF 3
ENDMDL
MODEL 9
REMARK VINA RESULT:      -5.8     26.396     29.141
REMARK  Name = 
REMARK  3 active torsions:
REMARK  status: ('A' for Active; 'I' for Inactive)
REMARK    1  A    between atoms: C_4  and  N_5
REMARK    2  A    between atoms: C_6  and  C_8
REMARK    3  A    between atoms: C_11  and  N_12
REMARK                            x       y       z     vdW  Elec       q    Type
REMARK                         _______ _______ _______ _____ _____    ______ ____
ROOT
ATOM      1  N   UNL     1      28.975  24.092  25.747  0.00  0.00    +0.000 NA
ATOM      2  C   UNL     1      29.238  24.392  27.094  0.00  0.00    +0.000 C 
ATOM      3  O   UNL     1      28.717  25.437  27.563  0.00  0.00    +0.000 OA
ENDROOT
BRANCH   1   7
ATOM      4  C   UNL     1      26.859  22.912  25.249  0.00  0.00    +0.000 C 
ATOM      5  C   UNL     1      26.904  24.142  24.519  0.00  0.00    +0.000 C 
ATOM      6  C   UNL     1      25.647  24.988  24.524  0.00  0.00    +0.000 C 
ATOM      7  C   UNL     1      28.040  25.166  25.057  0.00  0.00    +0.000 C 
ATOM      8  C   UNL     1      28.906  25.296  23.674  0.00  0.00    +0.000 C 
ATOM      9  C   UNL     1      29.750  26.485  23.958  0.00  0.00    +0.000 C 
ATOM     10  C   UNL     1      29.667  24.122  23.383  0.00  0.00    +0.000 C 
ATOM     11  C   UNL     1      28.676  23.113  23.269  0.00  0.00    +0.000 C 
ATOM     12  C   UNL     1      27.256  23.874  22.966  0.00  0.00    +0.000 C 
ATOM     13  C   UNL     1      27.889  25.370  22.687  0.00  0.00    +0.000 C 
ENDBRANCH   1   7
BRANCH   2  14
ATOM     14  C   UNL     1      30.068  23.584  27.981  0.00  0.00    +0.000 A 
ATOM     15  C   UNL     1      30.982  22.659  27.535  0.00  0.00    +0.000 A 
ATOM     16  C   UNL     1      31.744  21.917  28.434  0.00  0.00    +0.000 A 
ATOM     17  C   UNL     1      31.619  22.072  29.784  0.00  0.00    +0.000 A 
ATOM     18  C   UNL     1      30.705  22.996  30.244  0.00  0.00    +0.000 A 
ATOM     19  C   UNL     1      29.952  23.729  29.345  0.00  0.00    +0.000 A 
BRANCH  17  20
ATOM     20  N   UNL     1      32.384  21.328  30.720  0.00  0.00    +0.000 N 
ATOM     21  O   UNL     1      33.612  21.154  30.608  0.00  0.00    +0.000 OA
ATOM     22  O   UNL     1      31.790  20.754  31.812  0.00  0.00    +0.000 OA
ENDBRANCH  17  20
ENDBRANCH   2  14
TORSDOF 3
ENDMDL
MODEL 10
REMARK VINA RESULT:      -5.8     29.669     31.774
REMARK  Name = 
REMARK  3 active torsions:
REMARK  status: ('A' for Active; 'I' for Inactive)
REMARK    1  A    between atoms: C_4  and  N_5
REMARK    2  A    between atoms: C_6  and  C_8
REMARK    3  A    between atoms: C_11  and  N_12
REMARK                            x       y       z     vdW  Elec       q    Type
REMARK                         _______ _______ _______ _____ _____    ______ ____
ROOT
ATOM      1  N   UNL     1      26.234  25.174  24.921  0.00  0.00    +0.000 NA
ATOM      2  C   UNL     1      25.340  26.258  24.939  0.00  0.00    +0.000 C 
ATOM      3  O   UNL     1      25.643  27.266  24.250  0.00  0.00    +0.000 OA
ENDROOT
BRANCH   1   7
ATOM      4  C   UNL     1      26.212  23.380  23.218  0.00  0.00    +0.000 C 
ATOM      5  C   UNL     1      27.491  24.023  23.220  0.00  0.00    +0.000 C 
ATOM      6  C   UNL     1      28.084  24.372  21.871  0.00  0.00    +0.000 C 
ATOM      7  C   UNL     1      27.494  25.442  24.003  0.00  0.00    +0.000 C 
ATOM      8  C   UNL     1      28.621  25.078  25.134  0.00  0.00    +0.000 C 
ATOM      9  C   UNL     1      28.956  26.422  25.670  0.00  0.00    +0.000 C 
ATOM     10  C   UNL     1      28.134  24.179  26.133  0.00  0.00    +0.000 C 
ATOM     11  C   UNL     1      27.773  23.029  25.387  0.00  0.00    +0.000 C 
ATOM     12  C   UNL     1      28.591  23.107  23.967  0.00  0.00    +0.000 C 
ATOM     13  C   UNL     1      29.583  24.357  24.381  0.00  0.00    +0.000 C 
ENDBRANCH   1   7
BRANCH   2  14
ATOM     14  C   UNL     1      24.093  26.296  25.696  0.00  0.00    +0.000 A 
ATOM     15  C   UNL     1      22.868  26.564  25.134  0.00  0.00    +0.000 A 
ATOM     16  C   UNL     1      21.714  26.587  25.913  0.00  0.00    +0.000 A 
ATOM     17  C   UNL     1      21.747  26.348  27.257  0.00  0.00    +0.000 A 
ATOM     18  C   UNL     1      22.970  26.078  27.833  0.00  0.00    +0.000 A 
ATOM     19  C   UNL     1      24.112  26.057  27.053  0.00  0.00    +0.000 A 
BRANCH  17  20
ATOM     20  N   UNL     1      20.585  26.366  28.071  0.00  0.00    +0.000 N 
ATOM     21  O   UNL     1      19.439  26.548  27.618  0.00  0.00    +0.000 OA
ATOM     22  O   UNL     1      20.676  26.180  29.425  0.00  0.00    +0.000 OA
ENDBRANCH  17  20
ENDBRANCH   2  14
TORSDOF 3
ENDMDL
