MODEL 1
REMARK VINA RESULT:      -7.0      0.000      0.000
REMARK  Name = 
REMARK  3 active torsions:
REMARK  status: ('A' for Active; 'I' for Inactive)
REMARK    1  A    between atoms: C_6  and  C_7
REMARK    2  A    between atoms: C_7  and  C_8
REMARK    3  A    between atoms: CA_12  and  C_13
REMARK                            x       y       z     vdW  Elec       q    Type
REMARK                         _______ _______ _______ _____ _____    ______ ____
ROOT
ATOM      1  C   UNL     1      24.276  11.982  37.891  0.00  0.00    +0.000 C 
ATOM      2  C   UNL     1      22.945  11.336  37.669  0.00  0.00    +0.000 A 
ATOM      3  C   UNL     1      21.809  11.746  38.328  0.00  0.00    +0.000 A 
ATOM      4  C   UNL     1      20.575  11.144  38.118  0.00  0.00    +0.000 A 
ATOM      5  N   UNL     1      19.342  11.301  38.581  0.00  0.00    +0.000 NA
ATOM      6  C   UNL     1      18.490  10.421  38.027  0.00  0.00    +0.000 A 
ATOM      7  N   UNL     1      19.243   9.692  37.186  0.00  0.00    +0.000 NA
ATOM      8  C   UNL     1      20.533  10.105  37.213  0.00  0.00    +0.000 A 
ATOM      9  C   UNL     1      21.681   9.688  36.545  0.00  0.00    +0.000 A 
ATOM     10  C   UNL     1      22.898  10.297  36.765  0.00  0.00    +0.000 A 
ATOM     11  C   UNL     1      24.142   9.864  36.056  0.00  0.00    +0.000 C 
ENDROOT
BRANCH   6  12
ATOM     12  C   UNL     1      17.034  10.218  38.228  0.00  0.00    +0.000 C 
BRANCH  12  13
ATOM     13  C   UNL     1      16.246  10.914  37.210  0.00  0.00    +0.000 A 
ATOM     14  C   UNL     1      15.119  11.609  37.575  0.00  0.00    +0.000 A 
ATOM     15  C   UNL     1      14.340  12.288  36.630  0.00  0.00    +0.000 A 
ATOM     16  C   UNL     1      14.733  12.241  35.322  0.00  0.00    +0.000 A 
ATOM     17  CA  UNL     1      15.859  11.545  34.971  0.00  0.00    +0.000 A 
ATOM     18  N   UNL     1      16.601  10.891  35.915  0.00  0.00    +0.000 NA
BRANCH  17  19
ATOM     19  C   UNL     1      16.253  11.520  33.536  0.00  0.00    +0.000 C 
ATOM     20  O   UNL     1      16.939  10.358  33.209  0.00  0.00    +0.000 OA
ENDBRANCH  17  19
ENDBRANCH  12  13
ENDBRANCH   6  12
TORSDOF 3
ENDMDL
MODEL 2
REMARK VINA RESULT:      -6.1     18.064     19.737
REMARK  Name = 
REMARK  3 active torsions:
REMARK  status: ('A' for Active; 'I' for Inactive)
REMARK    1  A    between atoms: C_6  and  C_7
REMARK    2  A    between atoms: C_7  and  C_8
REMARK    3  A    between atoms: CA_12  and  C_13
REMARK                            x       y       z     vdW  Elec       q    Type
REMARK                         _______ _______ _______ _____ _____    ______ ____
ROOT
ATOM      1  C   UNL     1      24.503  26.330  31.397  0.00  0.00    +0.000 C 
ATOM      2  C   UNL     1      24.727  25.805  30.015  0.00  0.00    +0.000 A 
ATOM      3  C   UNL     1      25.627  24.800  29.745  0.00  0.00    +0.000 A 
ATOM      4  C   UNL     1      25.831  24.315  28.461  0.00  0.00    +0.000 A 
ATOM      5  N   UNL     1      26.597  23.390  27.896  0.00  0.00    +0.000 NA
ATOM      6  C   UNL     1      26.396  23.324  26.570  0.00  0.00    +0.000 A 
ATOM      7  N   UNL     1      25.462  24.255  26.313  0.00  0.00    +0.000 NA
ATOM      8  C   UNL     1      25.088  24.888  27.451  0.00  0.00    +0.000 A 
ATOM      9  C   UNL     1      24.176  25.906  27.720  0.00  0.00    +0.000 A 
ATOM     10  C   UNL     1      23.986  26.375  29.002  0.00  0.00    +0.000 A 
ATOM     11  C   UNL     1      23.011  27.467  29.311  0.00  0.00    +0.000 C 
ENDROOT
BRANCH   6  12
ATOM     12  C   UNL     1      27.012  22.458  25.534  0.00  0.00    +0.000 C 
BRANCH  12  13
ATOM     13  C   UNL     1      28.091  23.147  24.825  0.00  0.00    +0.000 A 
ATOM     14  C   UNL     1      29.333  23.247  25.403  0.00  0.00    +0.000 A 
ATOM     15  C   UNL     1      30.390  23.899  24.756  0.00  0.00    +0.000 A 
ATOM     16  C   UNL     1      30.153  24.438  23.523  0.00  0.00    +0.000 A 
ATOM     17  CA  UNL     1      28.910  24.330  22.957  0.00  0.00    +0.000 A 
ATOM     18  N   UNL     1      27.896  23.688  23.612  0.00  0.00    +0.000 NA
BRANCH  17  19
ATOM     19  C   UNL     1      28.694  24.929  21.613  0.00  0.00    +0.000 C 
ATOM     20  O   UNL     1      29.719  24.609  20.733  0.00  0.00    +0.000 OA
ENDBRANCH  17  19
ENDBRANCH  12  13
ENDBRANCH   6  12
TORSDOF 3
ENDMDL
MODEL 3
REMARK VINA RESULT:      -6.1      3.158      4.432
REMARK  Name = 
REMARK  3 active torsions:
REMARK  status: ('A' for Active; 'I' for Inactive)
REMARK    1  A    between atoms: C_6  and  C_7
REMARK    2  A    between atoms: C_7  and  C_8
REMARK    3  A    between atoms: CA_12  and  C_13
REMARK                            x       y       z     vdW  Elec       q    Type
REMARK                         _______ _______ _______ _____ _____    ______ ____
ROOT
ATOM      1  C   UNL     1      24.813  11.380  38.117  0.00  0.00    +0.000 C 
ATOM      2  C   UNL     1      23.401  10.954  37.871  0.00  0.00    +0.000 A 
ATOM      3  C   UNL     1      22.379  11.255  38.741  0.00  0.00    +0.000 A 
ATOM      4  C   UNL     1      21.068  10.858  38.508  0.00  0.00    +0.000 A 
ATOM      5  N   UNL     1      19.904  10.986  39.130  0.00  0.00    +0.000 NA
ATOM      6  C   UNL     1      18.911  10.391  38.448  0.00  0.00    +0.000 A 
ATOM      7  N   UNL     1      19.501   9.874  37.356  0.00  0.00    +0.000 NA
ATOM      8  C   UNL     1      20.829  10.140  37.356  0.00  0.00    +0.000 A 
ATOM      9  C   UNL     1      21.862   9.833  36.474  0.00  0.00    +0.000 A 
ATOM     10  C   UNL     1      23.157  10.236  36.720  0.00  0.00    +0.000 A 
ATOM     11  C   UNL     1      24.279   9.916  35.784  0.00  0.00    +0.000 C 
ENDROOT
BRANCH   6  12
ATOM     12  C   UNL     1      17.462  10.273  38.744  0.00  0.00    +0.000 C 
BRANCH  12  13
ATOM     13  C   UNL     1      17.202   9.275  39.782  0.00  0.00    +0.000 A 
ATOM     14  C   UNL     1      16.214   9.496  40.710  0.00  0.00    +0.000 A 
ATOM     15  C   UNL     1      15.936   8.565  41.718  0.00  0.00    +0.000 A 
ATOM     16  C   UNL     1      16.680   7.420  41.756  0.00  0.00    +0.000 A 
ATOM     17  CA  UNL     1      17.662   7.210  40.824  0.00  0.00    +0.000 A 
ATOM     18  N   UNL     1      17.911   8.137  39.850  0.00  0.00    +0.000 NA
BRANCH  17  19
ATOM     19  C   UNL     1      18.448   5.950  40.900  0.00  0.00    +0.000 C 
ATOM     20  O   UNL     1      19.794   6.163  40.633  0.00  0.00    +0.000 OA
ENDBRANCH  17  19
ENDBRANCH  12  13
ENDBRANCH   6  12
TORSDOF 3
ENDMDL
MODEL 4
REMARK VINA RESULT:      -6.0     18.148     21.118
REMARK  Name = 
REMARK  3 active torsions:
REMARK  status: ('A' for Active; 'I' for Inactive)
REMARK    1  A    between atoms: C_6  and  C_7
REMARK    2  A    between atoms: C_7  and  C_8
REMARK    3  A    between atoms: CA_12  and  C_13
REMARK                            x       y       z     vdW  Elec       q    Type
REMARK                         _______ _______ _______ _____ _____    ______ ____
ROOT
ATOM      1  C   UNL     1      33.555   2.724  33.843  0.00  0.00    +0.000 C 
ATOM      2  C   UNL     1      33.612   1.316  34.344  0.00  0.00    +0.000 A 
ATOM      3  C   UNL     1      33.368   0.234  33.531  0.00  0.00    +0.000 A 
ATOM      4  C   UNL     1      33.422  -1.071  34.001  0.00  0.00    +0.000 A 
ATOM      5  N   UNL     1      33.244  -2.282  33.489  0.00  0.00    +0.000 NA
ATOM      6  C   UNL     1      33.422  -3.241  34.413  0.00  0.00    +0.000 A 
ATOM      7  N   UNL     1      33.724  -2.581  35.544  0.00  0.00    +0.000 NA
ATOM      8  C   UNL     1      33.734  -1.243  35.333  0.00  0.00    +0.000 A 
ATOM      9  C   UNL     1      33.982  -0.150  36.159  0.00  0.00    +0.000 A 
ATOM     10  C   UNL     1      33.924   1.140  35.675  0.00  0.00    +0.000 A 
ATOM     11  C   UNL     1      34.187   2.327  36.547  0.00  0.00    +0.000 C 
ENDROOT
BRANCH   6  12
ATOM     12  C   UNL     1      33.332  -4.719  34.312  0.00  0.00    +0.000 C 
BRANCH  12  13
ATOM     13  C   UNL     1      33.919  -5.212  33.065  0.00  0.00    +0.000 A 
ATOM     14  C   UNL     1      35.209  -5.680  33.056  0.00  0.00    +0.000 A 
ATOM     15  C   UNL     1      35.805  -6.160  31.883  0.00  0.00    +0.000 A 
ATOM     16  C   UNL     1      35.063  -6.150  30.736  0.00  0.00    +0.000 A 
ATOM     17  CA  UNL     1      33.776  -5.680  30.758  0.00  0.00    +0.000 A 
ATOM     18  N   UNL     1      33.219  -5.218  31.919  0.00  0.00    +0.000 NA
BRANCH  17  19
ATOM     19  C   UNL     1      33.001  -5.688  29.488  0.00  0.00    +0.000 C 
ATOM     20  O   UNL     1      33.511  -6.604  28.578  0.00  0.00    +0.000 OA
ENDBRANCH  17  19
ENDBRANCH  12  13
ENDBRANCH   6  12
TORSDOF 3
ENDMDL
MODEL 5
REMARK VINA RESULT:      -6.0     22.240     23.984
REMARK  Name = 
REMARK  3 active torsions:
REMARK  status: ('A' for Active; 'I' for Inactive)
REMARK    1  A    between atoms: C_6  and  C_7
REMARK    2  A    between atoms: C_7  and  C_8
REMARK    3  A    between atoms: CA_12  and  C_13
REMARK                            x       y       z     vdW  Elec       q    Type
REMARK                         _______ _______ _______ _____ _____    ______ ____
ROOT
ATOM      1  C   UNL     1      29.110  30.374  19.978  0.00  0.00    +0.000 C 
ATOM      2  C   UNL     1      29.255  28.896  20.152  0.00  0.00    +0.000 A 
ATOM      3  C   UNL     1      28.709  28.223  21.221  0.00  0.00    +0.000 A 
ATOM      4  C   UNL     1      28.846  26.851  21.378  0.00  0.00    +0.000 A 
ATOM      5  N   UNL     1      28.454  25.945  22.264  0.00  0.00    +0.000 NA
ATOM      6  C   UNL     1      28.871  24.713  21.929  0.00  0.00    +0.000 A 
ATOM      7  N   UNL     1      29.551  24.877  20.782  0.00  0.00    +0.000 NA
ATOM      8  C   UNL     1      29.559  26.179  20.409  0.00  0.00    +0.000 A 
ATOM      9  C   UNL     1      30.113  26.857  19.326  0.00  0.00    +0.000 A 
ATOM     10  C   UNL     1      29.968  28.220  19.185  0.00  0.00    +0.000 A 
ATOM     11  C   UNL     1      30.554  28.966  18.028  0.00  0.00    +0.000 C 
ENDROOT
BRANCH   6  12
ATOM     12  C   UNL     1      28.679  23.403  22.601  0.00  0.00    +0.000 C 
BRANCH  12  13
ATOM     13  C   UNL     1      29.550  23.263  23.769  0.00  0.00    +0.000 A 
ATOM     14  C   UNL     1      29.067  22.681  24.915  0.00  0.00    +0.000 A 
ATOM     15  C   UNL     1      29.870  22.529  26.052  0.00  0.00    +0.000 A 
ATOM     16  C   UNL     1      31.159  22.979  25.992  0.00  0.00    +0.000 A 
ATOM     17  CA  UNL     1      31.629  23.557  24.843  0.00  0.00    +0.000 A 
ATOM     18  N   UNL     1      30.822  23.692  23.747  0.00  0.00    +0.000 NA
BRANCH  17  19
ATOM     19  C   UNL     1      33.038  24.033  24.818  0.00  0.00    +0.000 C 
ATOM     20  O   UNL     1      33.384  24.683  25.995  0.00  0.00    +0.000 OA
ENDBRANCH  17  19
ENDBRANCH  12  13
ENDBRANCH   6  12
TORSDOF 3
ENDMDL
MODEL 6
REMARK VINA RESULT:      -6.0     30.423     32.326
REMARK  Name = 
REMARK  3 active torsions:
REMARK  status: ('A' for Active; 'I' for Inactive)
REMARK    1  A    between atoms: C_6  and  C_7
REMARK    2  A    between atoms: C_7  and  C_8
REMARK    3  A    between atoms: CA_12  and  C_13
REMARK                            x       y       z     vdW  Elec       q    Type
REMARK                         _______ _______ _______ _____ _____    ______ ____
ROOT
ATOM      1  C   UNL     1      31.638  16.750   4.554  0.00  0.00    +0.000 C 
ATOM      2  C   UNL     1      31.422  17.906   5.477  0.00  0.00    +0.000 A 
ATOM      3  C   UNL     1      32.442  18.464   6.211  0.00  0.00    +0.000 A 
ATOM      4  C   UNL     1      32.237  19.538   7.067  0.00  0.00    +0.000 A 
ATOM      5  N   UNL     1      32.985  20.271   7.881  0.00  0.00    +0.000 NA
ATOM      6  C   UNL     1      32.260  21.220   8.497  0.00  0.00    +0.000 A 
ATOM      7  N   UNL     1      31.009  21.056   8.036  0.00  0.00    +0.000 NA
ATOM      8  C   UNL     1      30.952  20.030   7.153  0.00  0.00    +0.000 A 
ATOM      9  C   UNL     1      29.917  19.468   6.411  0.00  0.00    +0.000 A 
ATOM     10  C   UNL     1      30.139  18.402   5.566  0.00  0.00    +0.000 A 
ATOM     11  C   UNL     1      29.040  17.785   4.760  0.00  0.00    +0.000 C 
ENDROOT
BRANCH   6  12
ATOM     12  C   UNL     1      32.655  22.261   9.480  0.00  0.00    +0.000 C 
BRANCH  12  13
ATOM     13  C   UNL     1      32.090  21.996  10.803  0.00  0.00    +0.000 A 
ATOM     14  C   UNL     1      32.526  20.914  11.528  0.00  0.00    +0.000 A 
ATOM     15  C   UNL     1      32.009  20.628  12.798  0.00  0.00    +0.000 A 
ATOM     16  C   UNL     1      31.050  21.460  13.302  0.00  0.00    +0.000 A 
ATOM     17  CA  UNL     1      30.624  22.536  12.569  0.00  0.00    +0.000 A 
ATOM     18  N   UNL     1      31.147  22.792  11.332  0.00  0.00    +0.000 NA
BRANCH  17  19
ATOM     19  C   UNL     1      29.579  23.418  13.155  0.00  0.00    +0.000 C 
ATOM     20  O   UNL     1      28.359  22.766  13.274  0.00  0.00    +0.000 OA
ENDBRANCH  17  19
ENDBRANCH  12  13
ENDBRANCH   6  12
TORSDOF 3
ENDMDL
MODEL 7
REMARK VINA RESULT:      -6.0      1.661      2.722
REMARK  Name = 
REMARK  3 active torsions:
REMARK  status: ('A' for Active; 'I' for Inactive)
REMARK    1  A    between atoms: C_6  and  C_7
REMARK    2  A    between atoms: C_7  and  C_8
REMARK    3  A    between atoms: CA_12  and  C_13
REMARK                            x       y       z     vdW  Elec       q    Type
REMARK                         _______ _______ _______ _____ _____    ______ ____
ROOT
ATOM      1  C   UNL     1      25.240  13.774  38.151  0.00  0.00    +0.000 C 
ATOM      2  C   UNL     1      23.826  13.291  38.221  0.00  0.00    +0.000 A 
ATOM      3  C   UNL     1      23.467  12.010  37.872  0.00  0.00    +0.000 A 
ATOM      4  C   UNL     1      22.153  11.565  37.939  0.00  0.00    +0.000 A 
ATOM      5  N   UNL     1      21.510  10.434  37.682  0.00  0.00    +0.000 NA
ATOM      6  C   UNL     1      20.194  10.547  37.926  0.00  0.00    +0.000 A 
ATOM      7  N   UNL     1      20.027  11.810  38.353  0.00  0.00    +0.000 NA
ATOM      8  C   UNL     1      21.210  12.471  38.376  0.00  0.00    +0.000 A 
ATOM      9  C   UNL     1      21.570  13.768  38.730  0.00  0.00    +0.000 A 
ATOM     10  C   UNL     1      22.879  14.193  38.657  0.00  0.00    +0.000 A 
ATOM     11  C   UNL     1      23.285  15.583  39.034  0.00  0.00    +0.000 C 
ENDROOT
BRANCH   6  12
ATOM     12  C   UNL     1      19.091   9.564  37.789  0.00  0.00    +0.000 C 
BRANCH  12  13
ATOM     13  C   UNL     1      17.877  10.184  37.257  0.00  0.00    +0.000 A 
ATOM     14  C   UNL     1      16.839  10.489  38.102  0.00  0.00    +0.000 A 
ATOM     15  C   UNL     1      15.662  11.084  37.630  0.00  0.00    +0.000 A 
ATOM     16  C   UNL     1      15.572  11.355  36.294  0.00  0.00    +0.000 A 
ATOM     17  CA  UNL     1      16.615  11.047  35.461  0.00  0.00    +0.000 A 
ATOM     18  N   UNL     1      17.753  10.467  35.950  0.00  0.00    +0.000 NA
BRANCH  17  19
ATOM     19  C   UNL     1      16.477  11.360  34.014  0.00  0.00    +0.000 C 
ATOM     20  O   UNL     1      15.294  12.034  33.741  0.00  0.00    +0.000 OA
ENDBRANCH  17  19
ENDBRANCH  12  13
ENDBRANCH   6  12
TORSDOF 3
ENDMDL
MODEL 8
REMARK VINA RESULT:      -6.0     21.298     23.021
REMARK  Name = 
REMARK  3 active torsions:
REMARK  status: ('A' for Active; 'I' for Inactive)
REMARK    1  A    between atoms: C_6  and  C_7
REMARK    2  A    between atoms: C_7  and  C_8
REMARK    3  A    between atoms: CA_12  and  C_13
REMARK                            x       y       z     vdW  Elec       q    Type
REMARK                         _______ _______ _______ _____ _____    ______ ____
ROOT
ATOM      1  C   UNL     1      29.387  30.198  20.699  0.00  0.00    +0.000 C 
ATOM      2  C   UNL     1      29.414  28.703  20.733  0.00  0.00    +0.000 A 
ATOM      3  C   UNL     1      28.901  27.980  21.785  0.00  0.00    +0.000 A 
ATOM      4  C   UNL     1      28.929  26.592  21.812  0.00  0.00    +0.000 A 
ATOM      5  N   UNL     1      28.532  25.642  22.649  0.00  0.00    +0.000 NA
ATOM      6  C   UNL     1      28.811  24.417  22.174  0.00  0.00    +0.000 A 
ATOM      7  N   UNL     1      29.407  24.632  20.988  0.00  0.00    +0.000 NA
ATOM      8  C   UNL     1      29.499  25.958  20.729  0.00  0.00    +0.000 A 
ATOM      9  C   UNL     1      30.019  26.686  19.663  0.00  0.00    +0.000 A 
ATOM     10  C   UNL     1      29.984  28.065  19.652  0.00  0.00    +0.000 A 
ATOM     11  C   UNL     1      30.537  28.864  18.516  0.00  0.00    +0.000 C 
ENDROOT
BRANCH   6  12
ATOM     12  C   UNL     1      28.560  23.071  22.746  0.00  0.00    +0.000 C 
BRANCH  12  13
ATOM     13  C   UNL     1      29.111  22.947  24.096  0.00  0.00    +0.000 A 
ATOM     14  C   UNL     1      30.472  22.960  24.282  0.00  0.00    +0.000 A 
ATOM     15  C   UNL     1      31.037  22.844  25.558  0.00  0.00    +0.000 A 
ATOM     16  C   UNL     1      30.192  22.716  26.624  0.00  0.00    +0.000 A 
ATOM     17  CA  UNL     1      28.836  22.706  26.426  0.00  0.00    +0.000 A 
ATOM     18  N   UNL     1      28.313  22.821  25.168  0.00  0.00    +0.000 NA
BRANCH  17  19
ATOM     19  C   UNL     1      27.952  22.566  27.613  0.00  0.00    +0.000 C 
ATOM     20  O   UNL     1      26.810  23.348  27.502  0.00  0.00    +0.000 OA
ENDBRANCH  17  19
ENDBRANCH  12  13
ENDBRANCH   6  12
TORSDOF 3
ENDMDL
MODEL 9
REMARK VINA RESULT:      -6.0     19.382     20.938
REMARK  Name = 
REMARK  3 active torsions:
REMARK  status: ('A' for Active; 'I' for Inactive)
REMARK    1  A    between atoms: C_6  and  C_7
REMARK    2  A    between atoms: C_7  and  C_8
REMARK    3  A    between atoms: CA_12  and  C_13
REMARK                            x       y       z     vdW  Elec       q    Type
REMARK                         _______ _______ _______ _____ _____    ______ ____
ROOT
ATOM      1  C   UNL     1      28.151  28.763  20.837  0.00  0.00    +0.000 C 
ATOM      2  C   UNL     1      28.106  27.382  21.410  0.00  0.00    +0.000 A 
ATOM      3  C   UNL     1      27.251  27.034  22.430  0.00  0.00    +0.000 A 
ATOM      4  C   UNL     1      27.213  25.751  22.958  0.00  0.00    +0.000 A 
ATOM      5  N   UNL     1      26.530  25.126  23.907  0.00  0.00    +0.000 NA
ATOM      6  C   UNL     1      26.899  23.838  24.016  0.00  0.00    +0.000 A 
ATOM      7  N   UNL     1      27.855  23.672  23.086  0.00  0.00    +0.000 NA
ATOM      8  C   UNL     1      28.078  24.826  22.413  0.00  0.00    +0.000 A 
ATOM      9  C   UNL     1      28.945  25.174  21.381  0.00  0.00    +0.000 A 
ATOM     10  C   UNL     1      28.969  26.454  20.868  0.00  0.00    +0.000 A 
ATOM     11  C   UNL     1      29.893  26.847  19.759  0.00  0.00    +0.000 C 
ENDROOT
BRANCH   6  12
ATOM     12  C   UNL     1      26.422  22.762  24.920  0.00  0.00    +0.000 C 
BRANCH  12  13
ATOM     13  C   UNL     1      27.026  22.867  26.249  0.00  0.00    +0.000 A 
ATOM     14  C   UNL     1      28.324  22.461  26.443  0.00  0.00    +0.000 A 
ATOM     15  C   UNL     1      28.937  22.546  27.699  0.00  0.00    +0.000 A 
ATOM     16  C   UNL     1      28.204  23.048  28.737  0.00  0.00    +0.000 A 
ATOM     17  CA  UNL     1      26.911  23.450  28.531  0.00  0.00    +0.000 A 
ATOM     18  N   UNL     1      26.338  23.356  27.292  0.00  0.00    +0.000 NA
BRANCH  17  19
ATOM     19  C   UNL     1      26.148  23.991  29.687  0.00  0.00    +0.000 C 
ATOM     20  O   UNL     1      25.894  23.016  30.642  0.00  0.00    +0.000 OA
ENDBRANCH  17  19
ENDBRANCH  12  13
ENDBRANCH   6  12
TORSDOF 3
ENDMDL
MODEL 10
REMARK VINA RESULT:      -5.9     21.736     23.727
REMARK  Name = 
REMARK  3 active torsions:
REMARK  status: ('A' for Active; 'I' for Inactive)
REMARK    1  A    between atoms: C_6  and  C_7
REMARK    2  A    between atoms: C_7  and  C_8
REMARK    3  A    between atoms: CA_12  and  C_13
REMARK                            x       y       z     vdW  Elec       q    Type
REMARK                         _______ _______ _______ _____ _____    ______ ____
ROOT
ATOM      1  C   UNL     1      18.092  -9.397  27.879  0.00  0.00    +0.000 C 
ATOM      2  C   UNL     1      18.977  -8.498  27.075  0.00  0.00    +0.000 A 
ATOM      3  C   UNL     1      20.246  -8.865  26.692  0.00  0.00    +0.000 A 
ATOM      4  C   UNL     1      21.064  -8.028  25.945  0.00  0.00    +0.000 A 
ATOM      5  N   UNL     1      22.289  -8.086  25.440  0.00  0.00    +0.000 NA
ATOM      6  C   UNL     1      22.605  -6.961  24.778  0.00  0.00    +0.000 A 
ATOM      7  N   UNL     1      21.519  -6.178  24.886  0.00  0.00    +0.000 NA
ATOM      8  C   UNL     1      20.547  -6.798  25.598  0.00  0.00    +0.000 A 
ATOM      9  C   UNL     1      19.263  -6.424  25.983  0.00  0.00    +0.000 A 
ATOM     10  C   UNL     1      18.464  -7.268  26.725  0.00  0.00    +0.000 A 
ATOM     11  C   UNL     1      17.082  -6.884  27.148  0.00  0.00    +0.000 C 
ENDROOT
BRANCH   6  12
ATOM     12  C   UNL     1      23.843  -6.571  24.057  0.00  0.00    +0.000 C 
BRANCH  12  13
ATOM     13  C   UNL     1      24.213  -7.562  23.045  0.00  0.00    +0.000 A 
ATOM     14  C   UNL     1      23.295  -7.950  22.100  0.00  0.00    +0.000 A 
ATOM     15  C   UNL     1      23.612  -8.894  21.117  0.00  0.00    +0.000 A 
ATOM     16  C   UNL     1      24.870  -9.426  21.121  0.00  0.00    +0.000 A 
ATOM     17  CA  UNL     1      25.777  -9.031  22.068  0.00  0.00    +0.000 A 
ATOM     18  N   UNL     1      25.440  -8.106  23.017  0.00  0.00    +0.000 NA
BRANCH  17  19
ATOM     19  C   UNL     1      27.137  -9.634  22.036  0.00  0.00    +0.000 C 
ATOM     20  O   UNL     1      28.047  -8.896  22.781  0.00  0.00    +0.000 OA
ENDBRANCH  17  19
ENDBRANCH  12  13
ENDBRANCH   6  12
TORSDOF 3
ENDMDL
