MODEL 1
REMARK VINA RESULT:      -7.6      0.000      0.000
REMARK  Name = 
REMARK  6 active torsions:
REMARK  status: ('A' for Active; 'I' for Inactive)
REMARK    1  A    between atoms: C_2  and  O_3
REMARK    2  A    between atoms: O_3  and  C_4
REMARK    3  A    between atoms: C_9  and  C_10
REMARK    4  A    between atoms: C_13  and  O_14
REMARK    5  A    between atoms: N_20  and  C_21
REMARK    6  A    between atoms: C_24  and  N_25
REMARK                            x       y       z     vdW  Elec       q    Type
REMARK                         _______ _______ _______ _____ _____    ______ ____
ROOT
ATOM      1  C   UNL     1      35.580   0.044  16.476  0.00  0.00    +0.000 A 
ATOM      2  C   UNL     1      34.554  -0.532  17.256  0.00  0.00    +0.000 A 
ATOM      3  C   UNL     1      34.174  -1.837  17.168  0.00  0.00    +0.000 A 
ATOM      4  C   UNL     1      34.842  -2.649  16.254  0.00  0.00    +0.000 A 
ATOM      5  O   UNL     1      34.497  -3.908  16.148  0.00  0.00    +0.000 OA
ATOM      6  C   UNL     1      35.062  -4.734  15.328  0.00  0.00    +0.000 A 
ATOM      7  C   UNL     1      36.070  -4.276  14.530  0.00  0.00    +0.000 A 
ATOM      8  C   UNL     1      36.468  -2.942  14.614  0.00  0.00    +0.000 A 
ATOM      9  N   UNL     1      37.411  -2.565  13.896  0.00  0.00    +0.000 NA
ATOM     10  C   UNL     1      35.846  -2.091  15.492  0.00  0.00    +0.000 A 
ATOM     11  C   UNL     1      36.238  -0.763  15.574  0.00  0.00    +0.000 A 
ENDROOT
BRANCH   6  12
ATOM     12  C   UNL     1      34.675  -6.139  15.208  0.00  0.00    +0.000 A 
ATOM     13  C   UNL     1      34.855  -7.031  16.220  0.00  0.00    +0.000 A 
ATOM     14  C   UNL     1      34.485  -8.354  16.091  0.00  0.00    +0.000 A 
ATOM     15  C   UNL     1      33.922  -8.791  14.920  0.00  0.00    +0.000 A 
ATOM     16  C   UNL     1      33.729  -7.911  13.878  0.00  0.00    +0.000 A 
ATOM     17  C   UNL     1      34.107  -6.592  14.029  0.00  0.00    +0.000 A 
BRANCH  15  18
ATOM     18  O   UNL     1      33.523 -10.111  14.714  0.00  0.00    +0.000 OA
ATOM     19  C   UNL     1      34.162 -11.115  15.477  0.00  0.00    +0.000 C 
ENDBRANCH  15  18
ENDBRANCH   6  12
BRANCH   9  20
ATOM     20  C   UNL     1      37.982  -1.313  13.803  0.00  0.00    +0.000 A 
ATOM     21  C   UNL     1      39.083  -0.995  14.609  0.00  0.00    +0.000 A 
ATOM     22  C   UNL     1      39.627   0.272  14.625  0.00  0.00    +0.000 A 
ATOM     23  C   UNL     1      39.106   1.282  13.843  0.00  0.00    +0.000 A 
ATOM     24  C   UNL     1      38.030   0.985  13.046  0.00  0.00    +0.000 A 
ATOM     25  C   UNL     1      37.477  -0.293  13.027  0.00  0.00    +0.000 A 
BRANCH  23  26
ATOM     26  N   UNL     1      39.690   2.593  13.878  0.00  0.00    +0.000 NA
ATOM     27  C   UNL     1      39.325   3.553  14.856  0.00  0.00    +0.000 C 
ATOM     28  C   UNL     1      39.913   4.921  14.917  0.00  0.00    +0.000 C 
ATOM     29  O   UNL     1      38.460   3.232  15.719  0.00  0.00    +0.000 OA
ENDBRANCH  23  26
ENDBRANCH   9  20
BRANCH   1  30
ATOM     30  O   UNL     1      35.793   1.367  16.730  0.00  0.00    +0.000 OA
BRANCH  30  32
ATOM     31  C   UNL     1      35.063   2.524  14.771  0.00  0.00    +0.000 C 
ATOM     32  C   UNL     1      34.986   2.393  16.302  0.00  0.00    +0.000 C 
ENDBRANCH  30  32
ENDBRANCH   1  30
TORSDOF 6
ENDMDL
MODEL 2
REMARK VINA RESULT:      -7.2     25.980     28.925
REMARK  Name = 
REMARK  6 active torsions:
REMARK  status: ('A' for Active; 'I' for Inactive)
REMARK    1  A    between atoms: C_2  and  O_3
REMARK    2  A    between atoms: O_3  and  C_4
REMARK    3  A    between atoms: C_9  and  C_10
REMARK    4  A    between atoms: C_13  and  O_14
REMARK    5  A    between atoms: N_20  and  C_21
REMARK    6  A    between atoms: C_24  and  N_25
REMARK                            x       y       z     vdW  Elec       q    Type
REMARK                         _______ _______ _______ _____ _____    ______ ____
ROOT
ATOM      1  C   UNL     1      26.888  16.429  38.033  0.00  0.00    +0.000 A 
ATOM      2  C   UNL     1      27.597  15.983  39.170  0.00  0.00    +0.000 A 
ATOM      3  C   UNL     1      28.792  15.333  39.113  0.00  0.00    +0.000 A 
ATOM      4  C   UNL     1      29.345  15.095  37.857  0.00  0.00    +0.000 A 
ATOM      5  O   UNL     1      30.493  14.471  37.772  0.00  0.00    +0.000 OA
ATOM      6  C   UNL     1      31.080  14.209  36.649  0.00  0.00    +0.000 A 
ATOM      7  C   UNL     1      30.477  14.602  35.490  0.00  0.00    +0.000 A 
ATOM      8  C   UNL     1      29.255  15.271  35.537  0.00  0.00    +0.000 A 
ATOM      9  N   UNL     1      28.749  15.644  34.465  0.00  0.00    +0.000 NA
ATOM     10  C   UNL     1      28.658  15.531  36.744  0.00  0.00    +0.000 A 
ATOM     11  C   UNL     1      27.440  16.193  36.793  0.00  0.00    +0.000 A 
ENDROOT
BRANCH   6  12
ATOM     12  C   UNL     1      32.361  13.510  36.555  0.00  0.00    +0.000 A 
ATOM     13  C   UNL     1      33.436  14.045  35.914  0.00  0.00    +0.000 A 
ATOM     14  C   UNL     1      34.638  13.372  35.834  0.00  0.00    +0.000 A 
ATOM     15  C   UNL     1      34.763  12.135  36.411  0.00  0.00    +0.000 A 
ATOM     16  C   UNL     1      33.692  11.568  37.066  0.00  0.00    +0.000 A 
ATOM     17  C   UNL     1      32.499  12.259  37.133  0.00  0.00    +0.000 A 
BRANCH  15  18
ATOM     18  O   UNL     1      35.944  11.393  36.372  0.00  0.00    +0.000 OA
ATOM     19  C   UNL     1      36.046  10.279  37.237  0.00  0.00    +0.000 C 
ENDBRANCH  15  18
ENDBRANCH   6  12
BRANCH   9  20
ATOM     20  C   UNL     1      27.564  16.319  34.253  0.00  0.00    +0.000 A 
ATOM     21  C   UNL     1      26.453  15.625  33.759  0.00  0.00    +0.000 A 
ATOM     22  C   UNL     1      25.279  16.272  33.438  0.00  0.00    +0.000 A 
ATOM     23  C   UNL     1      25.151  17.637  33.592  0.00  0.00    +0.000 A 
ATOM     24  C   UNL     1      26.230  18.330  34.079  0.00  0.00    +0.000 A 
ATOM     25  C   UNL     1      27.418  17.680  34.404  0.00  0.00    +0.000 A 
BRANCH  23  26
ATOM     26  N   UNL     1      23.918  18.288  33.251  0.00  0.00    +0.000 NA
ATOM     27  C   UNL     1      23.750  18.984  32.027  0.00  0.00    +0.000 C 
ATOM     28  C   UNL     1      22.483  19.670  31.645  0.00  0.00    +0.000 C 
ATOM     29  O   UNL     1      24.721  19.024  31.220  0.00  0.00    +0.000 OA
ENDBRANCH  23  26
ENDBRANCH   9  20
BRANCH   1  30
ATOM     30  O   UNL     1      25.714  17.058  38.324  0.00  0.00    +0.000 OA
BRANCH  30  32
ATOM     31  C   UNL     1      24.218  18.570  37.233  0.00  0.00    +0.000 C 
ATOM     32  C   UNL     1      24.619  17.107  37.496  0.00  0.00    +0.000 C 
ENDBRANCH  30  32
ENDBRANCH   1  30
TORSDOF 6
ENDMDL
MODEL 3
REMARK VINA RESULT:      -7.2      3.720      9.783
REMARK  Name = 
REMARK  6 active torsions:
REMARK  status: ('A' for Active; 'I' for Inactive)
REMARK    1  A    between atoms: C_2  and  O_3
REMARK    2  A    between atoms: O_3  and  C_4
REMARK    3  A    between atoms: C_9  and  C_10
REMARK    4  A    between atoms: C_13  and  O_14
REMARK    5  A    between atoms: N_20  and  C_21
REMARK    6  A    between atoms: C_24  and  N_25
REMARK                            x       y       z     vdW  Elec       q    Type
REMARK                         _______ _______ _______ _____ _____    ______ ____
ROOT
ATOM      1  C   UNL     1      36.408  -0.072  15.151  0.00  0.00    +0.000 A 
ATOM      2  C   UNL     1      35.590   0.406  16.198  0.00  0.00    +0.000 A 
ATOM      3  C   UNL     1      35.810   1.575  16.861  0.00  0.00    +0.000 A 
ATOM      4  C   UNL     1      36.909   2.342  16.480  0.00  0.00    +0.000 A 
ATOM      5  O   UNL     1      37.146   3.470  17.101  0.00  0.00    +0.000 OA
ATOM      6  C   UNL     1      38.140   4.247  16.814  0.00  0.00    +0.000 A 
ATOM      7  C   UNL     1      38.990   3.876  15.812  0.00  0.00    +0.000 A 
ATOM      8  C   UNL     1      38.772   2.682  15.126  0.00  0.00    +0.000 A 
ATOM      9  N   UNL     1      39.545   2.390  14.197  0.00  0.00    +0.000 NA
ATOM     10  C   UNL     1      37.709   1.881  15.457  0.00  0.00    +0.000 A 
ATOM     11  C   UNL     1      37.493   0.691  14.777  0.00  0.00    +0.000 A 
ENDROOT
BRANCH   6  12
ATOM     12  C   UNL     1      38.406   5.506  17.510  0.00  0.00    +0.000 A 
ATOM     13  C   UNL     1      38.037   6.711  16.996  0.00  0.00    +0.000 A 
ATOM     14  C   UNL     1      38.295   7.890  17.665  0.00  0.00    +0.000 A 
ATOM     15  C   UNL     1      38.937   7.857  18.876  0.00  0.00    +0.000 A 
ATOM     16  C   UNL     1      39.322   6.652  19.419  0.00  0.00    +0.000 A 
ATOM     17  C   UNL     1      39.054   5.485  18.733  0.00  0.00    +0.000 A 
BRANCH  15  18
ATOM     18  O   UNL     1      39.232   9.006  19.611  0.00  0.00    +0.000 OA
ATOM     19  C   UNL     1      38.163   9.651  20.275  0.00  0.00    +0.000 C 
ENDBRANCH  15  18
ENDBRANCH   6  12
BRANCH   9  20
ATOM     20  C   UNL     1      39.535   1.281  13.377  0.00  0.00    +0.000 A 
ATOM     21  C   UNL     1      40.288   0.154  13.730  0.00  0.00    +0.000 A 
ATOM     22  C   UNL     1      40.389  -0.939  12.896  0.00  0.00    +0.000 A 
ATOM     23  C   UNL     1      39.749  -0.968  11.674  0.00  0.00    +0.000 A 
ATOM     24  C   UNL     1      39.005   0.128  11.316  0.00  0.00    +0.000 A 
ATOM     25  C   UNL     1      38.900   1.235  12.156  0.00  0.00    +0.000 A 
BRANCH  23  26
ATOM     26  N   UNL     1      39.870  -2.117  10.824  0.00  0.00    +0.000 NA
ATOM     27  C   UNL     1      40.846  -2.194   9.798  0.00  0.00    +0.000 C 
ATOM     28  C   UNL     1      40.996  -3.373   8.899  0.00  0.00    +0.000 C 
ATOM     29  O   UNL     1      41.628  -1.214   9.638  0.00  0.00    +0.000 OA
ENDBRANCH  23  26
ENDBRANCH   9  20
BRANCH   1  30
ATOM     30  O   UNL     1      36.000  -1.264  14.629  0.00  0.00    +0.000 OA
BRANCH  30  32
ATOM     31  C   UNL     1      37.396  -3.032  13.830  0.00  0.00    +0.000 C 
ATOM     32  C   UNL     1      36.514  -2.492  14.969  0.00  0.00    +0.000 C 
ENDBRANCH  30  32
ENDBRANCH   1  30
TORSDOF 6
ENDMDL
MODEL 4
REMARK VINA RESULT:      -7.1      4.020      8.409
REMARK  Name = 
REMARK  6 active torsions:
REMARK  status: ('A' for Active; 'I' for Inactive)
REMARK    1  A    between atoms: C_2  and  O_3
REMARK    2  A    between atoms: O_3  and  C_4
REMARK    3  A    between atoms: C_9  and  C_10
REMARK    4  A    between atoms: C_13  and  O_14
REMARK    5  A    between atoms: N_20  and  C_21
REMARK    6  A    between atoms: C_24  and  N_25
REMARK                            x       y       z     vdW  Elec       q    Type
REMARK                         _______ _______ _______ _____ _____    ______ ____
ROOT
ATOM      1  C   UNL     1      36.873   1.003  15.694  0.00  0.00    +0.000 A 
ATOM      2  C   UNL     1      36.371   2.254  15.272  0.00  0.00    +0.000 A 
ATOM      3  C   UNL     1      36.430   2.703  13.989  0.00  0.00    +0.000 A 
ATOM      4  C   UNL     1      37.022   1.876  13.037  0.00  0.00    +0.000 A 
ATOM      5  O   UNL     1      37.094   2.283  11.794  0.00  0.00    +0.000 OA
ATOM      6  C   UNL     1      37.625   1.582  10.845  0.00  0.00    +0.000 A 
ATOM      7  C   UNL     1      38.137   0.354  11.148  0.00  0.00    +0.000 A 
ATOM      8  C   UNL     1      38.079  -0.116  12.459  0.00  0.00    +0.000 A 
ATOM      9  N   UNL     1      38.526  -1.252  12.696  0.00  0.00    +0.000 NA
ATOM     10  C   UNL     1      37.512   0.654  13.443  0.00  0.00    +0.000 A 
ATOM     11  C   UNL     1      37.457   0.189  14.748  0.00  0.00    +0.000 A 
ENDROOT
BRANCH   6  12
ATOM     12  C   UNL     1      37.707   2.037   9.457  0.00  0.00    +0.000 A 
ATOM     13  C   UNL     1      38.886   2.386   8.875  0.00  0.00    +0.000 A 
ATOM     14  C   UNL     1      38.947   2.814   7.565  0.00  0.00    +0.000 A 
ATOM     15  C   UNL     1      37.797   2.894   6.823  0.00  0.00    +0.000 A 
ATOM     16  C   UNL     1      36.588   2.548   7.386  0.00  0.00    +0.000 A 
ATOM     17  C   UNL     1      36.551   2.123   8.699  0.00  0.00    +0.000 A 
BRANCH  15  18
ATOM     18  O   UNL     1      37.777   3.317   5.494  0.00  0.00    +0.000 OA
ATOM     19  C   UNL     1      36.515   3.561   4.904  0.00  0.00    +0.000 C 
ENDBRANCH  15  18
ENDBRANCH   6  12
BRANCH   9  20
ATOM     20  C   UNL     1      38.577  -1.932  13.895  0.00  0.00    +0.000 A 
ATOM     21  C   UNL     1      39.753  -1.904  14.655  0.00  0.00    +0.000 A 
ATOM     22  C   UNL     1      39.887  -2.646  15.809  0.00  0.00    +0.000 A 
ATOM     23  C   UNL     1      38.863  -3.449  16.265  0.00  0.00    +0.000 A 
ATOM     24  C   UNL     1      37.703  -3.484  15.533  0.00  0.00    +0.000 A 
ATOM     25  C   UNL     1      37.563  -2.736  14.366  0.00  0.00    +0.000 A 
BRANCH  23  26
ATOM     26  N   UNL     1      39.027  -4.212  17.469  0.00  0.00    +0.000 NA
ATOM     27  C   UNL     1      38.789  -3.654  18.751  0.00  0.00    +0.000 C 
ATOM     28  C   UNL     1      38.950  -4.420  20.018  0.00  0.00    +0.000 C 
ATOM     29  O   UNL     1      38.419  -2.447  18.822  0.00  0.00    +0.000 OA
ENDBRANCH  23  26
ENDBRANCH   9  20
BRANCH   1  30
ATOM     30  O   UNL     1      36.705   0.759  17.025  0.00  0.00    +0.000 OA
BRANCH  30  32
ATOM     31  C   UNL     1      34.763  -0.628  17.142  0.00  0.00    +0.000 C 
ATOM     32  C   UNL     1      35.493   0.625  17.657  0.00  0.00    +0.000 C 
ENDBRANCH  30  32
ENDBRANCH   1  30
TORSDOF 6
ENDMDL
MODEL 5
REMARK VINA RESULT:      -7.1      4.304      7.436
REMARK  Name = 
REMARK  6 active torsions:
REMARK  status: ('A' for Active; 'I' for Inactive)
REMARK    1  A    between atoms: C_2  and  O_3
REMARK    2  A    between atoms: O_3  and  C_4
REMARK    3  A    between atoms: C_9  and  C_10
REMARK    4  A    between atoms: C_13  and  O_14
REMARK    5  A    between atoms: N_20  and  C_21
REMARK    6  A    between atoms: C_24  and  N_25
REMARK                            x       y       z     vdW  Elec       q    Type
REMARK                         _______ _______ _______ _____ _____    ______ ____
ROOT
ATOM      1  C   UNL     1      37.422  -0.994  16.041  0.00  0.00    +0.000 A 
ATOM      2  C   UNL     1      37.891  -2.274  16.410  0.00  0.00    +0.000 A 
ATOM      3  C   UNL     1      39.126  -2.751  16.093  0.00  0.00    +0.000 A 
ATOM      4  C   UNL     1      39.974  -1.925  15.360  0.00  0.00    +0.000 A 
ATOM      5  O   UNL     1      41.168  -2.358  15.039  0.00  0.00    +0.000 OA
ATOM      6  C   UNL     1      42.021  -1.660  14.362  0.00  0.00    +0.000 A 
ATOM      7  C   UNL     1      41.665  -0.405  13.959  0.00  0.00    +0.000 A 
ATOM      8  C   UNL     1      40.404   0.094  14.282  0.00  0.00    +0.000 A 
ATOM      9  N   UNL     1      40.123   1.252  13.928  0.00  0.00    +0.000 NA
ATOM     10  C   UNL     1      39.522  -0.674  14.999  0.00  0.00    +0.000 A 
ATOM     11  C   UNL     1      38.265  -0.180  15.317  0.00  0.00    +0.000 A 
ENDROOT
BRANCH   6  12
ATOM     12  C   UNL     1      43.353  -2.145  14.002  0.00  0.00    +0.000 A 
ATOM     13  C   UNL     1      43.568  -2.947  12.924  0.00  0.00    +0.000 A 
ATOM     14  C   UNL     1      44.831  -3.397  12.598  0.00  0.00    +0.000 A 
ATOM     15  C   UNL     1      45.902  -3.033  13.373  0.00  0.00    +0.000 A 
ATOM     16  C   UNL     1      45.714  -2.222  14.470  0.00  0.00    +0.000 A 
ATOM     17  C   UNL     1      44.443  -1.784  14.778  0.00  0.00    +0.000 A 
BRANCH  15  18
ATOM     18  O   UNL     1      47.208  -3.447  13.108  0.00  0.00    +0.000 OA
ATOM     19  C   UNL     1      47.407  -4.803  12.762  0.00  0.00    +0.000 C 
ENDBRANCH  15  18
ENDBRANCH   6  12
BRANCH   9  20
ATOM     20  C   UNL     1      38.958   1.962  14.129  0.00  0.00    +0.000 A 
ATOM     21  C   UNL     1      37.922   1.868  13.191  0.00  0.00    +0.000 A 
ATOM     22  C   UNL     1      36.780   2.633  13.296  0.00  0.00    +0.000 A 
ATOM     23  C   UNL     1      36.610   3.525  14.334  0.00  0.00    +0.000 A 
ATOM     24  C   UNL     1      37.615   3.625  15.263  0.00  0.00    +0.000 A 
ATOM     25  C   UNL     1      38.771   2.855  15.161  0.00  0.00    +0.000 A 
BRANCH  23  26
ATOM     26  N   UNL     1      35.411   4.310  14.421  0.00  0.00    +0.000 NA
ATOM     27  C   UNL     1      35.330   5.619  13.883  0.00  0.00    +0.000 C 
ATOM     28  C   UNL     1      34.100   6.458  13.958  0.00  0.00    +0.000 C 
ATOM     29  O   UNL     1      36.349   6.098  13.310  0.00  0.00    +0.000 OA
ENDBRANCH  23  26
ENDBRANCH   9  20
BRANCH   1  30
ATOM     30  O   UNL     1      36.155  -0.724  16.467  0.00  0.00    +0.000 OA
BRANCH  30  32
ATOM     31  C   UNL     1      35.248   1.404  17.065  0.00  0.00    +0.000 C 
ATOM     32  C   UNL     1      35.367   0.300  16.001  0.00  0.00    +0.000 C 
ENDBRANCH  30  32
ENDBRANCH   1  30
TORSDOF 6
ENDMDL
MODEL 6
REMARK VINA RESULT:      -6.9      4.711      9.460
REMARK  Name = 
REMARK  6 active torsions:
REMARK  status: ('A' for Active; 'I' for Inactive)
REMARK    1  A    between atoms: C_2  and  O_3
REMARK    2  A    between atoms: O_3  and  C_4
REMARK    3  A    between atoms: C_9  and  C_10
REMARK    4  A    between atoms: C_13  and  O_14
REMARK    5  A    between atoms: N_20  and  C_21
REMARK    6  A    between atoms: C_24  and  N_25
REMARK                            x       y       z     vdW  Elec       q    Type
REMARK                         _______ _______ _______ _____ _____    ______ ____
ROOT
ATOM      1  C   UNL     1      41.149  -1.795  11.738  0.00  0.00    +0.000 A 
ATOM      2  C   UNL     1      41.602  -1.378  10.467  0.00  0.00    +0.000 A 
ATOM      3  C   UNL     1      40.912  -0.532   9.654  0.00  0.00    +0.000 A 
ATOM      4  C   UNL     1      39.686  -0.050  10.106  0.00  0.00    +0.000 A 
ATOM      5  O   UNL     1      38.999   0.765   9.345  0.00  0.00    +0.000 OA
ATOM      6  C   UNL     1      37.853   1.261   9.684  0.00  0.00    +0.000 A 
ATOM      7  C   UNL     1      37.328   0.923  10.897  0.00  0.00    +0.000 A 
ATOM      8  C   UNL     1      38.029   0.059  11.738  0.00  0.00    +0.000 A 
ATOM      9  N   UNL     1      37.537  -0.204  12.850  0.00  0.00    +0.000 NA
ATOM     10  C   UNL     1      39.240  -0.452  11.347  0.00  0.00    +0.000 A 
ATOM     11  C   UNL     1      39.936  -1.315  12.181  0.00  0.00    +0.000 A 
ENDROOT
BRANCH   6  12
ATOM     12  C   UNL     1      37.086   2.170   8.832  0.00  0.00    +0.000 A 
ATOM     13  C   UNL     1      36.786   1.874   7.539  0.00  0.00    +0.000 A 
ATOM     14  C   UNL     1      36.062   2.742   6.748  0.00  0.00    +0.000 A 
ATOM     15  C   UNL     1      35.629   3.934   7.269  0.00  0.00    +0.000 A 
ATOM     16  C   UNL     1      35.919   4.261   8.575  0.00  0.00    +0.000 A 
ATOM     17  C   UNL     1      36.645   3.377   9.348  0.00  0.00    +0.000 A 
BRANCH  15  18
ATOM     18  O   UNL     1      34.893   4.863   6.533  0.00  0.00    +0.000 OA
ATOM     19  C   UNL     1      34.481   6.043   7.194  0.00  0.00    +0.000 C 
ENDBRANCH  15  18
ENDBRANCH   6  12
BRANCH   9  20
ATOM     20  C   UNL     1      38.035  -1.017  13.847  0.00  0.00    +0.000 A 
ATOM     21  C   UNL     1      37.602  -2.346  13.934  0.00  0.00    +0.000 A 
ATOM     22  C   UNL     1      37.993  -3.169  14.969  0.00  0.00    +0.000 A 
ATOM     23  C   UNL     1      38.830  -2.713  15.966  0.00  0.00    +0.000 A 
ATOM     24  C   UNL     1      39.264  -1.414  15.893  0.00  0.00    +0.000 A 
ATOM     25  C   UNL     1      38.872  -0.579  14.849  0.00  0.00    +0.000 A 
BRANCH  23  26
ATOM     26  N   UNL     1      39.222  -3.589  17.034  0.00  0.00    +0.000 NA
ATOM     27  C   UNL     1      38.553  -3.596  18.284  0.00  0.00    +0.000 C 
ATOM     28  C   UNL     1      38.937  -4.493  19.411  0.00  0.00    +0.000 C 
ATOM     29  O   UNL     1      37.582  -2.804  18.451  0.00  0.00    +0.000 OA
ENDBRANCH  23  26
ENDBRANCH   9  20
BRANCH   1  30
ATOM     30  O   UNL     1      42.002  -2.644  12.380  0.00  0.00    +0.000 OA
BRANCH  30  32
ATOM     31  C   UNL     1      42.717  -1.684  14.448  0.00  0.00    +0.000 C 
ATOM     32  C   UNL     1      43.120  -2.259  13.079  0.00  0.00    +0.000 C 
ENDBRANCH  30  32
ENDBRANCH   1  30
TORSDOF 6
ENDMDL
MODEL 7
REMARK VINA RESULT:      -6.8      4.379      9.429
REMARK  Name = 
REMARK  6 active torsions:
REMARK  status: ('A' for Active; 'I' for Inactive)
REMARK    1  A    between atoms: C_2  and  O_3
REMARK    2  A    between atoms: O_3  and  C_4
REMARK    3  A    between atoms: C_9  and  C_10
REMARK    4  A    between atoms: C_13  and  O_14
REMARK    5  A    between atoms: N_20  and  C_21
REMARK    6  A    between atoms: C_24  and  N_25
REMARK                            x       y       z     vdW  Elec       q    Type
REMARK                         _______ _______ _______ _____ _____    ______ ____
ROOT
ATOM      1  C   UNL     1      36.912  -0.190  15.746  0.00  0.00    +0.000 A 
ATOM      2  C   UNL     1      35.742   0.333  16.339  0.00  0.00    +0.000 A 
ATOM      3  C   UNL     1      35.216   1.552  16.037  0.00  0.00    +0.000 A 
ATOM      4  C   UNL     1      35.875   2.327  15.085  0.00  0.00    +0.000 A 
ATOM      5  O   UNL     1      35.393   3.504  14.775  0.00  0.00    +0.000 OA
ATOM      6  C   UNL     1      35.937   4.290  13.902  0.00  0.00    +0.000 A 
ATOM      7  C   UNL     1      37.072   3.875  13.269  0.00  0.00    +0.000 A 
ATOM      8  C   UNL     1      37.617   2.627  13.569  0.00  0.00    +0.000 A 
ATOM      9  N   UNL     1      38.633   2.266  12.950  0.00  0.00    +0.000 NA
ATOM     10  C   UNL     1      37.016   1.820  14.501  0.00  0.00    +0.000 A 
ATOM     11  C   UNL     1      37.559   0.579  14.804  0.00  0.00    +0.000 A 
ENDROOT
BRANCH   6  12
ATOM     12  C   UNL     1      35.399   5.605  13.558  0.00  0.00    +0.000 A 
ATOM     13  C   UNL     1      34.245   6.082  14.098  0.00  0.00    +0.000 A 
ATOM     14  C   UNL     1      33.751   7.326  13.762  0.00  0.00    +0.000 A 
ATOM     15  C   UNL     1      34.431   8.108  12.865  0.00  0.00    +0.000 A 
ATOM     16  C   UNL     1      35.602   7.650  12.302  0.00  0.00    +0.000 A 
ATOM     17  C   UNL     1      36.078   6.403  12.652  0.00  0.00    +0.000 A 
BRANCH  15  18
ATOM     18  O   UNL     1      33.996   9.375  12.476  0.00  0.00    +0.000 OA
ATOM     19  C   UNL     1      34.493  10.487  13.194  0.00  0.00    +0.000 C 
ENDBRANCH  15  18
ENDBRANCH   6  12
BRANCH   9  20
ATOM     20  C   UNL     1      39.345   1.090  13.064  0.00  0.00    +0.000 A 
ATOM     21  C   UNL     1      40.413   1.015  13.968  0.00  0.00    +0.000 A 
ATOM     22  C   UNL     1      41.217  -0.102  14.048  0.00  0.00    +0.000 A 
ATOM     23  C   UNL     1      41.000  -1.198  13.237  0.00  0.00    +0.000 A 
ATOM     24  C   UNL     1      39.955  -1.140  12.349  0.00  0.00    +0.000 A 
ATOM     25  C   UNL     1      39.141  -0.013  12.265  0.00  0.00    +0.000 A 
BRANCH  23  26
ATOM     26  N   UNL     1      41.851  -2.349  13.339  0.00  0.00    +0.000 NA
ATOM     27  C   UNL     1      43.067  -2.451  12.617  0.00  0.00    +0.000 C 
ATOM     28  C   UNL     1      43.970  -3.633  12.701  0.00  0.00    +0.000 C 
ATOM     29  O   UNL     1      43.402  -1.492  11.865  0.00  0.00    +0.000 OA
ENDBRANCH  23  26
ENDBRANCH   9  20
BRANCH   1  30
ATOM     30  O   UNL     1      37.255  -1.430  16.198  0.00  0.00    +0.000 OA
BRANCH  30  32
ATOM     31  C   UNL     1      39.064  -2.947  15.828  0.00  0.00    +0.000 C 
ATOM     32  C   UNL     1      38.498  -1.784  16.663  0.00  0.00    +0.000 C 
ENDBRANCH  30  32
ENDBRANCH   1  30
TORSDOF 6
ENDMDL
MODEL 8
REMARK VINA RESULT:      -6.8      4.366      7.662
REMARK  Name = 
REMARK  6 active torsions:
REMARK  status: ('A' for Active; 'I' for Inactive)
REMARK    1  A    between atoms: C_2  and  O_3
REMARK    2  A    between atoms: O_3  and  C_4
REMARK    3  A    between atoms: C_9  and  C_10
REMARK    4  A    between atoms: C_13  and  O_14
REMARK    5  A    between atoms: N_20  and  C_21
REMARK    6  A    between atoms: C_24  and  N_25
REMARK                            x       y       z     vdW  Elec       q    Type
REMARK                         _______ _______ _______ _____ _____    ______ ____
ROOT
ATOM      1  C   UNL     1      38.213   6.536  15.462  0.00  0.00    +0.000 A 
ATOM      2  C   UNL     1      39.091   5.658  16.136  0.00  0.00    +0.000 A 
ATOM      3  C   UNL     1      38.848   4.331  16.315  0.00  0.00    +0.000 A 
ATOM      4  C   UNL     1      37.662   3.811  15.802  0.00  0.00    +0.000 A 
ATOM      5  O   UNL     1      37.402   2.537  15.961  0.00  0.00    +0.000 OA
ATOM      6  C   UNL     1      36.327   1.969  15.517  0.00  0.00    +0.000 A 
ATOM      7  C   UNL     1      35.415   2.731  14.848  0.00  0.00    +0.000 A 
ATOM      8  C   UNL     1      35.655   4.091  14.656  0.00  0.00    +0.000 A 
ATOM      9  N   UNL     1      34.819   4.750  14.014  0.00  0.00    +0.000 NA
ATOM     10  C   UNL     1      36.803   4.663  15.142  0.00  0.00    +0.000 A 
ATOM     11  C   UNL     1      37.042   6.016  14.956  0.00  0.00    +0.000 A 
ENDROOT
BRANCH   6  12
ATOM     12  C   UNL     1      36.036   0.547  15.696  0.00  0.00    +0.000 A 
ATOM     13  C   UNL     1      36.587  -0.413  14.905  0.00  0.00    +0.000 A 
ATOM     14  C   UNL     1      36.302  -1.751  15.087  0.00  0.00    +0.000 A 
ATOM     15  C   UNL     1      35.445  -2.132  16.086  0.00  0.00    +0.000 A 
ATOM     16  C   UNL     1      34.872  -1.182  16.902  0.00  0.00    +0.000 A 
ATOM     17  C   UNL     1      35.171   0.150  16.702  0.00  0.00    +0.000 A 
BRANCH  15  18
ATOM     18  O   UNL     1      35.108  -3.464  16.333  0.00  0.00    +0.000 OA
ATOM     19  C   UNL     1      36.058  -4.453  15.990  0.00  0.00    +0.000 C 
ENDBRANCH  15  18
ENDBRANCH   6  12
BRANCH   9  20
ATOM     20  C   UNL     1      34.833   6.091  13.693  0.00  0.00    +0.000 A 
ATOM     21  C   UNL     1      34.112   6.997  14.481  0.00  0.00    +0.000 A 
ATOM     22  C   UNL     1      34.014   8.331  14.144  0.00  0.00    +0.000 A 
ATOM     23  C   UNL     1      34.627   8.829  13.013  0.00  0.00    +0.000 A 
ATOM     24  C   UNL     1      35.339   7.953  12.233  0.00  0.00    +0.000 A 
ATOM     25  C   UNL     1      35.440   6.605  12.569  0.00  0.00    +0.000 A 
BRANCH  23  26
ATOM     26  N   UNL     1      34.510  10.221  12.683  0.00  0.00    +0.000 NA
ATOM     27  C   UNL     1      35.366  11.201  13.247  0.00  0.00    +0.000 C 
ATOM     28  C   UNL     1      35.270  12.653  12.926  0.00  0.00    +0.000 C 
ATOM     29  O   UNL     1      36.256  10.824  14.062  0.00  0.00    +0.000 OA
ENDBRANCH  23  26
ENDBRANCH   9  20
BRANCH   1  30
ATOM     30  O   UNL     1      38.658   7.823  15.398  0.00  0.00    +0.000 OA
BRANCH  30  32
ATOM     31  C   UNL     1      37.564   8.990  17.174  0.00  0.00    +0.000 C 
ATOM     32  C   UNL     1      38.892   8.633  16.483  0.00  0.00    +0.000 C 
ENDBRANCH  30  32
ENDBRANCH   1  30
TORSDOF 6
ENDMDL
MODEL 9
REMARK VINA RESULT:      -6.7     20.978     23.886
REMARK  Name = 
REMARK  6 active torsions:
REMARK  status: ('A' for Active; 'I' for Inactive)
REMARK    1  A    between atoms: C_2  and  O_3
REMARK    2  A    between atoms: O_3  and  C_4
REMARK    3  A    between atoms: C_9  and  C_10
REMARK    4  A    between atoms: C_13  and  O_14
REMARK    5  A    between atoms: N_20  and  C_21
REMARK    6  A    between atoms: C_24  and  N_25
REMARK                            x       y       z     vdW  Elec       q    Type
REMARK                         _______ _______ _______ _____ _____    ______ ____
ROOT
ATOM      1  C   UNL     1      13.354  -3.080   8.263  0.00  0.00    +0.000 A 
ATOM      2  C   UNL     1      13.105  -1.695   8.148  0.00  0.00    +0.000 A 
ATOM      3  C   UNL     1      13.830  -0.856   7.358  0.00  0.00    +0.000 A 
ATOM      4  C   UNL     1      14.878  -1.400   6.620  0.00  0.00    +0.000 A 
ATOM      5  O   UNL     1      15.593  -0.617   5.852  0.00  0.00    +0.000 OA
ATOM      6  C   UNL     1      16.583  -1.035   5.132  0.00  0.00    +0.000 A 
ATOM      7  C   UNL     1      16.903  -2.362   5.170  0.00  0.00    +0.000 A 
ATOM      8  C   UNL     1      16.166  -3.229   5.974  0.00  0.00    +0.000 A 
ATOM      9  N   UNL     1      16.463  -4.437   5.961  0.00  0.00    +0.000 NA
ATOM     10  C   UNL     1      15.124  -2.753   6.727  0.00  0.00    +0.000 A 
ATOM     11  C   UNL     1      14.391  -3.614   7.531  0.00  0.00    +0.000 A 
ENDROOT
BRANCH   6  12
ATOM     12  C   UNL     1      17.383  -0.159   4.276  0.00  0.00    +0.000 A 
ATOM     13  C   UNL     1      16.822   0.811   3.504  0.00  0.00    +0.000 A 
ATOM     14  C   UNL     1      17.591   1.629   2.702  0.00  0.00    +0.000 A 
ATOM     15  C   UNL     1      18.952   1.469   2.674  0.00  0.00    +0.000 A 
ATOM     16  C   UNL     1      19.546   0.494   3.444  0.00  0.00    +0.000 A 
ATOM     17  C   UNL     1      18.759  -0.313   4.240  0.00  0.00    +0.000 A 
BRANCH  15  18
ATOM     18  O   UNL     1      19.795   2.257   1.889  0.00  0.00    +0.000 OA
ATOM     19  C   UNL     1      19.251   2.831   0.718  0.00  0.00    +0.000 C 
ENDBRANCH  15  18
ENDBRANCH   6  12
BRANCH   9  20
ATOM     20  C   UNL     1      15.887  -5.479   6.656  0.00  0.00    +0.000 A 
ATOM     21  C   UNL     1      16.412  -5.852   7.900  0.00  0.00    +0.000 A 
ATOM     22  C   UNL     1      15.936  -6.948   8.587  0.00  0.00    +0.000 A 
ATOM     23  C   UNL     1      14.917  -7.725   8.076  0.00  0.00    +0.000 A 
ATOM     24  C   UNL     1      14.390  -7.370   6.859  0.00  0.00    +0.000 A 
ATOM     25  C   UNL     1      14.869  -6.263   6.162  0.00  0.00    +0.000 A 
BRANCH  23  26
ATOM     26  N   UNL     1      14.438  -8.862   8.810  0.00  0.00    +0.000 NA
ATOM     27  C   UNL     1      15.030 -10.143   8.681  0.00  0.00    +0.000 C 
ATOM     28  C   UNL     1      14.556 -11.341   9.429  0.00  0.00    +0.000 C 
ATOM     29  O   UNL     1      16.009 -10.277   7.893  0.00  0.00    +0.000 OA
ENDBRANCH  23  26
ENDBRANCH   9  20
BRANCH   1  30
ATOM     30  O   UNL     1      12.504  -3.728   9.111  0.00  0.00    +0.000 OA
BRANCH  30  32
ATOM     31  C   UNL     1      13.724  -3.652  11.164  0.00  0.00    +0.000 C 
ATOM     32  C   UNL     1      12.373  -3.463  10.452  0.00  0.00    +0.000 C 
ENDBRANCH  30  32
ENDBRANCH   1  30
TORSDOF 6
ENDMDL
MODEL 10
REMARK VINA RESULT:      -6.6     28.379     30.796
REMARK  Name = 
REMARK  6 active torsions:
REMARK  status: ('A' for Active; 'I' for Inactive)
REMARK    1  A    between atoms: C_2  and  O_3
REMARK    2  A    between atoms: O_3  and  C_4
REMARK    3  A    between atoms: C_9  and  C_10
REMARK    4  A    between atoms: C_13  and  O_14
REMARK    5  A    between atoms: N_20  and  C_21
REMARK    6  A    between atoms: C_24  and  N_25
REMARK                            x       y       z     vdW  Elec       q    Type
REMARK                         _______ _______ _______ _____ _____    ______ ____
ROOT
ATOM      1  C   UNL     1      29.090  16.553  37.384  0.00  0.00    +0.000 A 
ATOM      2  C   UNL     1      29.985  15.983  38.316  0.00  0.00    +0.000 A 
ATOM      3  C   UNL     1      29.620  15.078  39.264  0.00  0.00    +0.000 A 
ATOM      4  C   UNL     1      28.283  14.692  39.316  0.00  0.00    +0.000 A 
ATOM      5  O   UNL     1      27.903  13.824  40.219  0.00  0.00    +0.000 OA
ATOM      6  C   UNL     1      26.683  13.408  40.339  0.00  0.00    +0.000 A 
ATOM      7  C   UNL     1      25.740  13.896  39.483  0.00  0.00    +0.000 A 
ATOM      8  C   UNL     1      26.104  14.822  38.506  0.00  0.00    +0.000 A 
ATOM      9  N   UNL     1      25.227  15.222  37.721  0.00  0.00    +0.000 NA
ATOM     10  C   UNL     1      27.405  15.244  38.407  0.00  0.00    +0.000 A 
ATOM     11  C   UNL     1      27.768  16.168  37.438  0.00  0.00    +0.000 A 
ENDROOT
BRANCH   6  12
ATOM     12  C   UNL     1      26.259  12.439  41.350  0.00  0.00    +0.000 A 
ATOM     13  C   UNL     1      25.391  12.762  42.347  0.00  0.00    +0.000 A 
ATOM     14  C   UNL     1      25.001  11.836  43.293  0.00  0.00    +0.000 A 
ATOM     15  C   UNL     1      25.494  10.558  43.235  0.00  0.00    +0.000 A 
ATOM     16  C   UNL     1      26.375  10.203  42.238  0.00  0.00    +0.000 A 
ATOM     17  C   UNL     1      26.752  11.145  41.302  0.00  0.00    +0.000 A 
BRANCH  15  18
ATOM     18  O   UNL     1      25.147   9.567  44.154  0.00  0.00    +0.000 OA
ATOM     19  C   UNL     1      23.990   8.801  43.884  0.00  0.00    +0.000 C 
ENDBRANCH  15  18
ENDBRANCH   6  12
BRANCH   9  20
ATOM     20  C   UNL     1      25.338  16.122  36.681  0.00  0.00    +0.000 A 
ATOM     21  C   UNL     1      24.983  17.461  36.886  0.00  0.00    +0.000 A 
ATOM     22  C   UNL     1      24.982  18.375  35.855  0.00  0.00    +0.000 A 
ATOM     23  C   UNL     1      25.335  18.007  34.573  0.00  0.00    +0.000 A 
ATOM     24  C   UNL     1      25.689  16.699  34.358  0.00  0.00    +0.000 A 
ATOM     25  C   UNL     1      25.690  15.771  35.397  0.00  0.00    +0.000 A 
BRANCH  23  26
ATOM     26  N   UNL     1      25.326  18.978  33.515  0.00  0.00    +0.000 NA
ATOM     27  C   UNL     1      24.219  19.129  32.644  0.00  0.00    +0.000 C 
ATOM     28  C   UNL     1      24.180  20.127  31.538  0.00  0.00    +0.000 C 
ATOM     29  O   UNL     1      23.213  18.383  32.814  0.00  0.00    +0.000 OA
ENDBRANCH  23  26
ENDBRANCH   9  20
BRANCH   1  30
ATOM     30  O   UNL     1      29.673  17.436  36.524  0.00  0.00    +0.000 OA
BRANCH  30  32
ATOM     31  C   UNL     1      29.822  16.205  34.481  0.00  0.00    +0.000 C 
ATOM     32  C   UNL     1      29.413  17.515  35.177  0.00  0.00    +0.000 C 
ENDBRANCH  30  32
ENDBRANCH   1  30
TORSDOF 6
ENDMDL
