MODEL 1
REMARK VINA RESULT:      -8.3      0.000      0.000
REMARK  Name = 
REMARK  7 active torsions:
REMARK  status: ('A' for Active; 'I' for Inactive)
REMARK    1  A    between atoms: C_2  and  N_3
REMARK    2  A    between atoms: C_2  and  C_24
REMARK    3  A    between atoms: N_3  and  O_4
REMARK    4  A    between atoms: O_4  and  C_5
REMARK    5  A    between atoms: C_5  and  C_7
REMARK    6  A    between atoms: C_9  and  C_10
REMARK    7  A    between atoms: C_27  and  C_28
REMARK                            x       y       z     vdW  Elec       q    Type
REMARK                         _______ _______ _______ _____ _____    ______ ____
ROOT
ATOM      1  C   UNL     1      36.266   2.621  15.829  0.00  0.00    +0.000 A 
ATOM      2  C   UNL     1      37.007   3.530  16.571  0.00  0.00    +0.000 A 
ATOM      3  C   UNL     1      38.190   3.997  16.233  0.00  0.00    +0.000 A 
ATOM      4  N   UNL     1      38.842   3.595  15.043  0.00  0.00    +0.000 NA
ATOM      5  C   UNL     1      38.186   2.728  14.266  0.00  0.00    +0.000 A 
ATOM      6  C   UNL     1      38.584   2.242  13.065  0.00  0.00    +0.000 A 
ATOM      7  C   UNL     1      38.050   1.412  12.194  0.00  0.00    +0.000 A 
ATOM      8  C   UNL     1      36.689   0.910  12.625  0.00  0.00    +0.000 A 
ATOM      9  C   UNL     1      36.300   1.387  13.796  0.00  0.00    +0.000 A 
ATOM     10  C   UNL     1      36.908   2.236  14.651  0.00  0.00    +0.000 A 
ENDROOT
BRANCH   3  11
ATOM     11  C   UNL     1      39.068   4.911  16.995  0.00  0.00    +0.000 A 
ATOM     12  C   UNL     1      38.808   5.094  18.367  0.00  0.00    +0.000 A 
ATOM     13  C   UNL     1      39.656   5.830  19.139  0.00  0.00    +0.000 A 
ATOM     14  C   UNL     1      40.785   6.402  18.560  0.00  0.00    +0.000 A 
ATOM     15  C   UNL     1      41.077   6.247  17.216  0.00  0.00    +0.000 A 
ATOM     16  C   UNL     1      42.268   6.844  16.628  0.00  0.00    +0.000 C 
ATOM     17  C   UNL     1      40.193   5.498  16.463  0.00  0.00    +0.000 A 
ENDBRANCH   3  11
BRANCH   1  18
ATOM     18  C   UNL     1      35.040   2.042  16.222  0.00  0.00    +0.000 C 
ATOM     19  O   UNL     1      33.988   2.815  16.035  0.00  0.00    +0.000 OA
BRANCH  18  20
ATOM     20  O   UNL     1      34.728   0.836  16.753  0.00  0.00    +0.000 OA
BRANCH  20  21
ATOM     21  N   UNL     1      35.770   0.087  17.403  0.00  0.00    +0.000 NA
BRANCH  21  23
ATOM     22  C   UNL     1      35.354  -2.192  17.177  0.00  0.00    +0.000 C 
ATOM     23  C   UNL     1      36.072  -1.142  16.769  0.00  0.00    +0.000 C 
BRANCH  23  24
ATOM     24  C   UNL     1      37.100  -1.364  15.777  0.00  0.00    +0.000 A 
ATOM     25  C   UNL     1      38.336  -0.717  15.930  0.00  0.00    +0.000 A 
ATOM     26  C   UNL     1      39.377  -0.845  15.055  0.00  0.00    +0.000 A 
ATOM     27  C   UNL     1      39.243  -1.671  13.922  0.00  0.00    +0.000 A 
ATOM     28  C   UNL     1      38.030  -2.311  13.770  0.00  0.00    +0.000 A 
ATOM     29  C   UNL     1      36.998  -2.151  14.671  0.00  0.00    +0.000 A 
BRANCH  27  30
ATOM     30  C   UNL     1      40.360  -1.847  12.929  0.00  0.00    +0.000 C 
ATOM     31  C   UNL     1      41.304  -0.694  12.986  0.00  0.00    +0.000 C 
ATOM     32  C   UNL     1      41.114  -3.120  13.284  0.00  0.00    +0.000 C 
ATOM     33  C   UNL     1      39.742  -1.979  11.572  0.00  0.00    +0.000 C 
ENDBRANCH  27  30
ENDBRANCH  23  24
ENDBRANCH  21  23
ENDBRANCH  20  21
ENDBRANCH  18  20
ENDBRANCH   1  18
TORSDOF 7
ENDMDL
MODEL 2
REMARK VINA RESULT:      -8.1      2.199      3.831
REMARK  Name = 
REMARK  7 active torsions:
REMARK  status: ('A' for Active; 'I' for Inactive)
REMARK    1  A    between atoms: C_2  and  N_3
REMARK    2  A    between atoms: C_2  and  C_24
REMARK    3  A    between atoms: N_3  and  O_4
REMARK    4  A    between atoms: O_4  and  C_5
REMARK    5  A    between atoms: C_5  and  C_7
REMARK    6  A    between atoms: C_9  and  C_10
REMARK    7  A    between atoms: C_27  and  C_28
REMARK                            x       y       z     vdW  Elec       q    Type
REMARK                         _______ _______ _______ _____ _____    ______ ____
ROOT
ATOM      1  C   UNL     1      37.365   4.271  14.587  0.00  0.00    +0.000 A 
ATOM      2  C   UNL     1      38.318   4.958  15.324  0.00  0.00    +0.000 A 
ATOM      3  C   UNL     1      38.566   4.770  16.603  0.00  0.00    +0.000 A 
ATOM      4  N   UNL     1      37.851   3.820  17.373  0.00  0.00    +0.000 NA
ATOM      5  C   UNL     1      36.922   3.107  16.730  0.00  0.00    +0.000 A 
ATOM      6  C   UNL     1      36.153   2.115  17.240  0.00  0.00    +0.000 A 
ATOM      7  C   UNL     1      35.227   1.328  16.737  0.00  0.00    +0.000 A 
ATOM      8  C   UNL     1      34.985   1.578  15.264  0.00  0.00    +0.000 A 
ATOM      9  C   UNL     1      35.738   2.545  14.765  0.00  0.00    +0.000 A 
ATOM     10  C   UNL     1      36.671   3.327  15.346  0.00  0.00    +0.000 A 
ENDROOT
BRANCH   3  11
ATOM     11  C   UNL     1      39.511   5.502  17.472  0.00  0.00    +0.000 A 
ATOM     12  C   UNL     1      39.165   5.689  18.825  0.00  0.00    +0.000 A 
ATOM     13  C   UNL     1      40.051   6.252  19.694  0.00  0.00    +0.000 A 
ATOM     14  C   UNL     1      41.306   6.641  19.235  0.00  0.00    +0.000 A 
ATOM     15  C   UNL     1      41.686   6.476  17.914  0.00  0.00    +0.000 A 
ATOM     16  C   UNL     1      43.006   6.880  17.451  0.00  0.00    +0.000 C 
ATOM     17  C   UNL     1      40.761   5.906  17.060  0.00  0.00    +0.000 A 
ENDBRANCH   3  11
BRANCH   1  18
ATOM     18  C   UNL     1      37.026   4.524  13.239  0.00  0.00    +0.000 C 
ATOM     19  O   UNL     1      36.120   5.468  13.074  0.00  0.00    +0.000 OA
BRANCH  18  20
ATOM     20  O   UNL     1      37.454   3.985  12.073  0.00  0.00    +0.000 OA
BRANCH  20  21
ATOM     21  N   UNL     1      38.790   3.454  12.017  0.00  0.00    +0.000 NA
BRANCH  21  23
ATOM     22  C   UNL     1      39.276   1.659  10.616  0.00  0.00    +0.000 C 
ATOM     23  C   UNL     1      38.840   2.053  11.817  0.00  0.00    +0.000 C 
BRANCH  23  24
ATOM     24  C   UNL     1      38.425   1.037  12.758  0.00  0.00    +0.000 A 
ATOM     25  C   UNL     1      39.063   0.972  14.005  0.00  0.00    +0.000 A 
ATOM     26  C   UNL     1      38.760   0.052  14.969  0.00  0.00    +0.000 A 
ATOM     27  C   UNL     1      37.749  -0.900  14.737  0.00  0.00    +0.000 A 
ATOM     28  C   UNL     1      37.119  -0.838  13.511  0.00  0.00    +0.000 A 
ATOM     29  C   UNL     1      37.456   0.101  12.559  0.00  0.00    +0.000 A 
BRANCH  27  30
ATOM     30  C   UNL     1      37.378  -1.933  15.766  0.00  0.00    +0.000 C 
ATOM     31  C   UNL     1      37.632  -1.422  17.144  0.00  0.00    +0.000 C 
ATOM     32  C   UNL     1      35.894  -2.236  15.618  0.00  0.00    +0.000 C 
ATOM     33  C   UNL     1      38.183  -3.163  15.483  0.00  0.00    +0.000 C 
ENDBRANCH  27  30
ENDBRANCH  23  24
ENDBRANCH  21  23
ENDBRANCH  20  21
ENDBRANCH  18  20
ENDBRANCH   1  18
TORSDOF 7
ENDMDL
MODEL 3
REMARK VINA RESULT:      -8.1      2.967      5.752
REMARK  Name = 
REMARK  7 active torsions:
REMARK  status: ('A' for Active; 'I' for Inactive)
REMARK    1  A    between atoms: C_2  and  N_3
REMARK    2  A    between atoms: C_2  and  C_24
REMARK    3  A    between atoms: N_3  and  O_4
REMARK    4  A    between atoms: O_4  and  C_5
REMARK    5  A    between atoms: C_5  and  C_7
REMARK    6  A    between atoms: C_9  and  C_10
REMARK    7  A    between atoms: C_27  and  C_28
REMARK                            x       y       z     vdW  Elec       q    Type
REMARK                         _______ _______ _______ _____ _____    ______ ____
ROOT
ATOM      1  C   UNL     1      37.661  -1.556  16.756  0.00  0.00    +0.000 A 
ATOM      2  C   UNL     1      38.916  -1.445  16.177  0.00  0.00    +0.000 A 
ATOM      3  C   UNL     1      39.305  -2.072  15.086  0.00  0.00    +0.000 A 
ATOM      4  N   UNL     1      38.450  -2.954  14.384  0.00  0.00    +0.000 NA
ATOM      5  C   UNL     1      37.215  -3.105  14.873  0.00  0.00    +0.000 A 
ATOM      6  C   UNL     1      36.212  -3.851  14.349  0.00  0.00    +0.000 A 
ATOM      7  C   UNL     1      34.966  -4.080  14.701  0.00  0.00    +0.000 A 
ATOM      8  C   UNL     1      34.566  -3.332  15.954  0.00  0.00    +0.000 A 
ATOM      9  C   UNL     1      35.544  -2.601  16.464  0.00  0.00    +0.000 A 
ATOM     10  C   UNL     1      36.816  -2.417  16.053  0.00  0.00    +0.000 A 
ENDROOT
BRANCH   3  11
ATOM     11  C   UNL     1      40.638  -2.060  14.447  0.00  0.00    +0.000 A 
ATOM     12  C   UNL     1      40.993  -3.147  13.625  0.00  0.00    +0.000 A 
ATOM     13  C   UNL     1      42.158  -3.129  12.920  0.00  0.00    +0.000 A 
ATOM     14  C   UNL     1      43.000  -2.025  13.017  0.00  0.00    +0.000 A 
ATOM     15  C   UNL     1      42.689  -0.936  13.812  0.00  0.00    +0.000 A 
ATOM     16  C   UNL     1      43.576   0.216  13.895  0.00  0.00    +0.000 C 
ATOM     17  C   UNL     1      41.502  -0.990  14.517  0.00  0.00    +0.000 A 
ENDBRANCH   3  11
BRANCH   1  18
ATOM     18  C   UNL     1      37.259  -0.962  17.973  0.00  0.00    +0.000 C 
ATOM     19  O   UNL     1      37.805  -1.498  19.047  0.00  0.00    +0.000 OA
BRANCH  18  20
ATOM     20  O   UNL     1      36.418   0.061  18.256  0.00  0.00    +0.000 OA
BRANCH  20  21
ATOM     21  N   UNL     1      36.706   1.354  17.696  0.00  0.00    +0.000 NA
BRANCH  21  23
ATOM     22  C   UNL     1      34.932   1.940  16.307  0.00  0.00    +0.000 C 
ATOM     23  C   UNL     1      36.204   1.535  16.385  0.00  0.00    +0.000 C 
BRANCH  23  24
ATOM     24  C   UNL     1      36.914   1.278  15.152  0.00  0.00    +0.000 A 
ATOM     25  C   UNL     1      38.203   1.808  14.994  0.00  0.00    +0.000 A 
ATOM     26  C   UNL     1      38.965   1.637  13.873  0.00  0.00    +0.000 A 
ATOM     27  C   UNL     1      38.464   0.886  12.792  0.00  0.00    +0.000 A 
ATOM     28  C   UNL     1      37.196   0.363  12.945  0.00  0.00    +0.000 A 
ATOM     29  C   UNL     1      36.453   0.562  14.090  0.00  0.00    +0.000 A 
BRANCH  27  30
ATOM     30  C   UNL     1      39.263   0.668  11.536  0.00  0.00    +0.000 C 
ATOM     31  C   UNL     1      39.446  -0.788  11.272  0.00  0.00    +0.000 C 
ATOM     32  C   UNL     1      38.499   1.288  10.375  0.00  0.00    +0.000 C 
ATOM     33  C   UNL     1      40.579   1.361  11.711  0.00  0.00    +0.000 C 
ENDBRANCH  27  30
ENDBRANCH  23  24
ENDBRANCH  21  23
ENDBRANCH  20  21
ENDBRANCH  18  20
ENDBRANCH   1  18
TORSDOF 7
ENDMDL
MODEL 4
REMARK VINA RESULT:      -7.7      2.010      5.719
REMARK  Name = 
REMARK  7 active torsions:
REMARK  status: ('A' for Active; 'I' for Inactive)
REMARK    1  A    between atoms: C_2  and  N_3
REMARK    2  A    between atoms: C_2  and  C_24
REMARK    3  A    between atoms: N_3  and  O_4
REMARK    4  A    between atoms: O_4  and  C_5
REMARK    5  A    between atoms: C_5  and  C_7
REMARK    6  A    between atoms: C_9  and  C_10
REMARK    7  A    between atoms: C_27  and  C_28
REMARK                            x       y       z     vdW  Elec       q    Type
REMARK                         _______ _______ _______ _____ _____    ______ ____
ROOT
ATOM      1  C   UNL     1      36.207   3.966  14.592  0.00  0.00    +0.000 A 
ATOM      2  C   UNL     1      35.787   2.667  14.835  0.00  0.00    +0.000 A 
ATOM      3  C   UNL     1      36.155   1.931  15.862  0.00  0.00    +0.000 A 
ATOM      4  N   UNL     1      37.054   2.412  16.844  0.00  0.00    +0.000 NA
ATOM      5  C   UNL     1      37.495   3.663  16.688  0.00  0.00    +0.000 A 
ATOM      6  C   UNL     1      38.316   4.352  17.519  0.00  0.00    +0.000 A 
ATOM      7  C   UNL     1      38.814   5.569  17.507  0.00  0.00    +0.000 A 
ATOM      8  C   UNL     1      38.354   6.377  16.312  0.00  0.00    +0.000 A 
ATOM      9  C   UNL     1      37.551   5.705  15.502  0.00  0.00    +0.000 A 
ATOM     10  C   UNL     1      37.083   4.442  15.570  0.00  0.00    +0.000 A 
ENDROOT
BRANCH   3  11
ATOM     11  C   UNL     1      35.808   0.524  16.155  0.00  0.00    +0.000 A 
ATOM     12  C   UNL     1      34.991   0.258  17.271  0.00  0.00    +0.000 A 
ATOM     13  C   UNL     1      34.544  -1.006  17.515  0.00  0.00    +0.000 A 
ATOM     14  C   UNL     1      34.903  -2.037  16.652  0.00  0.00    +0.000 A 
ATOM     15  C   UNL     1      35.704  -1.819  15.545  0.00  0.00    +0.000 A 
ATOM     16  C   UNL     1      36.063  -2.907  14.645  0.00  0.00    +0.000 C 
ATOM     17  C   UNL     1      36.142  -0.526  15.330  0.00  0.00    +0.000 A 
ENDBRANCH   3  11
BRANCH   1  18
ATOM     18  C   UNL     1      35.893   4.735  13.450  0.00  0.00    +0.000 C 
ATOM     19  O   UNL     1      34.852   5.531  13.599  0.00  0.00    +0.000 OA
BRANCH  18  20
ATOM     20  O   UNL     1      36.458   4.820  12.223  0.00  0.00    +0.000 OA
BRANCH  20  21
ATOM     21  N   UNL     1      37.814   4.365  12.064  0.00  0.00    +0.000 NA
BRANCH  21  23
ATOM     22  C   UNL     1      37.414   2.755  10.430  0.00  0.00    +0.000 C 
ATOM     23  C   UNL     1      37.919   3.019  11.640  0.00  0.00    +0.000 C 
BRANCH  23  24
ATOM     24  C   UNL     1      38.467   1.920  12.403  0.00  0.00    +0.000 A 
ATOM     25  C   UNL     1      38.269   0.611  11.938  0.00  0.00    +0.000 A 
ATOM     26  C   UNL     1      38.733  -0.503  12.578  0.00  0.00    +0.000 A 
ATOM     27  C   UNL     1      39.463  -0.372  13.775  0.00  0.00    +0.000 A 
ATOM     28  C   UNL     1      39.661   0.914  14.234  0.00  0.00    +0.000 A 
ATOM     29  C   UNL     1      39.171   2.016  13.564  0.00  0.00    +0.000 A 
BRANCH  27  30
ATOM     30  C   UNL     1      39.996  -1.567  14.517  0.00  0.00    +0.000 C 
ATOM     31  C   UNL     1      39.401  -1.651  15.882  0.00  0.00    +0.000 C 
ATOM     32  C   UNL     1      39.619  -2.816  13.736  0.00  0.00    +0.000 C 
ATOM     33  C   UNL     1      41.486  -1.432  14.580  0.00  0.00    +0.000 C 
ENDBRANCH  27  30
ENDBRANCH  23  24
ENDBRANCH  21  23
ENDBRANCH  20  21
ENDBRANCH  18  20
ENDBRANCH   1  18
TORSDOF 7
ENDMDL
MODEL 5
REMARK VINA RESULT:      -7.6     23.056     26.733
REMARK  Name = 
REMARK  7 active torsions:
REMARK  status: ('A' for Active; 'I' for Inactive)
REMARK    1  A    between atoms: C_2  and  N_3
REMARK    2  A    between atoms: C_2  and  C_24
REMARK    3  A    between atoms: N_3  and  O_4
REMARK    4  A    between atoms: O_4  and  C_5
REMARK    5  A    between atoms: C_5  and  C_7
REMARK    6  A    between atoms: C_9  and  C_10
REMARK    7  A    between atoms: C_27  and  C_28
REMARK                            x       y       z     vdW  Elec       q    Type
REMARK                         _______ _______ _______ _____ _____    ______ ____
ROOT
ATOM      1  C   UNL     1      12.698   0.303  27.292  0.00  0.00    +0.000 A 
ATOM      2  C   UNL     1      12.175  -0.793  26.622  0.00  0.00    +0.000 A 
ATOM      3  C   UNL     1      11.141  -0.761  25.809  0.00  0.00    +0.000 A 
ATOM      4  N   UNL     1      10.438   0.438  25.539  0.00  0.00    +0.000 NA
ATOM      5  C   UNL     1      10.889   1.543  26.138  0.00  0.00    +0.000 A 
ATOM      6  C   UNL     1      10.414   2.805  25.995  0.00  0.00    +0.000 A 
ATOM      7  C   UNL     1      10.758   3.971  26.496  0.00  0.00    +0.000 A 
ATOM      8  C   UNL     1      11.955   3.882  27.418  0.00  0.00    +0.000 A 
ATOM      9  C   UNL     1      12.421   2.651  27.555  0.00  0.00    +0.000 A 
ATOM     10  C   UNL     1      12.010   1.485  27.014  0.00  0.00    +0.000 A 
ENDROOT
BRANCH   3  11
ATOM     11  C   UNL     1      10.484  -1.888  25.113  0.00  0.00    +0.000 A 
ATOM     12  C   UNL     1       9.077  -1.949  25.123  0.00  0.00    +0.000 A 
ATOM     13  C   UNL     1       8.421  -2.898  24.399  0.00  0.00    +0.000 A 
ATOM     14  C   UNL     1       9.153  -3.812  23.646  0.00  0.00    +0.000 A 
ATOM     15  C   UNL     1      10.536  -3.787  23.609  0.00  0.00    +0.000 A 
ATOM     16  C   UNL     1      11.288  -4.744  22.809  0.00  0.00    +0.000 C 
ATOM     17  C   UNL     1      11.169  -2.814  24.359  0.00  0.00    +0.000 A 
ENDBRANCH   3  11
BRANCH   1  18
ATOM     18  C   UNL     1      13.748   0.268  28.237  0.00  0.00    +0.000 C 
ATOM     19  O   UNL     1      13.362   0.008  29.470  0.00  0.00    +0.000 OA
BRANCH  18  20
ATOM     20  O   UNL     1      15.085   0.447  28.123  0.00  0.00    +0.000 OA
BRANCH  20  21
ATOM     21  N   UNL     1      15.753  -0.114  26.979  0.00  0.00    +0.000 NA
BRANCH  21  23
ATOM     22  C   UNL     1      17.703   0.341  28.167  0.00  0.00    +0.000 C 
ATOM     23  C   UNL     1      17.153   0.098  26.973  0.00  0.00    +0.000 C 
BRANCH  23  24
ATOM     24  C   UNL     1      18.011   0.124  25.810  0.00  0.00    +0.000 A 
ATOM     25  C   UNL     1      18.477  -1.093  25.289  0.00  0.00    +0.000 A 
ATOM     26  C   UNL     1      19.298  -1.191  24.201  0.00  0.00    +0.000 A 
ATOM     27  C   UNL     1      19.717  -0.026  23.531  0.00  0.00    +0.000 A 
ATOM     28  C   UNL     1      19.259   1.172  24.039  0.00  0.00    +0.000 A 
ATOM     29  C   UNL     1      18.437   1.234  25.146  0.00  0.00    +0.000 A 
BRANCH  27  30
ATOM     30  C   UNL     1      20.619  -0.081  22.328  0.00  0.00    +0.000 C 
ATOM     31  C   UNL     1      21.927   0.576  22.616  0.00  0.00    +0.000 C 
ATOM     32  C   UNL     1      20.866  -1.543  21.987  0.00  0.00    +0.000 C 
ATOM     33  C   UNL     1      19.907   0.595  21.198  0.00  0.00    +0.000 C 
ENDBRANCH  27  30
ENDBRANCH  23  24
ENDBRANCH  21  23
ENDBRANCH  20  21
ENDBRANCH  18  20
ENDBRANCH   1  18
TORSDOF 7
ENDMDL
MODEL 6
REMARK VINA RESULT:      -7.4      1.894      8.040
REMARK  Name = 
REMARK  7 active torsions:
REMARK  status: ('A' for Active; 'I' for Inactive)
REMARK    1  A    between atoms: C_2  and  N_3
REMARK    2  A    between atoms: C_2  and  C_24
REMARK    3  A    between atoms: N_3  and  O_4
REMARK    4  A    between atoms: O_4  and  C_5
REMARK    5  A    between atoms: C_5  and  C_7
REMARK    6  A    between atoms: C_9  and  C_10
REMARK    7  A    between atoms: C_27  and  C_28
REMARK                            x       y       z     vdW  Elec       q    Type
REMARK                         _______ _______ _______ _____ _____    ______ ____
ROOT
ATOM      1  C   UNL     1      37.578  -0.647  15.890  0.00  0.00    +0.000 A 
ATOM      2  C   UNL     1      38.267  -1.029  14.749  0.00  0.00    +0.000 A 
ATOM      3  C   UNL     1      39.112  -2.036  14.674  0.00  0.00    +0.000 A 
ATOM      4  N   UNL     1      39.412  -2.845  15.796  0.00  0.00    +0.000 NA
ATOM      5  C   UNL     1      38.777  -2.549  16.934  0.00  0.00    +0.000 A 
ATOM      6  C   UNL     1      38.864  -3.208  18.115  0.00  0.00    +0.000 A 
ATOM      7  C   UNL     1      38.299  -3.047  19.293  0.00  0.00    +0.000 A 
ATOM      8  C   UNL     1      37.332  -1.883  19.324  0.00  0.00    +0.000 A 
ATOM      9  C   UNL     1      37.246  -1.242  18.169  0.00  0.00    +0.000 A 
ATOM     10  C   UNL     1      37.867  -1.456  16.991  0.00  0.00    +0.000 A 
ENDROOT
BRANCH   3  11
ATOM     11  C   UNL     1      39.931  -2.463  13.521  0.00  0.00    +0.000 A 
ATOM     12  C   UNL     1      39.351  -2.420  12.238  0.00  0.00    +0.000 A 
ATOM     13  C   UNL     1      40.099  -2.689  11.131  0.00  0.00    +0.000 A 
ATOM     14  C   UNL     1      41.445  -3.009  11.277  0.00  0.00    +0.000 A 
ATOM     15  C   UNL     1      42.054  -3.063  12.518  0.00  0.00    +0.000 A 
ATOM     16  C   UNL     1      43.467  -3.390  12.653  0.00  0.00    +0.000 C 
ATOM     17  C   UNL     1      41.265  -2.789  13.619  0.00  0.00    +0.000 A 
ENDBRANCH   3  11
BRANCH   1  18
ATOM     18  C   UNL     1      36.739   0.483  16.008  0.00  0.00    +0.000 C 
ATOM     19  O   UNL     1      35.540   0.329  15.483  0.00  0.00    +0.000 OA
BRANCH  18  20
ATOM     20  O   UNL     1      36.925   1.704  16.564  0.00  0.00    +0.000 OA
BRANCH  20  21
ATOM     21  N   UNL     1      36.882   2.857  15.706  0.00  0.00    +0.000 NA
BRANCH  21  23
ATOM     22  C   UNL     1      38.789   3.127  14.399  0.00  0.00    +0.000 C 
ATOM     23  C   UNL     1      38.141   3.476  15.515  0.00  0.00    +0.000 C 
BRANCH  23  24
ATOM     24  C   UNL     1      38.793   4.392  16.423  0.00  0.00    +0.000 A 
ATOM     25  C   UNL     1      38.409   4.390  17.773  0.00  0.00    +0.000 A 
ATOM     26  C   UNL     1      38.949   5.214  18.720  0.00  0.00    +0.000 A 
ATOM     27  C   UNL     1      39.956   6.130  18.360  0.00  0.00    +0.000 A 
ATOM     28  C   UNL     1      40.337   6.134  17.034  0.00  0.00    +0.000 A 
ATOM     29  C   UNL     1      39.764   5.291  16.104  0.00  0.00    +0.000 A 
BRANCH  27  30
ATOM     30  C   UNL     1      40.583   7.059  19.365  0.00  0.00    +0.000 C 
ATOM     31  C   UNL     1      41.682   6.373  20.105  0.00  0.00    +0.000 C 
ATOM     32  C   UNL     1      41.161   8.248  18.614  0.00  0.00    +0.000 C 
ATOM     33  C   UNL     1      39.502   7.516  20.294  0.00  0.00    +0.000 C 
ENDBRANCH  27  30
ENDBRANCH  23  24
ENDBRANCH  21  23
ENDBRANCH  20  21
ENDBRANCH  18  20
ENDBRANCH   1  18
TORSDOF 7
ENDMDL
MODEL 7
REMARK VINA RESULT:      -7.1      2.350      4.209
REMARK  Name = 
REMARK  7 active torsions:
REMARK  status: ('A' for Active; 'I' for Inactive)
REMARK    1  A    between atoms: C_2  and  N_3
REMARK    2  A    between atoms: C_2  and  C_24
REMARK    3  A    between atoms: N_3  and  O_4
REMARK    4  A    between atoms: O_4  and  C_5
REMARK    5  A    between atoms: C_5  and  C_7
REMARK    6  A    between atoms: C_9  and  C_10
REMARK    7  A    between atoms: C_27  and  C_28
REMARK                            x       y       z     vdW  Elec       q    Type
REMARK                         _______ _______ _______ _____ _____    ______ ____
ROOT
ATOM      1  C   UNL     1      38.863   3.730  14.558  0.00  0.00    +0.000 A 
ATOM      2  C   UNL     1      39.534   4.513  15.483  0.00  0.00    +0.000 A 
ATOM      3  C   UNL     1      39.098   4.799  16.692  0.00  0.00    +0.000 A 
ATOM      4  N   UNL     1      37.855   4.322  17.172  0.00  0.00    +0.000 NA
ATOM      5  C   UNL     1      37.152   3.547  16.342  0.00  0.00    +0.000 A 
ATOM      6  C   UNL     1      35.967   2.938  16.596  0.00  0.00    +0.000 A 
ATOM      7  C   UNL     1      35.180   2.149  15.898  0.00  0.00    +0.000 A 
ATOM      8  C   UNL     1      35.728   1.844  14.521  0.00  0.00    +0.000 A 
ATOM      9  C   UNL     1      36.886   2.436  14.274  0.00  0.00    +0.000 A 
ATOM     10  C   UNL     1      37.643   3.251  15.039  0.00  0.00    +0.000 A 
ENDROOT
BRANCH   3  11
ATOM     11  C   UNL     1      39.718   5.676  17.708  0.00  0.00    +0.000 A 
ATOM     12  C   UNL     1      41.089   5.976  17.583  0.00  0.00    +0.000 A 
ATOM     13  C   UNL     1      41.680   6.872  18.422  0.00  0.00    +0.000 A 
ATOM     14  C   UNL     1      40.918   7.491  19.408  0.00  0.00    +0.000 A 
ATOM     15  C   UNL     1      39.569   7.225  19.566  0.00  0.00    +0.000 A 
ATOM     16  C   UNL     1      38.783   7.889  20.596  0.00  0.00    +0.000 C 
ATOM     17  C   UNL     1      39.004   6.308  18.700  0.00  0.00    +0.000 A 
ENDBRANCH   3  11
BRANCH   1  18
ATOM     18  C   UNL     1      39.273   3.489  13.228  0.00  0.00    +0.000 C 
ATOM     19  O   UNL     1      38.710   4.277  12.333  0.00  0.00    +0.000 OA
BRANCH  18  20
ATOM     20  O   UNL     1      40.143   2.603  12.687  0.00  0.00    +0.000 OA
BRANCH  20  21
ATOM     21  N   UNL     1      39.770   1.214  12.657  0.00  0.00    +0.000 NA
BRANCH  21  23
ATOM     22  C   UNL     1      41.815   0.538  13.542  0.00  0.00    +0.000 C 
ATOM     23  C   UNL     1      40.485   0.410  13.579  0.00  0.00    +0.000 C 
BRANCH  23  24
ATOM     24  C   UNL     1      39.917  -0.550  14.498  0.00  0.00    +0.000 A 
ATOM     25  C   UNL     1      38.645  -0.299  15.034  0.00  0.00    +0.000 A 
ATOM     26  C   UNL     1      38.013  -1.129  15.916  0.00  0.00    +0.000 A 
ATOM     27  C   UNL     1      38.640  -2.320  16.332  0.00  0.00    +0.000 A 
ATOM     28  C   UNL     1      39.890  -2.570  15.805  0.00  0.00    +0.000 A 
ATOM     29  C   UNL     1      40.502  -1.704  14.922  0.00  0.00    +0.000 A 
BRANCH  27  30
ATOM     30  C   UNL     1      37.986  -3.268  17.300  0.00  0.00    +0.000 C 
ATOM     31  C   UNL     1      36.510  -3.052  17.336  0.00  0.00    +0.000 C 
ATOM     32  C   UNL     1      38.266  -4.689  16.834  0.00  0.00    +0.000 C 
ATOM     33  C   UNL     1      38.603  -3.038  18.645  0.00  0.00    +0.000 C 
ENDBRANCH  27  30
ENDBRANCH  23  24
ENDBRANCH  21  23
ENDBRANCH  20  21
ENDBRANCH  18  20
ENDBRANCH   1  18
TORSDOF 7
ENDMDL
MODEL 8
REMARK VINA RESULT:      -7.1     26.192     30.481
REMARK  Name = 
REMARK  7 active torsions:
REMARK  status: ('A' for Active; 'I' for Inactive)
REMARK    1  A    between atoms: C_2  and  N_3
REMARK    2  A    between atoms: C_2  and  C_24
REMARK    3  A    between atoms: N_3  and  O_4
REMARK    4  A    between atoms: O_4  and  C_5
REMARK    5  A    between atoms: C_5  and  C_7
REMARK    6  A    between atoms: C_9  and  C_10
REMARK    7  A    between atoms: C_27  and  C_28
REMARK                            x       y       z     vdW  Elec       q    Type
REMARK                         _______ _______ _______ _____ _____    ______ ____
ROOT
ATOM      1  C   UNL     1      26.137  14.899  38.719  0.00  0.00    +0.000 A 
ATOM      2  C   UNL     1      25.732  14.900  37.393  0.00  0.00    +0.000 A 
ATOM      3  C   UNL     1      26.266  15.632  36.438  0.00  0.00    +0.000 A 
ATOM      4  N   UNL     1      27.336  16.524  36.689  0.00  0.00    +0.000 NA
ATOM      5  C   UNL     1      27.793  16.571  37.943  0.00  0.00    +0.000 A 
ATOM      6  C   UNL     1      28.834  17.306  38.409  0.00  0.00    +0.000 A 
ATOM      7  C   UNL     1      29.399  17.441  39.589  0.00  0.00    +0.000 A 
ATOM      8  C   UNL     1      28.755  16.573  40.648  0.00  0.00    +0.000 A 
ATOM      9  C   UNL     1      27.741  15.855  40.193  0.00  0.00    +0.000 A 
ATOM     10  C   UNL     1      27.201  15.770  38.960  0.00  0.00    +0.000 A 
ENDROOT
BRANCH   3  11
ATOM     11  C   UNL     1      25.851  15.741  35.024  0.00  0.00    +0.000 A 
ATOM     12  C   UNL     1      25.901  14.583  34.224  0.00  0.00    +0.000 A 
ATOM     13  C   UNL     1      25.419  14.601  32.950  0.00  0.00    +0.000 A 
ATOM     14  C   UNL     1      24.874  15.777  32.441  0.00  0.00    +0.000 A 
ATOM     15  C   UNL     1      24.806  16.937  33.193  0.00  0.00    +0.000 A 
ATOM     16  C   UNL     1      24.224  18.156  32.650  0.00  0.00    +0.000 C 
ATOM     17  C   UNL     1      25.308  16.883  34.479  0.00  0.00    +0.000 A 
ENDBRANCH   3  11
BRANCH   1  18
ATOM     18  C   UNL     1      25.517  14.188  39.770  0.00  0.00    +0.000 C 
ATOM     19  O   UNL     1      26.019  12.988  39.987  0.00  0.00    +0.000 OA
BRANCH  18  20
ATOM     20  O   UNL     1      24.502  14.502  40.610  0.00  0.00    +0.000 OA
BRANCH  20  21
ATOM     21  N   UNL     1      23.331  15.130  40.060  0.00  0.00    +0.000 NA
BRANCH  21  23
ATOM     22  C   UNL     1      22.388  16.937  41.184  0.00  0.00    +0.000 C 
ATOM     23  C   UNL     1      23.278  16.529  40.275  0.00  0.00    +0.000 C 
BRANCH  23  24
ATOM     24  C   UNL     1      24.049  17.533  39.577  0.00  0.00    +0.000 A 
ATOM     25  C   UNL     1      25.004  18.269  40.294  0.00  0.00    +0.000 A 
ATOM     26  C   UNL     1      25.784  19.246  39.743  0.00  0.00    +0.000 A 
ATOM     27  C   UNL     1      25.655  19.559  38.376  0.00  0.00    +0.000 A 
ATOM     28  C   UNL     1      24.718  18.835  37.668  0.00  0.00    +0.000 A 
ATOM     29  C   UNL     1      23.943  17.860  38.259  0.00  0.00    +0.000 A 
BRANCH  27  30
ATOM     30  C   UNL     1      26.491  20.625  37.722  0.00  0.00    +0.000 C 
ATOM     31  C   UNL     1      25.737  21.909  37.633  0.00  0.00    +0.000 C 
ATOM     32  C   UNL     1      27.734  20.841  38.573  0.00  0.00    +0.000 C 
ATOM     33  C   UNL     1      26.880  20.126  36.365  0.00  0.00    +0.000 C 
ENDBRANCH  27  30
ENDBRANCH  23  24
ENDBRANCH  21  23
ENDBRANCH  20  21
ENDBRANCH  18  20
ENDBRANCH   1  18
TORSDOF 7
ENDMDL
MODEL 9
REMARK VINA RESULT:      -7.0      1.443      2.222
REMARK  Name = 
REMARK  7 active torsions:
REMARK  status: ('A' for Active; 'I' for Inactive)
REMARK    1  A    between atoms: C_2  and  N_3
REMARK    2  A    between atoms: C_2  and  C_24
REMARK    3  A    between atoms: N_3  and  O_4
REMARK    4  A    between atoms: O_4  and  C_5
REMARK    5  A    between atoms: C_5  and  C_7
REMARK    6  A    between atoms: C_9  and  C_10
REMARK    7  A    between atoms: C_27  and  C_28
REMARK                            x       y       z     vdW  Elec       q    Type
REMARK                         _______ _______ _______ _____ _____    ______ ____
ROOT
ATOM      1  C   UNL     1      37.064   3.778  15.680  0.00  0.00    +0.000 A 
ATOM      2  C   UNL     1      37.413   4.602  16.739  0.00  0.00    +0.000 A 
ATOM      3  C   UNL     1      38.576   5.200  16.883  0.00  0.00    +0.000 A 
ATOM      4  N   UNL     1      39.619   5.047  15.938  0.00  0.00    +0.000 NA
ATOM      5  C   UNL     1      39.356   4.276  14.879  0.00  0.00    +0.000 A 
ATOM      6  C   UNL     1      40.174   4.024  13.827  0.00  0.00    +0.000 A 
ATOM      7  C   UNL     1      40.051   3.314  12.726  0.00  0.00    +0.000 A 
ATOM      8  C   UNL     1      38.695   2.653  12.605  0.00  0.00    +0.000 A 
ATOM      9  C   UNL     1      37.896   2.902  13.630  0.00  0.00    +0.000 A 
ATOM     10  C   UNL     1      38.091   3.639  14.744  0.00  0.00    +0.000 A 
ENDROOT
BRANCH   3  11
ATOM     11  C   UNL     1      39.046   6.034  18.009  0.00  0.00    +0.000 A 
ATOM     12  C   UNL     1      38.194   7.047  18.490  0.00  0.00    +0.000 A 
ATOM     13  C   UNL     1      38.529   7.764  19.600  0.00  0.00    +0.000 A 
ATOM     14  C   UNL     1      39.724   7.488  20.257  0.00  0.00    +0.000 A 
ATOM     15  C   UNL     1      40.591   6.502  19.818  0.00  0.00    +0.000 A 
ATOM     16  C   UNL     1      41.833   6.219  20.522  0.00  0.00    +0.000 C 
ATOM     17  C   UNL     1      40.221   5.798  18.687  0.00  0.00    +0.000 A 
ENDBRANCH   3  11
BRANCH   1  18
ATOM     18  C   UNL     1      35.856   3.058  15.558  0.00  0.00    +0.000 C 
ATOM     19  O   UNL     1      34.883   3.722  14.965  0.00  0.00    +0.000 OA
BRANCH  18  20
ATOM     20  O   UNL     1      35.498   1.805  15.929  0.00  0.00    +0.000 OA
BRANCH  20  21
ATOM     21  N   UNL     1      36.396   1.060  16.769  0.00  0.00    +0.000 NA
BRANCH  21  23
ATOM     22  C   UNL     1      36.278  -1.265  16.810  0.00  0.00    +0.000 C 
ATOM     23  C   UNL     1      36.795  -0.182  16.220  0.00  0.00    +0.000 C 
BRANCH  23  24
ATOM     24  C   UNL     1      37.730  -0.379  15.135  0.00  0.00    +0.000 A 
ATOM     25  C   UNL     1      37.229  -0.687  13.861  0.00  0.00    +0.000 A 
ATOM     26  C   UNL     1      38.015  -0.902  12.765  0.00  0.00    +0.000 A 
ATOM     27  C   UNL     1      39.416  -0.811  12.877  0.00  0.00    +0.000 A 
ATOM     28  C   UNL     1      39.912  -0.506  14.128  0.00  0.00    +0.000 A 
ATOM     29  C   UNL     1      39.087  -0.304  15.215  0.00  0.00    +0.000 A 
BRANCH  27  30
ATOM     30  C   UNL     1      40.325  -1.036  11.700  0.00  0.00    +0.000 C 
ATOM     31  C   UNL     1      40.525  -2.495  11.458  0.00  0.00    +0.000 C 
ATOM     32  C   UNL     1      39.674  -0.417  10.473  0.00  0.00    +0.000 C 
ATOM     33  C   UNL     1      41.623  -0.349  11.993  0.00  0.00    +0.000 C 
ENDBRANCH  27  30
ENDBRANCH  23  24
ENDBRANCH  21  23
ENDBRANCH  20  21
ENDBRANCH  18  20
ENDBRANCH   1  18
TORSDOF 7
ENDMDL
MODEL 10
REMARK VINA RESULT:      -7.0      2.579      5.980
REMARK  Name = 
REMARK  7 active torsions:
REMARK  status: ('A' for Active; 'I' for Inactive)
REMARK    1  A    between atoms: C_2  and  N_3
REMARK    2  A    between atoms: C_2  and  C_24
REMARK    3  A    between atoms: N_3  and  O_4
REMARK    4  A    between atoms: O_4  and  C_5
REMARK    5  A    between atoms: C_5  and  C_7
REMARK    6  A    between atoms: C_9  and  C_10
REMARK    7  A    between atoms: C_27  and  C_28
REMARK                            x       y       z     vdW  Elec       q    Type
REMARK                         _______ _______ _______ _____ _____    ______ ____
ROOT
ATOM      1  C   UNL     1      39.177   5.431  15.565  0.00  0.00    +0.000 A 
ATOM      2  C   UNL     1      38.128   4.526  15.619  0.00  0.00    +0.000 A 
ATOM      3  C   UNL     1      37.660   3.974  16.719  0.00  0.00    +0.000 A 
ATOM      4  N   UNL     1      38.210   4.257  17.992  0.00  0.00    +0.000 NA
ATOM      5  C   UNL     1      39.219   5.133  18.025  0.00  0.00    +0.000 A 
ATOM      6  C   UNL     1      39.867   5.594  19.123  0.00  0.00    +0.000 A 
ATOM      7  C   UNL     1      40.847   6.451  19.310  0.00  0.00    +0.000 A 
ATOM      8  C   UNL     1      41.344   7.063  18.018  0.00  0.00    +0.000 A 
ATOM      9  C   UNL     1      40.709   6.615  16.947  0.00  0.00    +0.000 A 
ATOM     10  C   UNL     1      39.709   5.718  16.824  0.00  0.00    +0.000 A 
ENDROOT
BRANCH   3  11
ATOM     11  C   UNL     1      36.597   2.956  16.854  0.00  0.00    +0.000 A 
ATOM     12  C   UNL     1      35.556   2.948  15.905  0.00  0.00    +0.000 A 
ATOM     13  C   UNL     1      34.618   1.960  15.915  0.00  0.00    +0.000 A 
ATOM     14  C   UNL     1      34.695   0.954  16.873  0.00  0.00    +0.000 A 
ATOM     15  C   UNL     1      35.700   0.923  17.823  0.00  0.00    +0.000 A 
ATOM     16  C   UNL     1      35.772  -0.142  18.813  0.00  0.00    +0.000 C 
ATOM     17  C   UNL     1      36.631   1.944  17.786  0.00  0.00    +0.000 A 
ENDBRANCH   3  11
BRANCH   1  18
ATOM     18  C   UNL     1      39.748   5.962  14.388  0.00  0.00    +0.000 C 
ATOM     19  O   UNL     1      39.439   7.223  14.152  0.00  0.00    +0.000 OA
BRANCH  18  20
ATOM     20  O   UNL     1      40.561   5.428  13.446  0.00  0.00    +0.000 OA
BRANCH  20  21
ATOM     21  N   UNL     1      41.042   4.086  13.642  0.00  0.00    +0.000 NA
BRANCH  21  23
ATOM     22  C   UNL     1      39.943   3.362  11.721  0.00  0.00    +0.000 C 
ATOM     23  C   UNL     1      40.262   3.098  12.993  0.00  0.00    +0.000 C 
BRANCH  23  24
ATOM     24  C   UNL     1      39.751   1.883  13.585  0.00  0.00    +0.000 A 
ATOM     25  C   UNL     1      38.363   1.685  13.626  0.00  0.00    +0.000 A 
ATOM     26  C   UNL     1      37.766   0.581  14.167  0.00  0.00    +0.000 A 
ATOM     27  C   UNL     1      38.557  -0.443  14.721  0.00  0.00    +0.000 A 
ATOM     28  C   UNL     1      39.923  -0.252  14.682  0.00  0.00    +0.000 A 
ATOM     29  C   UNL     1      40.490   0.880  14.134  0.00  0.00    +0.000 A 
BRANCH  27  30
ATOM     30  C   UNL     1      37.949  -1.679  15.328  0.00  0.00    +0.000 C 
ATOM     31  C   UNL     1      38.521  -2.909  14.708  0.00  0.00    +0.000 C 
ATOM     32  C   UNL     1      38.268  -1.682  16.815  0.00  0.00    +0.000 C 
ATOM     33  C   UNL     1      36.468  -1.602  15.121  0.00  0.00    +0.000 C 
ENDBRANCH  27  30
ENDBRANCH  23  24
ENDBRANCH  21  23
ENDBRANCH  20  21
ENDBRANCH  18  20
ENDBRANCH   1  18
TORSDOF 7
ENDMDL
