MODEL 1
REMARK VINA RESULT:      -7.7      0.000      0.000
REMARK  Name = 
REMARK  6 active torsions:
REMARK  status: ('A' for Active; 'I' for Inactive)
REMARK    1  A    between atoms: C_2  and  O_3
REMARK    2  A    between atoms: O_3  and  C_4
REMARK    3  A    between atoms: C_7  and  N_8
REMARK    4  A    between atoms: C_12  and  C_13
REMARK    5  A    between atoms: N_18  and  C_19
REMARK    6  A    between atoms: C_19  and  C_20
REMARK                            x       y       z     vdW  Elec       q    Type
REMARK                         _______ _______ _______ _____ _____    ______ ____
ROOT
ATOM      1  N   UNL     1      38.159   7.248  17.171  0.00  0.00    +0.000 N 
ATOM      2  C   UNL     1      37.646   7.537  15.951  0.00  0.00    +0.000 A 
ATOM      3  C   UNL     1      37.144   8.857  15.492  0.00  0.00    +0.000 C 
ATOM      4  C   UNL     1      37.704   6.328  15.254  0.00  0.00    +0.000 A 
ATOM      5  C   UNL     1      38.238   5.334  16.032  0.00  0.00    +0.000 A 
ATOM      6  C   UNL     1      38.516   5.941  17.239  0.00  0.00    +0.000 A 
ATOM      7  C   UNL     1      39.116   5.236  18.395  0.00  0.00    +0.000 C 
ENDROOT
BRANCH   5   8
ATOM      8  C   UNL     1      38.470   3.947  15.643  0.00  0.00    +0.000 C 
ATOM      9  C   UNL     1      37.623   2.968  15.831  0.00  0.00    +0.000 C 
ATOM     10  N   UNL     1      36.348   3.077  16.435  0.00  0.00    +0.000 NA
ATOM     11  C   UNL     1      35.705   1.810  16.464  0.00  0.00    +0.000 C 
ATOM     12  O   UNL     1      34.536   1.640  16.959  0.00  0.00    +0.000 OA
ATOM     13  N   UNL     1      36.555   0.861  15.879  0.00  0.00    +0.000 N 
ATOM     14  C   UNL     1      37.762   1.545  15.472  0.00  0.00    +0.000 C 
ATOM     15  O   UNL     1      38.722   1.000  14.920  0.00  0.00    +0.000 OA
BRANCH  13  16
ATOM     16  C   UNL     1      36.282  -0.534  15.720  0.00  0.00    +0.000 C 
BRANCH  16  17
ATOM     17  C   UNL     1      37.048  -1.332  16.679  0.00  0.00    +0.000 A 
ATOM     18  C   UNL     1      36.805  -1.264  18.045  0.00  0.00    +0.000 A 
ATOM     19  C   UNL     1      37.549  -2.056  18.894  0.00  0.00    +0.000 A 
ATOM     20  C   UNL     1      38.527  -2.907  18.374  0.00  0.00    +0.000 A 
ATOM     21  C   UNL     1      38.751  -2.957  17.005  0.00  0.00    +0.000 A 
ATOM     22  C   UNL     1      38.018  -2.174  16.146  0.00  0.00    +0.000 A 
ATOM     23  F   UNL     1      38.222  -2.207  14.808  0.00  0.00    +0.000 F 
ENDBRANCH  16  17
ENDBRANCH  13  16
ENDBRANCH   5   8
BRANCH   1  27
ATOM     24  C   UNL     1      38.562   9.993  20.362  0.00  0.00    +0.000 A 
ATOM     25  C   UNL     1      37.423   9.192  20.237  0.00  0.00    +0.000 A 
ATOM     26  C   UNL     1      37.333   8.316  19.187  0.00  0.00    +0.000 A 
ATOM     27  C   UNL     1      38.316   8.178  18.232  0.00  0.00    +0.000 A 
ATOM     28  C   UNL     1      39.424   8.985  18.385  0.00  0.00    +0.000 A 
ATOM     29  C   UNL     1      39.558   9.887  19.436  0.00  0.00    +0.000 A 
BRANCH  24  30
ATOM     30  O   UNL     1      38.673  10.896  21.431  0.00  0.00    +0.000 OA
BRANCH  30  32
ATOM     31  C   UNL     1      38.438  13.049  22.453  0.00  0.00    +0.000 C 
ATOM     32  C   UNL     1      38.570  12.296  21.149  0.00  0.00    +0.000 C 
ENDBRANCH  30  32
ENDBRANCH  24  30
ENDBRANCH   1  27
TORSDOF 6
ENDMDL
MODEL 2
REMARK VINA RESULT:      -7.4      2.414      3.455
REMARK  Name = 
REMARK  6 active torsions:
REMARK  status: ('A' for Active; 'I' for Inactive)
REMARK    1  A    between atoms: C_2  and  O_3
REMARK    2  A    between atoms: O_3  and  C_4
REMARK    3  A    between atoms: C_7  and  N_8
REMARK    4  A    between atoms: C_12  and  C_13
REMARK    5  A    between atoms: N_18  and  C_19
REMARK    6  A    between atoms: C_19  and  C_20
REMARK                            x       y       z     vdW  Elec       q    Type
REMARK                         _______ _______ _______ _____ _____    ______ ____
ROOT
ATOM      1  N   UNL     1      39.015   5.071  16.384  0.00  0.00    +0.000 N 
ATOM      2  C   UNL     1      39.886   5.173  15.351  0.00  0.00    +0.000 A 
ATOM      3  C   UNL     1      40.958   6.187  15.193  0.00  0.00    +0.000 C 
ATOM      4  C   UNL     1      39.539   4.121  14.499  0.00  0.00    +0.000 A 
ATOM      5  C   UNL     1      38.485   3.404  15.004  0.00  0.00    +0.000 A 
ATOM      6  C   UNL     1      38.173   4.025  16.195  0.00  0.00    +0.000 A 
ATOM      7  C   UNL     1      37.084   3.579  17.094  0.00  0.00    +0.000 C 
ENDROOT
BRANCH   5   8
ATOM      8  C   UNL     1      37.858   2.229  14.405  0.00  0.00    +0.000 C 
ATOM      9  C   UNL     1      38.388   1.033  14.380  0.00  0.00    +0.000 C 
ATOM     10  N   UNL     1      39.643   0.669  14.921  0.00  0.00    +0.000 NA
ATOM     11  C   UNL     1      39.887  -0.715  14.713  0.00  0.00    +0.000 C 
ATOM     12  O   UNL     1      40.957  -1.296  15.113  0.00  0.00    +0.000 OA
ATOM     13  N   UNL     1      38.793  -1.269  14.034  0.00  0.00    +0.000 N 
ATOM     14  C   UNL     1      37.836  -0.208  13.808  0.00  0.00    +0.000 C 
ATOM     15  O   UNL     1      36.753  -0.354  13.233  0.00  0.00    +0.000 OA
BRANCH  13  16
ATOM     16  C   UNL     1      38.650  -2.633  13.631  0.00  0.00    +0.000 C 
BRANCH  16  17
ATOM     17  C   UNL     1      37.716  -3.344  14.505  0.00  0.00    +0.000 A 
ATOM     18  C   UNL     1      36.380  -3.513  14.166  0.00  0.00    +0.000 A 
ATOM     19  C   UNL     1      35.556  -4.210  15.025  0.00  0.00    +0.000 A 
ATOM     20  C   UNL     1      36.072  -4.731  16.213  0.00  0.00    +0.000 A 
ATOM     21  C   UNL     1      37.411  -4.550  16.532  0.00  0.00    +0.000 A 
ATOM     22  C   UNL     1      38.244  -3.858  15.685  0.00  0.00    +0.000 A 
ATOM     23  F   UNL     1      39.553  -3.668  15.978  0.00  0.00    +0.000 F 
ENDBRANCH  16  17
ENDBRANCH  13  16
ENDBRANCH   5   8
BRANCH   1  27
ATOM     24  C   UNL     1      38.992   7.585  19.783  0.00  0.00    +0.000 A 
ATOM     25  C   UNL     1      39.802   6.448  19.732  0.00  0.00    +0.000 A 
ATOM     26  C   UNL     1      39.779   5.659  18.611  0.00  0.00    +0.000 A 
ATOM     27  C   UNL     1      38.988   5.929  17.515  0.00  0.00    +0.000 A 
ATOM     28  C   UNL     1      38.201   7.058  17.601  0.00  0.00    +0.000 A 
ATOM     29  C   UNL     1      38.195   7.887  18.719  0.00  0.00    +0.000 A 
BRANCH  24  30
ATOM     30  O   UNL     1      39.003   8.406  20.923  0.00  0.00    +0.000 OA
BRANCH  30  32
ATOM     31  C   UNL     1      40.797   9.938  20.515  0.00  0.00    +0.000 C 
ATOM     32  C   UNL     1      39.312   9.794  20.756  0.00  0.00    +0.000 C 
ENDBRANCH  30  32
ENDBRANCH  24  30
ENDBRANCH   1  27
TORSDOF 6
ENDMDL
MODEL 3
REMARK VINA RESULT:      -7.3      3.402      4.285
REMARK  Name = 
REMARK  6 active torsions:
REMARK  status: ('A' for Active; 'I' for Inactive)
REMARK    1  A    between atoms: C_2  and  O_3
REMARK    2  A    between atoms: O_3  and  C_4
REMARK    3  A    between atoms: C_7  and  N_8
REMARK    4  A    between atoms: C_12  and  C_13
REMARK    5  A    between atoms: N_18  and  C_19
REMARK    6  A    between atoms: C_19  and  C_20
REMARK                            x       y       z     vdW  Elec       q    Type
REMARK                         _______ _______ _______ _____ _____    ______ ____
ROOT
ATOM      1  N   UNL     1      41.467   6.683  18.119  0.00  0.00    +0.000 N 
ATOM      2  C   UNL     1      42.054   6.563  16.904  0.00  0.00    +0.000 A 
ATOM      3  C   UNL     1      43.477   6.831  16.577  0.00  0.00    +0.000 C 
ATOM      4  C   UNL     1      41.023   6.138  16.061  0.00  0.00    +0.000 A 
ATOM      5  C   UNL     1      39.845   6.005  16.750  0.00  0.00    +0.000 A 
ATOM      6  C   UNL     1      40.152   6.356  18.048  0.00  0.00    +0.000 A 
ATOM      7  C   UNL     1      39.170   6.356  19.155  0.00  0.00    +0.000 C 
ENDROOT
BRANCH   5   8
ATOM      8  C   UNL     1      38.561   5.567  16.212  0.00  0.00    +0.000 C 
ATOM      9  C   UNL     1      38.325   4.377  15.722  0.00  0.00    +0.000 C 
ATOM     10  N   UNL     1      39.258   3.318  15.627  0.00  0.00    +0.000 NA
ATOM     11  C   UNL     1      38.648   2.173  15.047  0.00  0.00    +0.000 C 
ATOM     12  O   UNL     1      39.281   1.077  14.853  0.00  0.00    +0.000 OA
ATOM     13  N   UNL     1      37.310   2.474  14.757  0.00  0.00    +0.000 N 
ATOM     14  C   UNL     1      37.071   3.841  15.164  0.00  0.00    +0.000 C 
ATOM     15  O   UNL     1      35.989   4.425  15.050  0.00  0.00    +0.000 OA
BRANCH  13  16
ATOM     16  C   UNL     1      36.355   1.592  14.160  0.00  0.00    +0.000 C 
BRANCH  16  17
ATOM     17  C   UNL     1      35.911   0.576  15.115  0.00  0.00    +0.000 A 
ATOM     18  C   UNL     1      35.173   0.906  16.244  0.00  0.00    +0.000 A 
ATOM     19  C   UNL     1      34.768  -0.102  17.095  0.00  0.00    +0.000 A 
ATOM     20  C   UNL     1      35.103  -1.427  16.811  0.00  0.00    +0.000 A 
ATOM     21  C   UNL     1      35.841  -1.733  15.676  0.00  0.00    +0.000 A 
ATOM     22  C   UNL     1      36.251  -0.740  14.819  0.00  0.00    +0.000 A 
ATOM     23  F   UNL     1      36.974  -1.017  13.708  0.00  0.00    +0.000 F 
ENDBRANCH  16  17
ENDBRANCH  13  16
ENDBRANCH   5   8
BRANCH   1  27
ATOM     24  C   UNL     1      43.453   7.803  21.680  0.00  0.00    +0.000 A 
ATOM     25  C   UNL     1      43.138   6.467  21.418  0.00  0.00    +0.000 A 
ATOM     26  C   UNL     1      42.493   6.147  20.252  0.00  0.00    +0.000 A 
ATOM     27  C   UNL     1      42.131   7.084  19.309  0.00  0.00    +0.000 A 
ATOM     28  C   UNL     1      42.456   8.392  19.600  0.00  0.00    +0.000 A 
ATOM     29  C   UNL     1      43.111   8.761  20.771  0.00  0.00    +0.000 A 
BRANCH  24  30
ATOM     30  O   UNL     1      44.114   8.150  22.870  0.00  0.00    +0.000 OA
BRANCH  30  32
ATOM     31  C   UNL     1      44.291   7.618  25.197  0.00  0.00    +0.000 C 
ATOM     32  C   UNL     1      44.454   7.103  23.786  0.00  0.00    +0.000 C 
ENDBRANCH  30  32
ENDBRANCH  24  30
ENDBRANCH   1  27
TORSDOF 6
ENDMDL
MODEL 4
REMARK VINA RESULT:      -7.1      3.364      4.409
REMARK  Name = 
REMARK  6 active torsions:
REMARK  status: ('A' for Active; 'I' for Inactive)
REMARK    1  A    between atoms: C_2  and  O_3
REMARK    2  A    between atoms: O_3  and  C_4
REMARK    3  A    between atoms: C_7  and  N_8
REMARK    4  A    between atoms: C_12  and  C_13
REMARK    5  A    between atoms: N_18  and  C_19
REMARK    6  A    between atoms: C_19  and  C_20
REMARK                            x       y       z     vdW  Elec       q    Type
REMARK                         _______ _______ _______ _____ _____    ______ ____
ROOT
ATOM      1  N   UNL     1      40.296   7.077  18.932  0.00  0.00    +0.000 N 
ATOM      2  C   UNL     1      39.085   7.421  19.431  0.00  0.00    +0.000 A 
ATOM      3  C   UNL     1      38.818   8.067  20.741  0.00  0.00    +0.000 C 
ATOM      4  C   UNL     1      38.178   7.033  18.442  0.00  0.00    +0.000 A 
ATOM      5  C   UNL     1      38.824   6.468  17.374  0.00  0.00    +0.000 A 
ATOM      6  C   UNL     1      40.161   6.507  17.708  0.00  0.00    +0.000 A 
ATOM      7  C   UNL     1      41.244   6.000  16.834  0.00  0.00    +0.000 C 
ENDROOT
BRANCH   5   8
ATOM      8  C   UNL     1      38.213   5.960  16.149  0.00  0.00    +0.000 C 
ATOM      9  C   UNL     1      37.621   4.799  16.038  0.00  0.00    +0.000 C 
ATOM     10  N   UNL     1      37.468   3.842  17.070  0.00  0.00    +0.000 NA
ATOM     11  C   UNL     1      36.769   2.703  16.587  0.00  0.00    +0.000 C 
ATOM     12  O   UNL     1      36.499   1.693  17.328  0.00  0.00    +0.000 OA
ATOM     13  N   UNL     1      36.458   2.905  15.235  0.00  0.00    +0.000 N 
ATOM     14  C   UNL     1      36.974   4.202  14.856  0.00  0.00    +0.000 C 
ATOM     15  O   UNL     1      36.871   4.693  13.728  0.00  0.00    +0.000 OA
BRANCH  13  16
ATOM     16  C   UNL     1      35.763   1.992  14.382  0.00  0.00    +0.000 C 
BRANCH  16  17
ATOM     17  C   UNL     1      36.681   1.004  13.812  0.00  0.00    +0.000 A 
ATOM     18  C   UNL     1      37.558   1.327  12.785  0.00  0.00    +0.000 A 
ATOM     19  C   UNL     1      38.410   0.355  12.305  0.00  0.00    +0.000 A 
ATOM     20  C   UNL     1      38.380  -0.929  12.854  0.00  0.00    +0.000 A 
ATOM     21  C   UNL     1      37.495  -1.229  13.880  0.00  0.00    +0.000 A 
ATOM     22  C   UNL     1      36.640  -0.270  14.369  0.00  0.00    +0.000 A 
ATOM     23  F   UNL     1      35.767  -0.543  15.368  0.00  0.00    +0.000 F 
ENDBRANCH  16  17
ENDBRANCH  13  16
ENDBRANCH   5   8
BRANCH   1  27
ATOM     24  C   UNL     1      43.993   7.640  20.904  0.00  0.00    +0.000 A 
ATOM     25  C   UNL     1      43.256   6.464  21.073  0.00  0.00    +0.000 A 
ATOM     26  C   UNL     1      42.061   6.323  20.416  0.00  0.00    +0.000 A 
ATOM     27  C   UNL     1      41.538   7.290  19.585  0.00  0.00    +0.000 A 
ATOM     28  C   UNL     1      42.292   8.437  19.443  0.00  0.00    +0.000 A 
ATOM     29  C   UNL     1      43.509   8.621  20.090  0.00  0.00    +0.000 A 
BRANCH  24  30
ATOM     30  O   UNL     1      45.220   7.802  21.569  0.00  0.00    +0.000 OA
BRANCH  30  32
ATOM     31  C   UNL     1      44.444   8.775  23.615  0.00  0.00    +0.000 C 
ATOM     32  C   UNL     1      45.243   7.653  22.993  0.00  0.00    +0.000 C 
ENDBRANCH  30  32
ENDBRANCH  24  30
ENDBRANCH   1  27
TORSDOF 6
ENDMDL
MODEL 5
REMARK VINA RESULT:      -7.1      3.466      4.641
REMARK  Name = 
REMARK  6 active torsions:
REMARK  status: ('A' for Active; 'I' for Inactive)
REMARK    1  A    between atoms: C_2  and  O_3
REMARK    2  A    between atoms: O_3  and  C_4
REMARK    3  A    between atoms: C_7  and  N_8
REMARK    4  A    between atoms: C_12  and  C_13
REMARK    5  A    between atoms: N_18  and  C_19
REMARK    6  A    between atoms: C_19  and  C_20
REMARK                            x       y       z     vdW  Elec       q    Type
REMARK                         _______ _______ _______ _____ _____    ______ ____
ROOT
ATOM      1  N   UNL     1      39.183   5.110  16.307  0.00  0.00    +0.000 N 
ATOM      2  C   UNL     1      40.088   5.280  15.313  0.00  0.00    +0.000 A 
ATOM      3  C   UNL     1      41.121   6.343  15.228  0.00  0.00    +0.000 C 
ATOM      4  C   UNL     1      39.819   4.242  14.418  0.00  0.00    +0.000 A 
ATOM      5  C   UNL     1      38.779   3.465  14.859  0.00  0.00    +0.000 A 
ATOM      6  C   UNL     1      38.394   4.035  16.054  0.00  0.00    +0.000 A 
ATOM      7  C   UNL     1      37.292   3.517  16.896  0.00  0.00    +0.000 C 
ENDROOT
BRANCH   5   8
ATOM      8  C   UNL     1      38.227   2.285  14.201  0.00  0.00    +0.000 C 
ATOM      9  C   UNL     1      38.842   1.135  14.094  0.00  0.00    +0.000 C 
ATOM     10  N   UNL     1      40.133   0.835  14.589  0.00  0.00    +0.000 NA
ATOM     11  C   UNL     1      40.473  -0.513  14.294  0.00  0.00    +0.000 C 
ATOM     12  O   UNL     1      41.592  -1.034  14.638  0.00  0.00    +0.000 OA
ATOM     13  N   UNL     1      39.407  -1.105  13.602  0.00  0.00    +0.000 N 
ATOM     14  C   UNL     1      38.371  -0.108  13.458  0.00  0.00    +0.000 C 
ATOM     15  O   UNL     1      37.289  -0.299  12.894  0.00  0.00    +0.000 OA
BRANCH  13  16
ATOM     16  C   UNL     1      39.356  -2.451  13.119  0.00  0.00    +0.000 C 
BRANCH  16  17
ATOM     17  C   UNL     1      40.197  -2.615  11.933  0.00  0.00    +0.000 A 
ATOM     18  C   UNL     1      39.855  -2.052  10.710  0.00  0.00    +0.000 A 
ATOM     19  C   UNL     1      40.701  -2.228   9.635  0.00  0.00    +0.000 A 
ATOM     20  C   UNL     1      41.878  -2.964   9.789  0.00  0.00    +0.000 A 
ATOM     21  C   UNL     1      42.198  -3.518  11.020  0.00  0.00    +0.000 A 
ATOM     22  C   UNL     1      41.366  -3.350  12.101  0.00  0.00    +0.000 A 
ATOM     23  F   UNL     1      41.659  -3.884  13.311  0.00  0.00    +0.000 F 
ENDBRANCH  16  17
ENDBRANCH  13  16
ENDBRANCH   5   8
BRANCH   1  27
ATOM     24  C   UNL     1      38.806   7.590  19.711  0.00  0.00    +0.000 A 
ATOM     25  C   UNL     1      38.068   7.839  18.551  0.00  0.00    +0.000 A 
ATOM     26  C   UNL     1      38.221   7.010  17.469  0.00  0.00    +0.000 A 
ATOM     27  C   UNL     1      39.076   5.930  17.461  0.00  0.00    +0.000 A 
ATOM     28  C   UNL     1      39.789   5.715  18.622  0.00  0.00    +0.000 A 
ATOM     29  C   UNL     1      39.664   6.529  19.743  0.00  0.00    +0.000 A 
BRANCH  24  30
ATOM     30  O   UNL     1      38.662   8.427  20.829  0.00  0.00    +0.000 OA
BRANCH  30  32
ATOM     31  C   UNL     1      38.949  10.776  21.197  0.00  0.00    +0.000 C 
ATOM     32  C   UNL     1      38.039   9.703  20.644  0.00  0.00    +0.000 C 
ENDBRANCH  30  32
ENDBRANCH  24  30
ENDBRANCH   1  27
TORSDOF 6
ENDMDL
MODEL 6
REMARK VINA RESULT:      -7.0      7.082     11.785
REMARK  Name = 
REMARK  6 active torsions:
REMARK  status: ('A' for Active; 'I' for Inactive)
REMARK    1  A    between atoms: C_2  and  O_3
REMARK    2  A    between atoms: O_3  and  C_4
REMARK    3  A    between atoms: C_7  and  N_8
REMARK    4  A    between atoms: C_12  and  C_13
REMARK    5  A    between atoms: N_18  and  C_19
REMARK    6  A    between atoms: C_19  and  C_20
REMARK                            x       y       z     vdW  Elec       q    Type
REMARK                         _______ _______ _______ _____ _____    ______ ____
ROOT
ATOM      1  N   UNL     1      44.799  -1.988  13.775  0.00  0.00    +0.000 N 
ATOM      2  C   UNL     1      45.025  -0.908  14.561  0.00  0.00    +0.000 A 
ATOM      3  C   UNL     1      46.338  -0.451  15.081  0.00  0.00    +0.000 C 
ATOM      4  C   UNL     1      43.760  -0.348  14.753  0.00  0.00    +0.000 A 
ATOM      5  C   UNL     1      42.795  -1.071  14.101  0.00  0.00    +0.000 A 
ATOM      6  C   UNL     1      43.477  -2.103  13.492  0.00  0.00    +0.000 A 
ATOM      7  C   UNL     1      42.827  -3.145  12.664  0.00  0.00    +0.000 C 
ENDROOT
BRANCH   5   8
ATOM      8  C   UNL     1      41.364  -0.784  14.058  0.00  0.00    +0.000 C 
ATOM      9  C   UNL     1      40.447  -1.467  14.694  0.00  0.00    +0.000 C 
ATOM     10  N   UNL     1      40.675  -2.589  15.525  0.00  0.00    +0.000 NA
ATOM     11  C   UNL     1      39.446  -3.070  16.052  0.00  0.00    +0.000 C 
ATOM     12  O   UNL     1      39.379  -4.079  16.838  0.00  0.00    +0.000 OA
ATOM     13  N   UNL     1      38.404  -2.266  15.569  0.00  0.00    +0.000 N 
ATOM     14  C   UNL     1      38.989  -1.254  14.718  0.00  0.00    +0.000 C 
ATOM     15  O   UNL     1      38.348  -0.379  14.129  0.00  0.00    +0.000 OA
BRANCH  13  16
ATOM     16  C   UNL     1      37.012  -2.421  15.859  0.00  0.00    +0.000 C 
BRANCH  16  17
ATOM     17  C   UNL     1      36.617  -1.594  17.000  0.00  0.00    +0.000 A 
ATOM     18  C   UNL     1      36.984  -1.917  18.300  0.00  0.00    +0.000 A 
ATOM     19  C   UNL     1      36.596  -1.085  19.329  0.00  0.00    +0.000 A 
ATOM     20  C   UNL     1      35.847   0.061  19.052  0.00  0.00    +0.000 A 
ATOM     21  C   UNL     1      35.492   0.364  17.745  0.00  0.00    +0.000 A 
ATOM     22  C   UNL     1      35.872  -0.456  16.709  0.00  0.00    +0.000 A 
ATOM     23  F   UNL     1      35.534  -0.180  15.427  0.00  0.00    +0.000 F 
ENDBRANCH  16  17
ENDBRANCH  13  16
ENDBRANCH   5   8
BRANCH   1  27
ATOM     24  C   UNL     1      47.772  -4.674  12.424  0.00  0.00    +0.000 A 
ATOM     25  C   UNL     1      47.184  -4.822  13.683  0.00  0.00    +0.000 A 
ATOM     26  C   UNL     1      46.224  -3.928  14.083  0.00  0.00    +0.000 A 
ATOM     27  C   UNL     1      45.801  -2.876  13.301  0.00  0.00    +0.000 A 
ATOM     28  C   UNL     1      46.404  -2.760  12.065  0.00  0.00    +0.000 A 
ATOM     29  C   UNL     1      47.381  -3.645  11.620  0.00  0.00    +0.000 A 
BRANCH  24  30
ATOM     30  O   UNL     1      48.757  -5.580  11.997  0.00  0.00    +0.000 OA
BRANCH  30  32
ATOM     31  C   UNL     1      47.759  -7.643  11.301  0.00  0.00    +0.000 C 
ATOM     32  C   UNL     1      48.606  -6.960  12.350  0.00  0.00    +0.000 C 
ENDBRANCH  30  32
ENDBRANCH  24  30
ENDBRANCH   1  27
TORSDOF 6
ENDMDL
MODEL 7
REMARK VINA RESULT:      -7.0     24.499     27.072
REMARK  Name = 
REMARK  6 active torsions:
REMARK  status: ('A' for Active; 'I' for Inactive)
REMARK    1  A    between atoms: C_2  and  O_3
REMARK    2  A    between atoms: O_3  and  C_4
REMARK    3  A    between atoms: C_7  and  N_8
REMARK    4  A    between atoms: C_12  and  C_13
REMARK    5  A    between atoms: N_18  and  C_19
REMARK    6  A    between atoms: C_19  and  C_20
REMARK                            x       y       z     vdW  Elec       q    Type
REMARK                         _______ _______ _______ _____ _____    ______ ____
ROOT
ATOM      1  N   UNL     1      26.538  15.481  37.703  0.00  0.00    +0.000 N 
ATOM      2  C   UNL     1      27.838  15.504  38.080  0.00  0.00    +0.000 A 
ATOM      3  C   UNL     1      28.988  15.979  37.269  0.00  0.00    +0.000 C 
ATOM      4  C   UNL     1      27.833  14.988  39.379  0.00  0.00    +0.000 A 
ATOM      5  C   UNL     1      26.562  14.661  39.775  0.00  0.00    +0.000 A 
ATOM      6  C   UNL     1      25.762  14.981  38.698  0.00  0.00    +0.000 A 
ATOM      7  C   UNL     1      24.293  14.797  38.680  0.00  0.00    +0.000 C 
ENDROOT
BRANCH   5   8
ATOM      8  C   UNL     1      26.161  14.113  41.067  0.00  0.00    +0.000 C 
ATOM      9  C   UNL     1      26.191  12.843  41.379  0.00  0.00    +0.000 C 
ATOM     10  N   UNL     1      26.612  11.789  40.534  0.00  0.00    +0.000 NA
ATOM     11  C   UNL     1      26.515  10.544  41.211  0.00  0.00    +0.000 C 
ATOM     12  O   UNL     1      26.839   9.432  40.663  0.00  0.00    +0.000 OA
ATOM     13  N   UNL     1      26.029  10.772  42.506  0.00  0.00    +0.000 N 
ATOM     14  C   UNL     1      25.815  12.195  42.649  0.00  0.00    +0.000 C 
ATOM     15  O   UNL     1      25.390  12.740  43.672  0.00  0.00    +0.000 OA
BRANCH  13  16
ATOM     16  C   UNL     1      25.782   9.778  43.504  0.00  0.00    +0.000 C 
BRANCH  16  17
ATOM     17  C   UNL     1      27.037   9.257  44.048  0.00  0.00    +0.000 A 
ATOM     18  C   UNL     1      27.843  10.018  44.886  0.00  0.00    +0.000 A 
ATOM     19  C   UNL     1      29.004   9.462  45.380  0.00  0.00    +0.000 A 
ATOM     20  C   UNL     1      29.351   8.154  45.034  0.00  0.00    +0.000 A 
ATOM     21  C   UNL     1      28.530   7.413  44.195  0.00  0.00    +0.000 A 
ATOM     22  C   UNL     1      27.369   7.954  43.695  0.00  0.00    +0.000 A 
ATOM     23  F   UNL     1      26.556   7.248  42.874  0.00  0.00    +0.000 F 
ENDBRANCH  16  17
ENDBRANCH  13  16
ENDBRANCH   5   8
BRANCH   1  27
ATOM     24  C   UNL     1      25.063  16.876  33.994  0.00  0.00    +0.000 A 
ATOM     25  C   UNL     1      25.107  17.711  35.114  0.00  0.00    +0.000 A 
ATOM     26  C   UNL     1      25.592  17.219  36.298  0.00  0.00    +0.000 A 
ATOM     27  C   UNL     1      26.044  15.926  36.448  0.00  0.00    +0.000 A 
ATOM     28  C   UNL     1      25.986  15.130  35.323  0.00  0.00    +0.000 A 
ATOM     29  C   UNL     1      25.502  15.590  34.102  0.00  0.00    +0.000 A 
BRANCH  24  30
ATOM     30  O   UNL     1      24.571  17.364  32.772  0.00  0.00    +0.000 OA
BRANCH  30  32
ATOM     31  C   UNL     1      23.937  19.075  31.222  0.00  0.00    +0.000 C 
ATOM     32  C   UNL     1      24.360  18.774  32.641  0.00  0.00    +0.000 C 
ENDBRANCH  30  32
ENDBRANCH  24  30
ENDBRANCH   1  27
TORSDOF 6
ENDMDL
MODEL 8
REMARK VINA RESULT:      -7.0      2.039      2.583
REMARK  Name = 
REMARK  6 active torsions:
REMARK  status: ('A' for Active; 'I' for Inactive)
REMARK    1  A    between atoms: C_2  and  O_3
REMARK    2  A    between atoms: O_3  and  C_4
REMARK    3  A    between atoms: C_7  and  N_8
REMARK    4  A    between atoms: C_12  and  C_13
REMARK    5  A    between atoms: N_18  and  C_19
REMARK    6  A    between atoms: C_19  and  C_20
REMARK                            x       y       z     vdW  Elec       q    Type
REMARK                         _______ _______ _______ _____ _____    ______ ____
ROOT
ATOM      1  N   UNL     1      38.360   7.435  17.648  0.00  0.00    +0.000 N 
ATOM      2  C   UNL     1      38.926   6.733  18.659  0.00  0.00    +0.000 A 
ATOM      3  C   UNL     1      39.208   7.227  20.031  0.00  0.00    +0.000 C 
ATOM      4  C   UNL     1      39.172   5.471  18.111  0.00  0.00    +0.000 A 
ATOM      5  C   UNL     1      38.764   5.413  16.804  0.00  0.00    +0.000 A 
ATOM      6  C   UNL     1      38.256   6.666  16.535  0.00  0.00    +0.000 A 
ATOM      7  C   UNL     1      37.691   7.062  15.224  0.00  0.00    +0.000 C 
ENDROOT
BRANCH   5   8
ATOM      8  C   UNL     1      38.843   4.259  15.913  0.00  0.00    +0.000 C 
ATOM      9  C   UNL     1      38.021   3.242  15.936  0.00  0.00    +0.000 C 
ATOM     10  N   UNL     1      36.924   3.081  16.815  0.00  0.00    +0.000 NA
ATOM     11  C   UNL     1      36.253   1.857  16.547  0.00  0.00    +0.000 C 
ATOM     12  O   UNL     1      35.222   1.476  17.206  0.00  0.00    +0.000 OA
ATOM     13  N   UNL     1      36.905   1.208  15.490  0.00  0.00    +0.000 N 
ATOM     14  C   UNL     1      38.014   2.041  15.081  0.00  0.00    +0.000 C 
ATOM     15  O   UNL     1      38.799   1.764  14.169  0.00  0.00    +0.000 OA
BRANCH  13  16
ATOM     16  C   UNL     1      36.544  -0.054  14.921  0.00  0.00    +0.000 C 
BRANCH  16  17
ATOM     17  C   UNL     1      37.070  -1.160  15.722  0.00  0.00    +0.000 A 
ATOM     18  C   UNL     1      38.429  -1.436  15.785  0.00  0.00    +0.000 A 
ATOM     19  C   UNL     1      38.862  -2.482  16.574  0.00  0.00    +0.000 A 
ATOM     20  C   UNL     1      37.936  -3.241  17.291  0.00  0.00    +0.000 A 
ATOM     21  C   UNL     1      36.581  -2.947  17.213  0.00  0.00    +0.000 A 
ATOM     22  C   UNL     1      36.135  -1.907  16.431  0.00  0.00    +0.000 A 
ATOM     23  F   UNL     1      34.818  -1.605  16.340  0.00  0.00    +0.000 F 
ENDBRANCH  16  17
ENDBRANCH  13  16
ENDBRANCH   5   8
BRANCH   1  27
ATOM     24  C   UNL     1      36.990  11.425  17.934  0.00  0.00    +0.000 A 
ATOM     25  C   UNL     1      36.123  10.348  18.136  0.00  0.00    +0.000 A 
ATOM     26  C   UNL     1      36.608   9.069  18.033  0.00  0.00    +0.000 A 
ATOM     27  C   UNL     1      37.922   8.783  17.736  0.00  0.00    +0.000 A 
ATOM     28  C   UNL     1      38.749   9.870  17.542  0.00  0.00    +0.000 A 
ATOM     29  C   UNL     1      38.299  11.183  17.638  0.00  0.00    +0.000 A 
BRANCH  24  30
ATOM     30  O   UNL     1      36.512  12.741  18.036  0.00  0.00    +0.000 OA
BRANCH  30  32
ATOM     31  C   UNL     1      34.489  13.741  18.837  0.00  0.00    +0.000 C 
ATOM     32  C   UNL     1      35.143  12.992  17.699  0.00  0.00    +0.000 C 
ENDBRANCH  30  32
ENDBRANCH  24  30
ENDBRANCH   1  27
TORSDOF 6
ENDMDL
MODEL 9
REMARK VINA RESULT:      -6.9      3.475     10.493
REMARK  Name = 
REMARK  6 active torsions:
REMARK  status: ('A' for Active; 'I' for Inactive)
REMARK    1  A    between atoms: C_2  and  O_3
REMARK    2  A    between atoms: O_3  and  C_4
REMARK    3  A    between atoms: C_7  and  N_8
REMARK    4  A    between atoms: C_12  and  C_13
REMARK    5  A    between atoms: N_18  and  C_19
REMARK    6  A    between atoms: C_19  and  C_20
REMARK                            x       y       z     vdW  Elec       q    Type
REMARK                         _______ _______ _______ _____ _____    ______ ____
ROOT
ATOM      1  N   UNL     1      38.165  -0.322  14.942  0.00  0.00    +0.000 N 
ATOM      2  C   UNL     1      39.492  -0.183  14.706  0.00  0.00    +0.000 A 
ATOM      3  C   UNL     1      40.503  -1.270  14.669  0.00  0.00    +0.000 C 
ATOM      4  C   UNL     1      39.669   1.189  14.513  0.00  0.00    +0.000 A 
ATOM      5  C   UNL     1      38.480   1.862  14.629  0.00  0.00    +0.000 A 
ATOM      6  C   UNL     1      37.546   0.884  14.901  0.00  0.00    +0.000 A 
ATOM      7  C   UNL     1      36.104   1.157  15.103  0.00  0.00    +0.000 C 
ENDROOT
BRANCH   5   8
ATOM      8  C   UNL     1      38.267   3.297  14.475  0.00  0.00    +0.000 C 
ATOM      9  C   UNL     1      38.334   4.169  15.448  0.00  0.00    +0.000 C 
ATOM     10  N   UNL     1      38.620   3.880  16.804  0.00  0.00    +0.000 NA
ATOM     11  C   UNL     1      38.614   5.074  17.574  0.00  0.00    +0.000 C 
ATOM     12  O   UNL     1      38.847   5.085  18.834  0.00  0.00    +0.000 OA
ATOM     13  N   UNL     1      38.323   6.154  16.729  0.00  0.00    +0.000 N 
ATOM     14  C   UNL     1      38.142   5.629  15.394  0.00  0.00    +0.000 C 
ATOM     15  O   UNL     1      37.874   6.315  14.403  0.00  0.00    +0.000 OA
BRANCH  13  16
ATOM     16  C   UNL     1      38.217   7.527  17.117  0.00  0.00    +0.000 C 
BRANCH  16  17
ATOM     17  C   UNL     1      39.513   8.052  17.549  0.00  0.00    +0.000 A 
ATOM     18  C   UNL     1      40.573   8.200  16.664  0.00  0.00    +0.000 A 
ATOM     19  C   UNL     1      41.763   8.719  17.130  0.00  0.00    +0.000 A 
ATOM     20  C   UNL     1      41.885   9.084  18.472  0.00  0.00    +0.000 A 
ATOM     21  C   UNL     1      40.812   8.927  19.338  0.00  0.00    +0.000 A 
ATOM     22  C   UNL     1      39.619   8.412  18.888  0.00  0.00    +0.000 A 
ATOM     23  F   UNL     1      38.561   8.248  19.717  0.00  0.00    +0.000 F 
ENDBRANCH  16  17
ENDBRANCH  13  16
ENDBRANCH   5   8
BRANCH   1  27
ATOM     24  C   UNL     1      36.205  -4.011  15.598  0.00  0.00    +0.000 A 
ATOM     25  C   UNL     1      36.526  -3.583  14.307  0.00  0.00    +0.000 A 
ATOM     26  C   UNL     1      37.161  -2.380  14.138  0.00  0.00    +0.000 A 
ATOM     27  C   UNL     1      37.505  -1.555  15.187  0.00  0.00    +0.000 A 
ATOM     28  C   UNL     1      37.173  -2.008  16.446  0.00  0.00    +0.000 A 
ATOM     29  C   UNL     1      36.529  -3.223  16.663  0.00  0.00    +0.000 A 
BRANCH  24  30
ATOM     30  O   UNL     1      35.556  -5.241  15.790  0.00  0.00    +0.000 OA
BRANCH  30  32
ATOM     31  C   UNL     1      33.306  -4.669  15.203  0.00  0.00    +0.000 C 
ATOM     32  C   UNL     1      34.475  -5.581  14.914  0.00  0.00    +0.000 C 
ENDBRANCH  30  32
ENDBRANCH  24  30
ENDBRANCH   1  27
TORSDOF 6
ENDMDL
MODEL 10
REMARK VINA RESULT:      -6.8      2.297      3.760
REMARK  Name = 
REMARK  6 active torsions:
REMARK  status: ('A' for Active; 'I' for Inactive)
REMARK    1  A    between atoms: C_2  and  O_3
REMARK    2  A    between atoms: O_3  and  C_4
REMARK    3  A    between atoms: C_7  and  N_8
REMARK    4  A    between atoms: C_12  and  C_13
REMARK    5  A    between atoms: N_18  and  C_19
REMARK    6  A    between atoms: C_19  and  C_20
REMARK                            x       y       z     vdW  Elec       q    Type
REMARK                         _______ _______ _______ _____ _____    ______ ____
ROOT
ATOM      1  N   UNL     1      39.893   8.226  19.651  0.00  0.00    +0.000 N 
ATOM      2  C   UNL     1      40.958   7.440  19.939  0.00  0.00    +0.000 A 
ATOM      3  C   UNL     1      42.227   7.867  20.580  0.00  0.00    +0.000 C 
ATOM      4  C   UNL     1      40.580   6.168  19.499  0.00  0.00    +0.000 A 
ATOM      5  C   UNL     1      39.320   6.187  18.960  0.00  0.00    +0.000 A 
ATOM      6  C   UNL     1      38.908   7.498  19.066  0.00  0.00    +0.000 A 
ATOM      7  C   UNL     1      37.588   7.987  18.607  0.00  0.00    +0.000 C 
ENDROOT
BRANCH   5   8
ATOM      8  C   UNL     1      38.584   5.050  18.414  0.00  0.00    +0.000 C 
ATOM      9  C   UNL     1      38.677   4.626  17.180  0.00  0.00    +0.000 C 
ATOM     10  N   UNL     1      39.495   5.184  16.169  0.00  0.00    +0.000 NA
ATOM     11  C   UNL     1      39.342   4.460  14.955  0.00  0.00    +0.000 C 
ATOM     12  O   UNL     1      39.978   4.764  13.885  0.00  0.00    +0.000 OA
ATOM     13  N   UNL     1      38.423   3.422  15.163  0.00  0.00    +0.000 N 
ATOM     14  C   UNL     1      37.985   3.493  16.539  0.00  0.00    +0.000 C 
ATOM     15  O   UNL     1      37.172   2.721  17.055  0.00  0.00    +0.000 OA
BRANCH  13  16
ATOM     16  C   UNL     1      37.990   2.469  14.188  0.00  0.00    +0.000 C 
BRANCH  16  17
ATOM     17  C   UNL     1      38.557   1.147  14.458  0.00  0.00    +0.000 A 
ATOM     18  C   UNL     1      39.917   0.896  14.333  0.00  0.00    +0.000 A 
ATOM     19  C   UNL     1      40.390  -0.367  14.621  0.00  0.00    +0.000 A 
ATOM     20  C   UNL     1      39.505  -1.366  15.029  0.00  0.00    +0.000 A 
ATOM     21  C   UNL     1      38.149  -1.092  15.146  0.00  0.00    +0.000 A 
ATOM     22  C   UNL     1      37.662   0.163  14.863  0.00  0.00    +0.000 A 
ATOM     23  F   UNL     1      36.343   0.451  14.969  0.00  0.00    +0.000 F 
ENDBRANCH  16  17
ENDBRANCH  13  16
ENDBRANCH   5   8
BRANCH   1  27
ATOM     24  C   UNL     1      39.603  12.349  20.543  0.00  0.00    +0.000 A 
ATOM     25  C   UNL     1      39.009  11.388  21.366  0.00  0.00    +0.000 A 
ATOM     26  C   UNL     1      39.126  10.062  21.040  0.00  0.00    +0.000 A 
ATOM     27  C   UNL     1      39.807   9.616  19.928  0.00  0.00    +0.000 A 
ATOM     28  C   UNL     1      40.380  10.591  19.139  0.00  0.00    +0.000 A 
ATOM     29  C   UNL     1      40.286  11.948  19.433  0.00  0.00    +0.000 A 
BRANCH  24  30
ATOM     30  O   UNL     1      39.494  13.712  20.862  0.00  0.00    +0.000 OA
BRANCH  30  32
ATOM     31  C   UNL     1      37.569  15.045  21.362  0.00  0.00    +0.000 C 
ATOM     32  C   UNL     1      38.602  14.092  21.916  0.00  0.00    +0.000 C 
ENDBRANCH  30  32
ENDBRANCH  24  30
ENDBRANCH   1  27
TORSDOF 6
ENDMDL
