MODEL 1
REMARK VINA RESULT:      -7.2      0.000      0.000
REMARK  Name = 
REMARK  3 active torsions:
REMARK  status: ('A' for Active; 'I' for Inactive)
REMARK    1  A    between atoms: C_4  and  N_5
REMARK    2  A    between atoms: N_5  and  N_6
REMARK    3  A    between atoms: C_7  and  C_9
REMARK                            x       y       z     vdW  Elec       q    Type
REMARK                         _______ _______ _______ _____ _____    ______ ____
ROOT
ATOM      1  N   UNL     1      16.141  12.043  35.304  0.00  0.00    +0.000 NA
ATOM      2  C   UNL     1      16.438  11.294  36.451  0.00  0.00    +0.000 C 
ATOM      3  O   UNL     1      15.458  10.881  37.121  0.00  0.00    +0.000 OA
ENDROOT
BRANCH   2   4
ATOM      4  C   UNL     1      17.813  10.993  36.868  0.00  0.00    +0.000 A 
ATOM      5  C   UNL     1      18.490  11.827  37.732  0.00  0.00    +0.000 A 
ATOM      6  C   UNL     1      19.753  11.578  38.134  0.00  0.00    +0.000 A 
ATOM      7 CL   UNL     1      20.513  12.711  39.233  0.00  0.00    +0.000 Cl
ATOM      8  C   UNL     1      20.389  10.451  37.667  0.00  0.00    +0.000 A 
ATOM      9  C   UNL     1      19.722   9.621  36.812  0.00  0.00    +0.000 A 
ATOM     10  C   UNL     1      18.447   9.877  36.408  0.00  0.00    +0.000 A 
ATOM     11  O   UNL     1      17.795   9.016  35.539  0.00  0.00    +0.000 OA
ENDBRANCH   2   4
BRANCH   1  12
ATOM     12  N   UNL     1      14.913  12.381  34.823  0.00  0.00    +0.000 NA
BRANCH  12  16
ATOM     13  C   UNL     1      14.458  11.380  30.608  0.00  0.00    +0.000 C 
ATOM     14  C   UNL     1      15.050  12.841  31.070  0.00  0.00    +0.000 C 
ATOM     15  C   UNL     1      15.202  12.426  32.587  0.00  0.00    +0.000 C 
ATOM     16  C   UNL     1      14.601  12.930  33.567  0.00  0.00    +0.000 C 
ATOM     17  C   UNL     1      13.624  14.013  33.542  0.00  0.00    +0.000 C 
ATOM     18  C   UNL     1      13.719  14.661  32.176  0.00  0.00    +0.000 C 
ATOM     19  C   UNL     1      13.574  13.503  31.211  0.00  0.00    +0.000 C 
ENDBRANCH  12  16
ENDBRANCH   1  12
TORSDOF 3
ENDMDL
MODEL 2
REMARK VINA RESULT:      -7.1      1.191      1.951
REMARK  Name = 
REMARK  3 active torsions:
REMARK  status: ('A' for Active; 'I' for Inactive)
REMARK    1  A    between atoms: C_4  and  N_5
REMARK    2  A    between atoms: N_5  and  N_6
REMARK    3  A    between atoms: C_7  and  C_9
REMARK                            x       y       z     vdW  Elec       q    Type
REMARK                         _______ _______ _______ _____ _____    ______ ____
ROOT
ATOM      1  N   UNL     1      16.516  11.067  34.082  0.00  0.00    +0.000 NA
ATOM      2  C   UNL     1      16.375  11.330  35.451  0.00  0.00    +0.000 C 
ATOM      3  O   UNL     1      15.220  11.625  35.850  0.00  0.00    +0.000 OA
ENDROOT
BRANCH   2   4
ATOM      4  C   UNL     1      17.501  11.269  36.390  0.00  0.00    +0.000 A 
ATOM      5  C   UNL     1      17.980  12.410  36.997  0.00  0.00    +0.000 A 
ATOM      6  C   UNL     1      19.013  12.388  37.864  0.00  0.00    +0.000 A 
ATOM      7 CL   UNL     1      19.536  13.903  38.572  0.00  0.00    +0.000 Cl
ATOM      8  C   UNL     1      19.610  11.183  38.156  0.00  0.00    +0.000 A 
ATOM      9  C   UNL     1      19.138  10.049  37.558  0.00  0.00    +0.000 A 
ATOM     10  C   UNL     1      18.095  10.077  36.682  0.00  0.00    +0.000 A 
ATOM     11  O   UNL     1      17.638   8.910  36.091  0.00  0.00    +0.000 OA
ENDBRANCH   2   4
BRANCH   1  12
ATOM     12  N   UNL     1      15.548  11.093  33.124  0.00  0.00    +0.000 NA
BRANCH  12  16
ATOM     13  C   UNL     1      13.482  14.909  32.739  0.00  0.00    +0.000 C 
ATOM     14  C   UNL     1      13.561  13.860  31.477  0.00  0.00    +0.000 C 
ATOM     15  C   UNL     1      14.144  12.678  32.350  0.00  0.00    +0.000 C 
ATOM     16  C   UNL     1      15.263  12.128  32.216  0.00  0.00    +0.000 C 
ATOM     17  C   UNL     1      16.290  12.444  31.229  0.00  0.00    +0.000 C 
ATOM     18  C   UNL     1      15.635  13.311  30.174  0.00  0.00    +0.000 C 
ATOM     19  C   UNL     1      14.992  14.430  30.965  0.00  0.00    +0.000 C 
ENDBRANCH  12  16
ENDBRANCH   1  12
TORSDOF 3
ENDMDL
MODEL 3
REMARK VINA RESULT:      -6.7      1.980      2.680
REMARK  Name = 
REMARK  3 active torsions:
REMARK  status: ('A' for Active; 'I' for Inactive)
REMARK    1  A    between atoms: C_4  and  N_5
REMARK    2  A    between atoms: N_5  and  N_6
REMARK    3  A    between atoms: C_7  and  C_9
REMARK                            x       y       z     vdW  Elec       q    Type
REMARK                         _______ _______ _______ _____ _____    ______ ____
ROOT
ATOM      1  N   UNL     1      16.289  11.314  35.528  0.00  0.00    +0.000 NA
ATOM      2  C   UNL     1      16.516  11.642  36.872  0.00  0.00    +0.000 C 
ATOM      3  O   UNL     1      15.689  12.425  37.405  0.00  0.00    +0.000 OA
ENDROOT
BRANCH   2   4
ATOM      4  C   UNL     1      17.650  11.111  37.637  0.00  0.00    +0.000 A 
ATOM      5  C   UNL     1      17.642   9.817  38.111  0.00  0.00    +0.000 A 
ATOM      6  C   UNL     1      18.669   9.300  38.817  0.00  0.00    +0.000 A 
ATOM      7 CL   UNL     1      18.545   7.641  39.369  0.00  0.00    +0.000 Cl
ATOM      8  C   UNL     1      19.764  10.092  39.074  0.00  0.00    +0.000 A 
ATOM      9  C   UNL     1      19.777  11.375  38.606  0.00  0.00    +0.000 A 
ATOM     10  C   UNL     1      18.738  11.893  37.894  0.00  0.00    +0.000 A 
ATOM     11  O   UNL     1      18.779  13.199  37.432  0.00  0.00    +0.000 OA
ENDBRANCH   2   4
BRANCH   1  12
ATOM     12  N   UNL     1      15.278  11.742  34.724  0.00  0.00    +0.000 NA
BRANCH  12  16
ATOM     13  C   UNL     1      14.260  14.456  31.470  0.00  0.00    +0.000 C 
ATOM     14  C   UNL     1      14.097  12.830  31.297  0.00  0.00    +0.000 C 
ATOM     15  C   UNL     1      14.341  12.529  32.829  0.00  0.00    +0.000 C 
ATOM     16  C   UNL     1      15.286  11.868  33.324  0.00  0.00    +0.000 C 
ATOM     17  C   UNL     1      16.381  11.223  32.607  0.00  0.00    +0.000 C 
ATOM     18  C   UNL     1      15.992  11.190  31.144  0.00  0.00    +0.000 C 
ATOM     19  C   UNL     1      15.637  12.627  30.826  0.00  0.00    +0.000 C 
ENDBRANCH  12  16
ENDBRANCH   1  12
TORSDOF 3
ENDMDL
MODEL 4
REMARK VINA RESULT:      -6.4     27.987     30.017
REMARK  Name = 
REMARK  3 active torsions:
REMARK  status: ('A' for Active; 'I' for Inactive)
REMARK    1  A    between atoms: C_4  and  N_5
REMARK    2  A    between atoms: N_5  and  N_6
REMARK    3  A    between atoms: C_7  and  C_9
REMARK                            x       y       z     vdW  Elec       q    Type
REMARK                         _______ _______ _______ _____ _____    ______ ____
ROOT
ATOM      1  N   UNL     1      30.261  22.925  10.094  0.00  0.00    +0.000 NA
ATOM      2  C   UNL     1      29.366  22.234  10.922  0.00  0.00    +0.000 C 
ATOM      3  O   UNL     1      29.326  20.985  10.787  0.00  0.00    +0.000 OA
ENDROOT
BRANCH   2   4
ATOM      4  C   UNL     1      28.510  22.912  11.903  0.00  0.00    +0.000 A 
ATOM      5  C   UNL     1      29.053  23.715  12.882  0.00  0.00    +0.000 A 
ATOM      6  C   UNL     1      28.295  24.351  13.798  0.00  0.00    +0.000 A 
ATOM      7 CL   UNL     1      29.098  25.346  14.997  0.00  0.00    +0.000 Cl
ATOM      8  C   UNL     1      26.929  24.195  13.754  0.00  0.00    +0.000 A 
ATOM      9  C   UNL     1      26.385  23.400  12.785  0.00  0.00    +0.000 A 
ATOM     10  C   UNL     1      27.156  22.759  11.863  0.00  0.00    +0.000 A 
ATOM     11  O   UNL     1      26.576  21.959  10.891  0.00  0.00    +0.000 OA
ENDBRANCH   2   4
BRANCH   1  12
ATOM     12  N   UNL     1      31.098  22.405   9.154  0.00  0.00    +0.000 NA
BRANCH  12  16
ATOM     13  C   UNL     1      33.581  20.514  12.194  0.00  0.00    +0.000 C 
ATOM     14  C   UNL     1      34.254  21.397  10.983  0.00  0.00    +0.000 C 
ATOM     15  C   UNL     1      32.870  21.971  10.480  0.00  0.00    +0.000 C 
ATOM     16  C   UNL     1      32.341  21.780   9.359  0.00  0.00    +0.000 C 
ATOM     17  C   UNL     1      32.874  20.988   8.255  0.00  0.00    +0.000 C 
ATOM     18  C   UNL     1      34.332  20.722   8.566  0.00  0.00    +0.000 C 
ATOM     19  C   UNL     1      34.309  20.137   9.962  0.00  0.00    +0.000 C 
ENDBRANCH  12  16
ENDBRANCH   1  12
TORSDOF 3
ENDMDL
MODEL 5
REMARK VINA RESULT:      -6.4     28.683     30.594
REMARK  Name = 
REMARK  3 active torsions:
REMARK  status: ('A' for Active; 'I' for Inactive)
REMARK    1  A    between atoms: C_4  and  N_5
REMARK    2  A    between atoms: N_5  and  N_6
REMARK    3  A    between atoms: C_7  and  C_9
REMARK                            x       y       z     vdW  Elec       q    Type
REMARK                         _______ _______ _______ _____ _____    ______ ____
ROOT
ATOM      1  N   UNL     1      30.893  21.657  11.128  0.00  0.00    +0.000 NA
ATOM      2  C   UNL     1      32.083  21.865  10.418  0.00  0.00    +0.000 C 
ATOM      3  O   UNL     1      32.905  22.670  10.924  0.00  0.00    +0.000 OA
ENDROOT
BRANCH   2   4
ATOM      4  C   UNL     1      32.378  21.189   9.149  0.00  0.00    +0.000 A 
ATOM      5  C   UNL     1      31.851  21.649   7.961  0.00  0.00    +0.000 A 
ATOM      6  C   UNL     1      32.103  21.050   6.779  0.00  0.00    +0.000 A 
ATOM      7 CL   UNL     1      31.375  21.725   5.335  0.00  0.00    +0.000 Cl
ATOM      8  C   UNL     1      32.917  19.941   6.756  0.00  0.00    +0.000 A 
ATOM      9  C   UNL     1      33.442  19.482   7.930  0.00  0.00    +0.000 A 
ATOM     10  C   UNL     1      33.184  20.089   9.122  0.00  0.00    +0.000 A 
ATOM     11  O   UNL     1      33.731  19.600  10.297  0.00  0.00    +0.000 OA
ENDBRANCH   2   4
BRANCH   1  12
ATOM     12  N   UNL     1      30.514  22.225  12.306  0.00  0.00    +0.000 NA
BRANCH  12  16
ATOM     13  C   UNL     1      26.242  22.134  11.452  0.00  0.00    +0.000 C 
ATOM     14  C   UNL     1      27.022  23.556  11.716  0.00  0.00    +0.000 C 
ATOM     15  C   UNL     1      28.461  22.907  11.668  0.00  0.00    +0.000 C 
ATOM     16  C   UNL     1      29.297  22.862  12.603  0.00  0.00    +0.000 C 
ATOM     17  C   UNL     1      29.140  23.397  13.951  0.00  0.00    +0.000 C 
ATOM     18  C   UNL     1      27.940  24.319  13.924  0.00  0.00    +0.000 C 
ATOM     19  C   UNL     1      26.838  23.471  13.326  0.00  0.00    +0.000 C 
ENDBRANCH  12  16
ENDBRANCH   1  12
TORSDOF 3
ENDMDL
MODEL 6
REMARK VINA RESULT:      -6.3     20.422     21.913
REMARK  Name = 
REMARK  3 active torsions:
REMARK  status: ('A' for Active; 'I' for Inactive)
REMARK    1  A    between atoms: C_4  and  N_5
REMARK    2  A    between atoms: N_5  and  N_6
REMARK    3  A    between atoms: C_7  and  C_9
REMARK                            x       y       z     vdW  Elec       q    Type
REMARK                         _______ _______ _______ _____ _____    ______ ____
ROOT
ATOM      1  N   UNL     1      27.831  24.330  23.778  0.00  0.00    +0.000 NA
ATOM      2  C   UNL     1      27.501  24.493  22.426  0.00  0.00    +0.000 C 
ATOM      3  O   UNL     1      26.748  23.622  21.922  0.00  0.00    +0.000 OA
ENDROOT
BRANCH   2   4
ATOM      4  C   UNL     1      27.994  25.617  21.620  0.00  0.00    +0.000 A 
ATOM      5  C   UNL     1      27.324  26.821  21.597  0.00  0.00    +0.000 A 
ATOM      6  C   UNL     1      27.751  27.871  20.866  0.00  0.00    +0.000 A 
ATOM      7 CL   UNL     1      26.815  29.352  20.915  0.00  0.00    +0.000 Cl
ATOM      8  C   UNL     1      28.897  27.738  20.118  0.00  0.00    +0.000 A 
ATOM      9  C   UNL     1      29.566  26.547  20.138  0.00  0.00    +0.000 A 
ATOM     10  C   UNL     1      29.130  25.488  20.877  0.00  0.00    +0.000 A 
ATOM     11  O   UNL     1      29.829  24.292  20.877  0.00  0.00    +0.000 OA
ENDBRANCH   2   4
BRANCH   1  12
ATOM     12  N   UNL     1      27.435  23.335  24.619  0.00  0.00    +0.000 NA
BRANCH  12  16
ATOM     13  C   UNL     1      31.261  23.160  26.696  0.00  0.00    +0.000 C 
ATOM     14  C   UNL     1      30.134  21.981  26.899  0.00  0.00    +0.000 C 
ATOM     15  C   UNL     1      29.216  22.500  25.723  0.00  0.00    +0.000 C 
ATOM     16  C   UNL     1      28.041  22.931  25.821  0.00  0.00    +0.000 C 
ATOM     17  C   UNL     1      27.247  23.056  27.038  0.00  0.00    +0.000 C 
ATOM     18  C   UNL     1      27.952  22.252  28.111  0.00  0.00    +0.000 C 
ATOM     19  C   UNL     1      29.371  22.778  28.089  0.00  0.00    +0.000 C 
ENDBRANCH  12  16
ENDBRANCH   1  12
TORSDOF 3
ENDMDL
MODEL 7
REMARK VINA RESULT:      -6.2      3.962      7.707
REMARK  Name = 
REMARK  3 active torsions:
REMARK  status: ('A' for Active; 'I' for Inactive)
REMARK    1  A    between atoms: C_4  and  N_5
REMARK    2  A    between atoms: N_5  and  N_6
REMARK    3  A    between atoms: C_7  and  C_9
REMARK                            x       y       z     vdW  Elec       q    Type
REMARK                         _______ _______ _______ _____ _____    ______ ____
ROOT
ATOM      1  N   UNL     1      17.723   9.652  37.341  0.00  0.00    +0.000 NA
ATOM      2  C   UNL     1      17.760  10.898  36.701  0.00  0.00    +0.000 C 
ATOM      3  O   UNL     1      18.659  11.694  37.073  0.00  0.00    +0.000 OA
ENDROOT
BRANCH   2   4
ATOM      4  C   UNL     1      16.811  11.276  35.646  0.00  0.00    +0.000 A 
ATOM      5  C   UNL     1      16.983  10.842  34.350  0.00  0.00    +0.000 A 
ATOM      6  C   UNL     1      16.129  11.172  33.359  0.00  0.00    +0.000 A 
ATOM      7 CL   UNL     1      16.450  10.561  31.748  0.00  0.00    +0.000 Cl
ATOM      8  C   UNL     1      15.047  11.969  33.652  0.00  0.00    +0.000 A 
ATOM      9  C   UNL     1      14.872  12.402  34.936  0.00  0.00    +0.000 A 
ATOM     10  C   UNL     1      15.738  12.067  35.933  0.00  0.00    +0.000 A 
ATOM     11  O   UNL     1      15.535  12.521  37.227  0.00  0.00    +0.000 OA
ENDBRANCH   2   4
BRANCH   1  12
ATOM     12  N   UNL     1      18.545   9.195  38.325  0.00  0.00    +0.000 NA
BRANCH  12  16
ATOM     13  C   UNL     1      15.334   9.098  41.268  0.00  0.00    +0.000 C 
ATOM     14  C   UNL     1      16.909   9.040  41.733  0.00  0.00    +0.000 C 
ATOM     15  C   UNL     1      17.464   9.386  40.295  0.00  0.00    +0.000 C 
ATOM     16  C   UNL     1      18.181   8.654  39.571  0.00  0.00    +0.000 C 
ATOM     17  C   UNL     1      18.671   7.315  39.881  0.00  0.00    +0.000 C 
ATOM     18  C   UNL     1      18.460   7.100  41.365  0.00  0.00    +0.000 C 
ATOM     19  C   UNL     1      16.997   7.427  41.578  0.00  0.00    +0.000 C 
ENDBRANCH  12  16
ENDBRANCH   1  12
TORSDOF 3
ENDMDL
MODEL 8
REMARK VINA RESULT:      -6.1     20.896     22.313
REMARK  Name = 
REMARK  3 active torsions:
REMARK  status: ('A' for Active; 'I' for Inactive)
REMARK    1  A    between atoms: C_4  and  N_5
REMARK    2  A    between atoms: N_5  and  N_6
REMARK    3  A    between atoms: C_7  and  C_9
REMARK                            x       y       z     vdW  Elec       q    Type
REMARK                         _______ _______ _______ _____ _____    ______ ____
ROOT
ATOM      1  N   UNL     1      16.340  -9.085  26.175  0.00  0.00    +0.000 NA
ATOM      2  C   UNL     1      17.360  -8.618  27.015  0.00  0.00    +0.000 C 
ATOM      3  O   UNL     1      17.393  -9.094  28.178  0.00  0.00    +0.000 OA
ENDROOT
BRANCH   2   4
ATOM      4  C   UNL     1      18.352  -7.626  26.581  0.00  0.00    +0.000 A 
ATOM      5  C   UNL     1      19.554  -8.018  26.032  0.00  0.00    +0.000 A 
ATOM      6  C   UNL     1      20.485  -7.132  25.624  0.00  0.00    +0.000 A 
ATOM      7 CL   UNL     1      21.977  -7.749  24.942  0.00  0.00    +0.000 Cl
ATOM      8  C   UNL     1      20.227  -5.787  25.759  0.00  0.00    +0.000 A 
ATOM      9  C   UNL     1      19.037  -5.393  26.302  0.00  0.00    +0.000 A 
ATOM     10  C   UNL     1      18.100  -6.292  26.713  0.00  0.00    +0.000 A 
ATOM     11  O   UNL     1      16.901  -5.863  27.260  0.00  0.00    +0.000 OA
ENDBRANCH   2   4
BRANCH   1  12
ATOM     12  N   UNL     1      15.372  -9.997  26.468  0.00  0.00    +0.000 NA
BRANCH  12  16
ATOM     13  C   UNL     1      11.954 -10.667  29.086  0.00  0.00    +0.000 C 
ATOM     14  C   UNL     1      11.785 -10.691  27.452  0.00  0.00    +0.000 C 
ATOM     15  C   UNL     1      13.341 -10.674  27.177  0.00  0.00    +0.000 C 
ATOM     16  C   UNL     1      13.989  -9.777  26.586  0.00  0.00    +0.000 C 
ATOM     17  C   UNL     1      13.464  -8.541  26.013  0.00  0.00    +0.000 C 
ATOM     18  C   UNL     1      11.959  -8.690  25.945  0.00  0.00    +0.000 C 
ATOM     19  C   UNL     1      11.565  -9.086  27.352  0.00  0.00    +0.000 C 
ENDBRANCH  12  16
ENDBRANCH   1  12
TORSDOF 3
ENDMDL
MODEL 9
REMARK VINA RESULT:      -6.1     20.760     21.720
REMARK  Name = 
REMARK  3 active torsions:
REMARK  status: ('A' for Active; 'I' for Inactive)
REMARK    1  A    between atoms: C_4  and  N_5
REMARK    2  A    between atoms: N_5  and  N_6
REMARK    3  A    between atoms: C_7  and  C_9
REMARK                            x       y       z     vdW  Elec       q    Type
REMARK                         _______ _______ _______ _____ _____    ______ ____
ROOT
ATOM      1  N   UNL     1      29.688  24.321  22.431  0.00  0.00    +0.000 NA
ATOM      2  C   UNL     1      28.825  23.429  23.082  0.00  0.00    +0.000 C 
ATOM      3  O   UNL     1      27.890  22.949  22.392  0.00  0.00    +0.000 OA
ENDROOT
BRANCH   2   4
ATOM      4  C   UNL     1      28.984  23.058  24.493  0.00  0.00    +0.000 A 
ATOM      5  C   UNL     1      27.944  23.204  25.386  0.00  0.00    +0.000 A 
ATOM      6  C   UNL     1      28.059  22.872  26.688  0.00  0.00    +0.000 A 
ATOM      7 CL   UNL     1      26.668  23.103  27.730  0.00  0.00    +0.000 Cl
ATOM      8  C   UNL     1      29.255  22.368  27.143  0.00  0.00    +0.000 A 
ATOM      9  C   UNL     1      30.289  22.221  26.262  0.00  0.00    +0.000 A 
ATOM     10  C   UNL     1      30.169  22.559  24.947  0.00  0.00    +0.000 A 
ATOM     11  O   UNL     1      31.235  22.398  24.077  0.00  0.00    +0.000 OA
ENDBRANCH   2   4
BRANCH   1  12
ATOM     12  N   UNL     1      29.637  24.736  21.135  0.00  0.00    +0.000 NA
BRANCH  12  16
ATOM     13  C   UNL     1      27.873  28.535  22.334  0.00  0.00    +0.000 C 
ATOM     14  C   UNL     1      27.589  27.904  20.844  0.00  0.00    +0.000 C 
ATOM     15  C   UNL     1      28.241  26.507  21.188  0.00  0.00    +0.000 C 
ATOM     16  C   UNL     1      29.254  25.999  20.649  0.00  0.00    +0.000 C 
ATOM     17  C   UNL     1      30.069  26.573  19.584  0.00  0.00    +0.000 C 
ATOM     18  C   UNL     1      29.281  27.726  18.998  0.00  0.00    +0.000 C 
ATOM     19  C   UNL     1      28.921  28.572  20.200  0.00  0.00    +0.000 C 
ENDBRANCH  12  16
ENDBRANCH   1  12
TORSDOF 3
ENDMDL
MODEL 10
REMARK VINA RESULT:      -6.0      4.174      7.824
REMARK  Name = 
REMARK  3 active torsions:
REMARK  status: ('A' for Active; 'I' for Inactive)
REMARK    1  A    between atoms: C_4  and  N_5
REMARK    2  A    between atoms: N_5  and  N_6
REMARK    3  A    between atoms: C_7  and  C_9
REMARK                            x       y       z     vdW  Elec       q    Type
REMARK                         _______ _______ _______ _____ _____    ______ ____
ROOT
ATOM      1  N   UNL     1      17.049  10.193  38.417  0.00  0.00    +0.000 NA
ATOM      2  C   UNL     1      17.592  10.849  37.304  0.00  0.00    +0.000 C 
ATOM      3  O   UNL     1      18.772  11.268  37.420  0.00  0.00    +0.000 OA
ENDROOT
BRANCH   2   4
ATOM      4  C   UNL     1      16.844  11.047  36.057  0.00  0.00    +0.000 A 
ATOM      5  C   UNL     1      15.898  12.043  35.949  0.00  0.00    +0.000 A 
ATOM      6  C   UNL     1      15.194  12.251  34.817  0.00  0.00    +0.000 A 
ATOM      7 CL   UNL     1      14.015  13.548  34.798  0.00  0.00    +0.000 Cl
ATOM      8  C   UNL     1      15.429  11.441  33.730  0.00  0.00    +0.000 A 
ATOM      9  C   UNL     1      16.367  10.453  33.832  0.00  0.00    +0.000 A 
ATOM     10  C   UNL     1      17.075  10.246  34.977  0.00  0.00    +0.000 A 
ATOM     11  O   UNL     1      18.020   9.236  35.051  0.00  0.00    +0.000 OA
ENDBRANCH   2   4
BRANCH   1  12
ATOM     12  N   UNL     1      17.645   9.953  39.618  0.00  0.00    +0.000 NA
BRANCH  12  16
ATOM     13  C   UNL     1      15.968   7.325  42.661  0.00  0.00    +0.000 C 
ATOM     14  C   UNL     1      17.591   7.414  42.422  0.00  0.00    +0.000 C 
ATOM     15  C   UNL     1      17.495   8.666  41.464  0.00  0.00    +0.000 C 
ATOM     16  C   UNL     1      17.829   8.714  40.255  0.00  0.00    +0.000 C 
ATOM     17  C   UNL     1      18.383   7.631  39.449  0.00  0.00    +0.000 C 
ATOM     18  C   UNL     1      18.812   6.541  40.410  0.00  0.00    +0.000 C 
ATOM     19  C   UNL     1      17.580   6.289  41.252  0.00  0.00    +0.000 C 
ENDBRANCH  12  16
ENDBRANCH   1  12
TORSDOF 3
ENDMDL
