MODEL 1
REMARK VINA RESULT:      -6.6      0.000      0.000
REMARK  Name = 
REMARK  3 active torsions:
REMARK  status: ('A' for Active; 'I' for Inactive)
REMARK    1  A    between atoms: C_11  and  C_13
REMARK    2  A    between atoms: C_13  and  C_14
REMARK    3  A    between atoms: C_14  and  C_15
REMARK                            x       y       z     vdW  Elec       q    Type
REMARK                         _______ _______ _______ _____ _____    ______ ____
ROOT
ATOM      1  O   UNL     1      30.082   5.258  15.283  0.00  0.00    +0.000 OA
ATOM      2  C   UNL     1      29.200   6.059  15.533  0.00  0.00    +0.000 C 
ATOM      3  C   UNL     1      28.899   7.187  14.728  0.00  0.00    +0.000 C 
ATOM      4  C   UNL     1      27.473   6.886  14.216  0.00  0.00    +0.000 C 
ATOM      5  C   UNL     1      26.745   6.907  15.502  0.00  0.00    +0.000 C 
ATOM      6  C   UNL     1      26.887   5.474  16.231  0.00  0.00    +0.000 C 
ATOM      7  C   UNL     1      28.464   5.647  16.873  0.00  0.00    +0.000 C 
ATOM      8  C   UNL     1      28.256   7.136  17.498  0.00  0.00    +0.000 C 
ATOM      9  C   UNL     1      27.843   6.774  18.916  0.00  0.00    +0.000 C 
ATOM     10  C   UNL     1      26.914   5.573  18.790  0.00  0.00    +0.000 C 
ATOM     11  C   UNL     1      26.091   5.839  17.580  0.00  0.00    +0.000 C 
ATOM     12  O   UNL     1      25.614   7.085  17.626  0.00  0.00    +0.000 OA
ENDROOT
BRANCH  11  13
ATOM     13  C   UNL     1      24.875   4.897  17.505  0.00  0.00    +0.000 C 
BRANCH  13  14
ATOM     14  C   UNL     1      25.257   3.755  18.450  0.00  0.00    +0.000 C 
BRANCH  14  15
ATOM     15  C   UNL     1      24.482   2.546  18.100  0.00  0.00    +0.000 A 
ATOM     16  C   UNL     1      23.108   2.511  18.215  0.00  0.00    +0.000 A 
ATOM     17  C   UNL     1      22.389   1.377  17.887  0.00  0.00    +0.000 A 
ATOM     18  C   UNL     1      23.030   0.225  17.425  0.00  0.00    +0.000 A 
ATOM     19  C   UNL     1      24.403   0.271  17.314  0.00  0.00    +0.000 A 
ATOM     20  C   UNL     1      25.123   1.402  17.642  0.00  0.00    +0.000 A 
ENDBRANCH  14  15
ENDBRANCH  13  14
ENDBRANCH  11  13
TORSDOF 3
ENDMDL
MODEL 2
REMARK VINA RESULT:      -6.5     19.961     21.744
REMARK  Name = 
REMARK  3 active torsions:
REMARK  status: ('A' for Active; 'I' for Inactive)
REMARK    1  A    between atoms: C_11  and  C_13
REMARK    2  A    between atoms: C_13  and  C_14
REMARK    3  A    between atoms: C_14  and  C_15
REMARK                            x       y       z     vdW  Elec       q    Type
REMARK                         _______ _______ _______ _____ _____    ______ ____
ROOT
ATOM      1  O   UNL     1      31.273  25.806  25.527  0.00  0.00    +0.000 OA
ATOM      2  C   UNL     1      30.892  24.951  24.749  0.00  0.00    +0.000 C 
ATOM      3  C   UNL     1      31.674  23.838  24.345  0.00  0.00    +0.000 C 
ATOM      4  C   UNL     1      30.894  22.632  24.912  0.00  0.00    +0.000 C 
ATOM      5  C   UNL     1      29.651  22.756  24.124  0.00  0.00    +0.000 C 
ATOM      6  C   UNL     1      28.671  23.835  24.818  0.00  0.00    +0.000 C 
ATOM      7  C   UNL     1      29.418  25.276  24.272  0.00  0.00    +0.000 C 
ATOM      8  C   UNL     1      29.569  24.835  22.712  0.00  0.00    +0.000 C 
ATOM      9  C   UNL     1      28.286  25.420  22.144  0.00  0.00    +0.000 C 
ATOM     10  C   UNL     1      27.206  25.157  23.187  0.00  0.00    +0.000 C 
ATOM     11  C   UNL     1      27.498  23.799  23.719  0.00  0.00    +0.000 C 
ATOM     12  O   UNL     1      27.707  22.955  22.706  0.00  0.00    +0.000 OA
ENDROOT
BRANCH  11  13
ATOM     13  C   UNL     1      26.312  23.242  24.528  0.00  0.00    +0.000 C 
BRANCH  13  14
ATOM     14  C   UNL     1      25.513  24.497  24.889  0.00  0.00    +0.000 C 
BRANCH  14  15
ATOM     15  C   UNL     1      25.455  24.639  26.359  0.00  0.00    +0.000 A 
ATOM     16  C   UNL     1      26.068  23.729  27.196  0.00  0.00    +0.000 A 
ATOM     17  C   UNL     1      26.011  23.866  28.569  0.00  0.00    +0.000 A 
ATOM     18  C   UNL     1      25.330  24.934  29.161  0.00  0.00    +0.000 A 
ATOM     19  C   UNL     1      24.721  25.837  28.315  0.00  0.00    +0.000 A 
ATOM     20  C   UNL     1      24.777  25.701  26.943  0.00  0.00    +0.000 A 
ENDBRANCH  14  15
ENDBRANCH  13  14
ENDBRANCH  11  13
TORSDOF 3
ENDMDL
MODEL 3
REMARK VINA RESULT:      -6.4     20.292     21.560
REMARK  Name = 
REMARK  3 active torsions:
REMARK  status: ('A' for Active; 'I' for Inactive)
REMARK    1  A    between atoms: C_11  and  C_13
REMARK    2  A    between atoms: C_13  and  C_14
REMARK    3  A    between atoms: C_14  and  C_15
REMARK                            x       y       z     vdW  Elec       q    Type
REMARK                         _______ _______ _______ _____ _____    ______ ____
ROOT
ATOM      1  O   UNL     1      29.704  24.517  20.600  0.00  0.00    +0.000 OA
ATOM      2  C   UNL     1      29.048  24.765  21.595  0.00  0.00    +0.000 C 
ATOM      3  C   UNL     1      27.672  25.112  21.573  0.00  0.00    +0.000 C 
ATOM      4  C   UNL     1      27.000  23.936  22.315  0.00  0.00    +0.000 C 
ATOM      5  C   UNL     1      27.601  24.118  23.653  0.00  0.00    +0.000 C 
ATOM      6  C   UNL     1      29.060  23.429  23.692  0.00  0.00    +0.000 C 
ATOM      7  C   UNL     1      29.958  24.642  22.884  0.00  0.00    +0.000 C 
ATOM      8  C   UNL     1      29.364  25.909  23.718  0.00  0.00    +0.000 C 
ATOM      9  C   UNL     1      30.412  26.023  24.812  0.00  0.00    +0.000 C 
ATOM     10  C   UNL     1      30.754  24.595  25.218  0.00  0.00    +0.000 C 
ATOM     11  C   UNL     1      29.460  23.859  25.189  0.00  0.00    +0.000 C 
ATOM     12  O   UNL     1      28.529  24.563  25.836  0.00  0.00    +0.000 OA
ENDROOT
BRANCH  11  13
ATOM     13  C   UNL     1      29.568  22.498  25.900  0.00  0.00    +0.000 C 
BRANCH  13  14
ATOM     14  C   UNL     1      29.009  22.786  27.296  0.00  0.00    +0.000 C 
BRANCH  14  15
ATOM     15  C   UNL     1      30.062  22.551  28.307  0.00  0.00    +0.000 A 
ATOM     16  C   UNL     1      31.280  22.003  27.964  0.00  0.00    +0.000 A 
ATOM     17  C   UNL     1      32.261  21.785  28.913  0.00  0.00    +0.000 A 
ATOM     18  C   UNL     1      32.054  22.115  30.255  0.00  0.00    +0.000 A 
ATOM     19  C   UNL     1      30.832  22.662  30.586  0.00  0.00    +0.000 A 
ATOM     20  C   UNL     1      29.851  22.879  29.640  0.00  0.00    +0.000 A 
ENDBRANCH  14  15
ENDBRANCH  13  14
ENDBRANCH  11  13
TORSDOF 3
ENDMDL
MODEL 4
REMARK VINA RESULT:      -6.2     19.943     21.853
REMARK  Name = 
REMARK  3 active torsions:
REMARK  status: ('A' for Active; 'I' for Inactive)
REMARK    1  A    between atoms: C_11  and  C_13
REMARK    2  A    between atoms: C_13  and  C_14
REMARK    3  A    between atoms: C_14  and  C_15
REMARK                            x       y       z     vdW  Elec       q    Type
REMARK                         _______ _______ _______ _____ _____    ______ ____
ROOT
ATOM      1  O   UNL     1      29.252  28.211  22.946  0.00  0.00    +0.000 OA
ATOM      2  C   UNL     1      28.774  27.193  22.481  0.00  0.00    +0.000 C 
ATOM      3  C   UNL     1      28.506  26.999  21.102  0.00  0.00    +0.000 C 
ATOM      4  C   UNL     1      29.467  25.854  20.712  0.00  0.00    +0.000 C 
ATOM      5  C   UNL     1      28.907  24.772  21.548  0.00  0.00    +0.000 C 
ATOM      6  C   UNL     1      29.496  24.882  23.047  0.00  0.00    +0.000 C 
ATOM      7  C   UNL     1      28.507  26.147  23.639  0.00  0.00    +0.000 C 
ATOM      8  C   UNL     1      27.089  25.552  23.100  0.00  0.00    +0.000 C 
ATOM      9  C   UNL     1      26.640  24.780  24.330  0.00  0.00    +0.000 C 
ATOM     10  C   UNL     1      27.891  24.111  24.887  0.00  0.00    +0.000 C 
ATOM     11  C   UNL     1      28.663  23.668  23.695  0.00  0.00    +0.000 C 
ATOM     12  O   UNL     1      27.852  23.032  22.846  0.00  0.00    +0.000 OA
ENDROOT
BRANCH  11  13
ATOM     13  C   UNL     1      29.777  22.677  24.078  0.00  0.00    +0.000 C 
BRANCH  13  14
ATOM     14  C   UNL     1      30.950  23.591  24.441  0.00  0.00    +0.000 C 
BRANCH  14  15
ATOM     15  C   UNL     1      31.348  23.349  25.844  0.00  0.00    +0.000 A 
ATOM     16  C   UNL     1      32.323  24.107  26.458  0.00  0.00    +0.000 A 
ATOM     17  C   UNL     1      32.691  23.877  27.770  0.00  0.00    +0.000 A 
ATOM     18  C   UNL     1      32.087  22.867  28.523  0.00  0.00    +0.000 A 
ATOM     19  C   UNL     1      31.113  22.115  27.899  0.00  0.00    +0.000 A 
ATOM     20  C   UNL     1      30.745  22.343  26.589  0.00  0.00    +0.000 A 
ENDBRANCH  14  15
ENDBRANCH  13  14
ENDBRANCH  11  13
TORSDOF 3
ENDMDL
MODEL 5
REMARK VINA RESULT:      -6.1     19.970     22.112
REMARK  Name = 
REMARK  3 active torsions:
REMARK  status: ('A' for Active; 'I' for Inactive)
REMARK    1  A    between atoms: C_11  and  C_13
REMARK    2  A    between atoms: C_13  and  C_14
REMARK    3  A    between atoms: C_14  and  C_15
REMARK                            x       y       z     vdW  Elec       q    Type
REMARK                         _______ _______ _______ _____ _____    ______ ____
ROOT
ATOM      1  O   UNL     1      26.763  27.367  26.256  0.00  0.00    +0.000 OA
ATOM      2  C   UNL     1      26.538  26.703  25.261  0.00  0.00    +0.000 C 
ATOM      3  C   UNL     1      26.012  27.232  24.055  0.00  0.00    +0.000 C 
ATOM      4  C   UNL     1      27.161  27.021  23.044  0.00  0.00    +0.000 C 
ATOM      5  C   UNL     1      27.205  25.544  23.034  0.00  0.00    +0.000 C 
ATOM      6  C   UNL     1      28.082  25.017  24.282  0.00  0.00    +0.000 C 
ATOM      7  C   UNL     1      26.919  25.189  25.527  0.00  0.00    +0.000 C 
ATOM      8  C   UNL     1      25.681  24.489  24.732  0.00  0.00    +0.000 C 
ATOM      9  C   UNL     1      25.826  23.058  25.224  0.00  0.00    +0.000 C 
ATOM     10  C   UNL     1      27.322  22.772  25.252  0.00  0.00    +0.000 C 
ATOM     11  C   UNL     1      27.872  23.441  24.042  0.00  0.00    +0.000 C 
ATOM     12  O   UNL     1      27.125  23.132  22.979  0.00  0.00    +0.000 OA
ENDROOT
BRANCH  11  13
ATOM     13  C   UNL     1      29.305  22.966  23.735  0.00  0.00    +0.000 C 
BRANCH  13  14
ATOM     14  C   UNL     1      29.804  22.458  25.090  0.00  0.00    +0.000 C 
BRANCH  14  15
ATOM     15  C   UNL     1      31.038  23.182  25.463  0.00  0.00    +0.000 A 
ATOM     16  C   UNL     1      31.884  23.704  24.507  0.00  0.00    +0.000 A 
ATOM     17  C   UNL     1      33.037  24.379  24.860  0.00  0.00    +0.000 A 
ATOM     18  C   UNL     1      33.386  24.559  26.201  0.00  0.00    +0.000 A 
ATOM     19  C   UNL     1      32.533  24.033  27.148  0.00  0.00    +0.000 A 
ATOM     20  C   UNL     1      31.382  23.358  26.797  0.00  0.00    +0.000 A 
ENDBRANCH  14  15
ENDBRANCH  13  14
ENDBRANCH  11  13
TORSDOF 3
ENDMDL
MODEL 6
REMARK VINA RESULT:      -6.0     20.388     22.526
REMARK  Name = 
REMARK  3 active torsions:
REMARK  status: ('A' for Active; 'I' for Inactive)
REMARK    1  A    between atoms: C_11  and  C_13
REMARK    2  A    between atoms: C_13  and  C_14
REMARK    3  A    between atoms: C_14  and  C_15
REMARK                            x       y       z     vdW  Elec       q    Type
REMARK                         _______ _______ _______ _____ _____    ______ ____
ROOT
ATOM      1  O   UNL     1      15.922  13.495  36.114  0.00  0.00    +0.000 OA
ATOM      2  C   UNL     1      15.995  12.280  36.105  0.00  0.00    +0.000 C 
ATOM      3  C   UNL     1      15.212  11.443  35.269  0.00  0.00    +0.000 C 
ATOM      4  C   UNL     1      16.260  10.782  34.348  0.00  0.00    +0.000 C 
ATOM      5  C   UNL     1      17.018  10.013  35.357  0.00  0.00    +0.000 C 
ATOM      6  C   UNL     1      18.108  10.970  36.065  0.00  0.00    +0.000 C 
ATOM      7  C   UNL     1      17.079  11.798  37.154  0.00  0.00    +0.000 C 
ATOM      8  C   UNL     1      16.298  10.485  37.718  0.00  0.00    +0.000 C 
ATOM      9  C   UNL     1      17.149  10.174  38.939  0.00  0.00    +0.000 C 
ATOM     10  C   UNL     1      18.593  10.408  38.516  0.00  0.00    +0.000 C 
ATOM     11  C   UNL     1      18.680   9.899  37.120  0.00  0.00    +0.000 C 
ATOM     12  O   UNL     1      18.121   8.689  37.047  0.00  0.00    +0.000 OA
ENDROOT
BRANCH  11  13
ATOM     13  C   UNL     1      20.143   9.744  36.665  0.00  0.00    +0.000 C 
BRANCH  13  14
ATOM     14  C   UNL     1      20.893  10.749  37.543  0.00  0.00    +0.000 C 
BRANCH  14  15
ATOM     15  C   UNL     1      22.336  10.701  37.225  0.00  0.00    +0.000 A 
ATOM     16  C   UNL     1      22.815   9.969  36.160  0.00  0.00    +0.000 A 
ATOM     17  C   UNL     1      24.165   9.927  35.867  0.00  0.00    +0.000 A 
ATOM     18  C   UNL     1      25.093  10.628  36.641  0.00  0.00    +0.000 A 
ATOM     19  C   UNL     1      24.603  11.356  37.704  0.00  0.00    +0.000 A 
ATOM     20  C   UNL     1      23.255  11.399  37.998  0.00  0.00    +0.000 A 
ENDBRANCH  14  15
ENDBRANCH  13  14
ENDBRANCH  11  13
TORSDOF 3
ENDMDL
MODEL 7
REMARK VINA RESULT:      -5.9      2.469      6.336
REMARK  Name = 
REMARK  3 active torsions:
REMARK  status: ('A' for Active; 'I' for Inactive)
REMARK    1  A    between atoms: C_11  and  C_13
REMARK    2  A    between atoms: C_13  and  C_14
REMARK    3  A    between atoms: C_14  and  C_15
REMARK                            x       y       z     vdW  Elec       q    Type
REMARK                         _______ _______ _______ _____ _____    ______ ____
ROOT
ATOM      1  O   UNL     1      26.400   0.015  14.354  0.00  0.00    +0.000 OA
ATOM      2  C   UNL     1      25.587  -0.099  15.254  0.00  0.00    +0.000 C 
ATOM      3  C   UNL     1      25.364  -1.299  15.976  0.00  0.00    +0.000 C 
ATOM      4  C   UNL     1      25.807  -0.936  17.410  0.00  0.00    +0.000 C 
ATOM      5  C   UNL     1      24.799   0.099  17.721  0.00  0.00    +0.000 C 
ATOM      6  C   UNL     1      25.272   1.519  17.116  0.00  0.00    +0.000 C 
ATOM      7  C   UNL     1      24.837   1.278  15.477  0.00  0.00    +0.000 C 
ATOM      8  C   UNL     1      23.344   0.692  15.759  0.00  0.00    +0.000 C 
ATOM      9  C   UNL     1      22.534   1.975  15.665  0.00  0.00    +0.000 C 
ATOM     10  C   UNL     1      23.364   3.049  16.358  0.00  0.00    +0.000 C 
ATOM     11  C   UNL     1      23.976   2.373  17.534  0.00  0.00    +0.000 C 
ATOM     12  O   UNL     1      23.041   1.684  18.192  0.00  0.00    +0.000 OA
ENDROOT
BRANCH  11  13
ATOM     13  C   UNL     1      24.565   3.392  18.527  0.00  0.00    +0.000 C 
BRANCH  13  14
ATOM     14  C   UNL     1      24.415   4.726  17.793  0.00  0.00    +0.000 C 
BRANCH  14  15
ATOM     15  C   UNL     1      25.685   5.479  17.872  0.00  0.00    +0.000 A 
ATOM     16  C   UNL     1      25.998   6.464  16.960  0.00  0.00    +0.000 A 
ATOM     17  C   UNL     1      27.187   7.164  17.039  0.00  0.00    +0.000 A 
ATOM     18  C   UNL     1      28.115   6.898  18.048  0.00  0.00    +0.000 A 
ATOM     19  C   UNL     1      27.792   5.911  18.955  0.00  0.00    +0.000 A 
ATOM     20  C   UNL     1      26.606   5.210  18.878  0.00  0.00    +0.000 A 
ENDBRANCH  14  15
ENDBRANCH  13  14
ENDBRANCH  11  13
TORSDOF 3
ENDMDL
MODEL 8
REMARK VINA RESULT:      -5.9     21.849     23.403
REMARK  Name = 
REMARK  3 active torsions:
REMARK  status: ('A' for Active; 'I' for Inactive)
REMARK    1  A    between atoms: C_11  and  C_13
REMARK    2  A    between atoms: C_13  and  C_14
REMARK    3  A    between atoms: C_14  and  C_15
REMARK                            x       y       z     vdW  Elec       q    Type
REMARK                         _______ _______ _______ _____ _____    ______ ____
ROOT
ATOM      1  O   UNL     1      25.313  10.309  38.656  0.00  0.00    +0.000 OA
ATOM      2  C   UNL     1      24.342  10.606  37.983  0.00  0.00    +0.000 C 
ATOM      3  C   UNL     1      24.355  10.706  36.569  0.00  0.00    +0.000 C 
ATOM      4  C   UNL     1      23.402   9.575  36.125  0.00  0.00    +0.000 C 
ATOM      5  C   UNL     1      22.141  10.078  36.709  0.00  0.00    +0.000 C 
ATOM      6  C   UNL     1      22.059   9.663  38.266  0.00  0.00    +0.000 C 
ATOM      7  C   UNL     1      23.093  10.857  38.924  0.00  0.00    +0.000 C 
ATOM      8  C   UNL     1      22.450  12.127  38.132  0.00  0.00    +0.000 C 
ATOM      9  C   UNL     1      21.438  12.599  39.164  0.00  0.00    +0.000 C 
ATOM     10  C   UNL     1      20.822  11.338  39.757  0.00  0.00    +0.000 C 
ATOM     11  C   UNL     1      20.672  10.399  38.612  0.00  0.00    +0.000 C 
ATOM     12  O   UNL     1      20.105  11.033  37.583  0.00  0.00    +0.000 OA
ENDROOT
BRANCH  11  13
ATOM     13  C   UNL     1      19.755   9.214  38.968  0.00  0.00    +0.000 C 
BRANCH  13  14
ATOM     14  C   UNL     1      18.362   9.848  39.009  0.00  0.00    +0.000 C 
BRANCH  14  15
ATOM     15  C   UNL     1      17.506   9.098  39.952  0.00  0.00    +0.000 A 
ATOM     16  C   UNL     1      17.861   7.846  40.408  0.00  0.00    +0.000 A 
ATOM     17  C   UNL     1      17.057   7.148  41.289  0.00  0.00    +0.000 A 
ATOM     18  C   UNL     1      15.855   7.689  41.752  0.00  0.00    +0.000 A 
ATOM     19  C   UNL     1      15.510   8.942  41.290  0.00  0.00    +0.000 A 
ATOM     20  C   UNL     1      16.311   9.639  40.410  0.00  0.00    +0.000 A 
ENDBRANCH  14  15
ENDBRANCH  13  14
ENDBRANCH  11  13
TORSDOF 3
ENDMDL
MODEL 9
REMARK VINA RESULT:      -5.8     14.148     15.407
REMARK  Name = 
REMARK  3 active torsions:
REMARK  status: ('A' for Active; 'I' for Inactive)
REMARK    1  A    between atoms: C_11  and  C_13
REMARK    2  A    between atoms: C_13  and  C_14
REMARK    3  A    between atoms: C_14  and  C_15
REMARK                            x       y       z     vdW  Elec       q    Type
REMARK                         _______ _______ _______ _____ _____    ______ ____
ROOT
ATOM      1  O   UNL     1      23.599 -11.190  20.344  0.00  0.00    +0.000 OA
ATOM      2  C   UNL     1      23.620 -10.015  20.660  0.00  0.00    +0.000 C 
ATOM      3  C   UNL     1      23.471  -8.943  19.743  0.00  0.00    +0.000 C 
ATOM      4  C   UNL     1      22.146  -8.282  20.182  0.00  0.00    +0.000 C 
ATOM      5  C   UNL     1      22.542  -7.816  21.527  0.00  0.00    +0.000 C 
ATOM      6  C   UNL     1      22.398  -9.026  22.586  0.00  0.00    +0.000 C 
ATOM      7  C   UNL     1      23.835  -9.882  22.222  0.00  0.00    +0.000 C 
ATOM      8  C   UNL     1      24.831  -8.593  22.217  0.00  0.00    +0.000 C 
ATOM      9  C   UNL     1      25.313  -8.624  23.658  0.00  0.00    +0.000 C 
ATOM     10  C   UNL     1      24.096  -8.979  24.503  0.00  0.00    +0.000 C 
ATOM     11  C   UNL     1      22.960  -8.249  23.877  0.00  0.00    +0.000 C 
ATOM     12  O   UNL     1      23.308  -6.979  23.657  0.00  0.00    +0.000 OA
ENDROOT
BRANCH  11  13
ATOM     13  C   UNL     1      21.728  -8.222  24.801  0.00  0.00    +0.000 C 
BRANCH  13  14
ATOM     14  C   UNL     1      21.525  -6.729  25.071  0.00  0.00    +0.000 C 
BRANCH  14  15
ATOM     15  C   UNL     1      20.240  -6.525  25.775  0.00  0.00    +0.000 A 
ATOM     16  C   UNL     1      19.752  -5.262  26.033  0.00  0.00    +0.000 A 
ATOM     17  C   UNL     1      18.551  -5.077  26.691  0.00  0.00    +0.000 A 
ATOM     18  C   UNL     1      17.787  -6.166  27.117  0.00  0.00    +0.000 A 
ATOM     19  C   UNL     1      18.284  -7.425  26.854  0.00  0.00    +0.000 A 
ATOM     20  C   UNL     1      19.484  -7.611  26.197  0.00  0.00    +0.000 A 
ENDBRANCH  14  15
ENDBRANCH  13  14
ENDBRANCH  11  13
TORSDOF 3
ENDMDL
MODEL 10
REMARK VINA RESULT:      -5.8     20.036     21.672
REMARK  Name = 
REMARK  3 active torsions:
REMARK  status: ('A' for Active; 'I' for Inactive)
REMARK    1  A    between atoms: C_11  and  C_13
REMARK    2  A    between atoms: C_13  and  C_14
REMARK    3  A    between atoms: C_14  and  C_15
REMARK                            x       y       z     vdW  Elec       q    Type
REMARK                         _______ _______ _______ _____ _____    ______ ____
ROOT
ATOM      1  O   UNL     1      28.064  23.059  22.131  0.00  0.00    +0.000 OA
ATOM      2  C   UNL     1      27.779  23.564  23.201  0.00  0.00    +0.000 C 
ATOM      3  C   UNL     1      26.474  23.991  23.555  0.00  0.00    +0.000 C 
ATOM      4  C   UNL     1      26.101  23.057  24.727  0.00  0.00    +0.000 C 
ATOM      5  C   UNL     1      27.116  23.486  25.711  0.00  0.00    +0.000 C 
ATOM      6  C   UNL     1      28.509  22.723  25.424  0.00  0.00    +0.000 C 
ATOM      7  C   UNL     1      29.072  23.664  24.109  0.00  0.00    +0.000 C 
ATOM      8  C   UNL     1      28.782  25.121  24.777  0.00  0.00    +0.000 C 
ATOM      9  C   UNL     1      30.137  25.399  25.407  0.00  0.00    +0.000 C 
ATOM     10  C   UNL     1      30.608  24.075  25.995  0.00  0.00    +0.000 C 
ATOM     11  C   UNL     1      29.387  23.442  26.563  0.00  0.00    +0.000 C 
ATOM     12  O   UNL     1      28.721  24.333  27.302  0.00  0.00    +0.000 OA
ENDROOT
BRANCH  11  13
ATOM     13  C   UNL     1      29.740  22.266  27.492  0.00  0.00    +0.000 C 
BRANCH  13  14
ATOM     14  C   UNL     1      29.900  22.934  28.860  0.00  0.00    +0.000 C 
BRANCH  14  15
ATOM     15  C   UNL     1      31.066  22.352  29.559  0.00  0.00    +0.000 A 
ATOM     16  C   UNL     1      31.036  22.087  30.912  0.00  0.00    +0.000 A 
ATOM     17  C   UNL     1      32.128  21.543  31.561  0.00  0.00    +0.000 A 
ATOM     18  C   UNL     1      33.303  21.242  30.869  0.00  0.00    +0.000 A 
ATOM     19  C   UNL     1      33.322  21.512  29.516  0.00  0.00    +0.000 A 
ATOM     20  C   UNL     1      32.233  22.055  28.867  0.00  0.00    +0.000 A 
ENDBRANCH  14  15
ENDBRANCH  13  14
ENDBRANCH  11  13
TORSDOF 3
ENDMDL
