MODEL 1
REMARK VINA RESULT:      -6.4      0.000      0.000
REMARK  Name = 
REMARK  3 active torsions:
REMARK  status: ('A' for Active; 'I' for Inactive)
REMARK    1  A    between atoms: S_2  and  C_3
REMARK    2  A    between atoms: C_7  and  C_8
REMARK    3  A    between atoms: C_15  and  C_16
REMARK                            x       y       z     vdW  Elec       q    Type
REMARK                         _______ _______ _______ _____ _____    ______ ____
ROOT
ATOM      1  C   UNL     1      26.970  23.327  27.947  0.00  0.00    +0.000 A 
ATOM      2  N   UNL     1      25.836  24.011  28.154  0.00  0.00    +0.000 NA
ATOM      3  C   UNL     1      25.302  24.810  27.194  0.00  0.00    +0.000 A 
ATOM      4  C   UNL     1      25.915  24.940  25.979  0.00  0.00    +0.000 A 
ATOM      5  C   UNL     1      27.105  24.245  25.708  0.00  0.00    +0.000 A 
ATOM      6  C   UNL     1      27.594  23.455  26.715  0.00  0.00    +0.000 A 
ATOM      7  C   UNL     1      25.417  25.779  24.869  0.00  0.00    +0.000 C 
ATOM      8  C   UNL     1      24.013  26.248  25.085  0.00  0.00    +0.000 C 
ATOM      9  C   UNL     1      23.810  26.692  26.520  0.00  0.00    +0.000 C 
ATOM     10  C   UNL     1      24.045  25.542  27.475  0.00  0.00    +0.000 C 
ENDROOT
BRANCH   5  11
ATOM     11  C   UNL     1      27.768  24.371  24.434  0.00  0.00    +0.000 A 
ATOM     12  C   UNL     1      28.744  25.300  24.166  0.00  0.00    +0.000 A 
ATOM     13  C   UNL     1      29.395  25.381  22.946  0.00  0.00    +0.000 A 
ATOM     14  C   UNL     1      29.046  24.476  21.933  0.00  0.00    +0.000 A 
ATOM     15  O   UNL     1      29.725  24.587  20.718  0.00  0.00    +0.000 OA
ATOM     16  C   UNL     1      28.077  23.566  22.216  0.00  0.00    +0.000 A 
ATOM     17  C   UNL     1      27.427  23.483  23.434  0.00  0.00    +0.000 A 
ENDBRANCH   5  11
BRANCH   1  19
ATOM     18  C   UNL     1      26.396  21.753  30.371  0.00  0.00    +0.000 C 
ATOM     19  S   UNL     1      27.684  22.270  29.200  0.00  0.00    +0.000 S 
ENDBRANCH   1  19
BRANCH   6  20
ATOM     20  C   UNL     1      28.804  22.715  26.512  0.00  0.00    +0.000 C 
ATOM     21  N   UNL     1      29.806  22.124  26.351  0.00  0.00    +0.000 NA
ENDBRANCH   6  20
TORSDOF 3
ENDMDL
MODEL 2
REMARK VINA RESULT:      -6.0     14.216     17.218
REMARK  Name = 
REMARK  3 active torsions:
REMARK  status: ('A' for Active; 'I' for Inactive)
REMARK    1  A    between atoms: S_2  and  C_3
REMARK    2  A    between atoms: C_7  and  C_8
REMARK    3  A    between atoms: C_15  and  C_16
REMARK                            x       y       z     vdW  Elec       q    Type
REMARK                         _______ _______ _______ _____ _____    ______ ____
ROOT
ATOM      1  C   UNL     1      33.480  20.449  11.477  0.00  0.00    +0.000 A 
ATOM      2  N   UNL     1      32.692  21.035  12.390  0.00  0.00    +0.000 NA
ATOM      3  C   UNL     1      31.488  21.566  12.054  0.00  0.00    +0.000 A 
ATOM      4  C   UNL     1      31.043  21.517  10.763  0.00  0.00    +0.000 A 
ATOM      5  C   UNL     1      31.828  20.913   9.766  0.00  0.00    +0.000 A 
ATOM      6  C   UNL     1      33.032  20.396  10.166  0.00  0.00    +0.000 A 
ATOM      7  C   UNL     1      29.752  22.061  10.294  0.00  0.00    +0.000 C 
ATOM      8  C   UNL     1      28.830  22.409  11.421  0.00  0.00    +0.000 C 
ATOM      9  C   UNL     1      29.586  23.105  12.535  0.00  0.00    +0.000 C 
ATOM     10  C   UNL     1      30.656  22.200  13.103  0.00  0.00    +0.000 C 
ENDROOT
BRANCH   5  11
ATOM     11  C   UNL     1      31.379  20.855   8.397  0.00  0.00    +0.000 A 
ATOM     12  C   UNL     1      30.568  19.865   7.897  0.00  0.00    +0.000 A 
ATOM     13  C   UNL     1      30.117  19.847   6.587  0.00  0.00    +0.000 A 
ATOM     14  C   UNL     1      30.505  20.884   5.726  0.00  0.00    +0.000 A 
ATOM     15  O   UNL     1      30.029  20.832   4.415  0.00  0.00    +0.000 OA
ATOM     16  C   UNL     1      31.308  21.853   6.238  0.00  0.00    +0.000 A 
ATOM     17  C   UNL     1      31.758  21.872   7.546  0.00  0.00    +0.000 A 
ENDBRANCH   5  11
BRANCH   1  19
ATOM     18  C   UNL     1      36.380  20.957  11.582  0.00  0.00    +0.000 C 
ATOM     19  S   UNL     1      35.067  19.745  11.904  0.00  0.00    +0.000 S 
ENDBRANCH   1  19
BRANCH   6  20
ATOM     20  C   UNL     1      33.887  19.765   9.205  0.00  0.00    +0.000 C 
ATOM     21  N   UNL     1      34.600  19.244   8.430  0.00  0.00    +0.000 NA
ENDBRANCH   6  20
TORSDOF 3
ENDMDL
MODEL 3
REMARK VINA RESULT:      -5.9      3.691      6.661
REMARK  Name = 
REMARK  3 active torsions:
REMARK  status: ('A' for Active; 'I' for Inactive)
REMARK    1  A    between atoms: S_2  and  C_3
REMARK    2  A    between atoms: C_7  and  C_8
REMARK    3  A    between atoms: C_15  and  C_16
REMARK                            x       y       z     vdW  Elec       q    Type
REMARK                         _______ _______ _______ _____ _____    ______ ____
ROOT
ATOM      1  C   UNL     1      29.057  23.689  23.526  0.00  0.00    +0.000 A 
ATOM      2  N   UNL     1      30.383  23.865  23.616  0.00  0.00    +0.000 NA
ATOM      3  C   UNL     1      31.016  23.896  24.818  0.00  0.00    +0.000 A 
ATOM      4  C   UNL     1      30.310  23.748  25.979  0.00  0.00    +0.000 A 
ATOM      5  C   UNL     1      28.918  23.560  25.941  0.00  0.00    +0.000 A 
ATOM      6  C   UNL     1      28.337  23.537  24.701  0.00  0.00    +0.000 A 
ATOM      7  C   UNL     1      30.900  23.765  27.333  0.00  0.00    +0.000 C 
ATOM      8  C   UNL     1      32.393  23.659  27.312  0.00  0.00    +0.000 C 
ATOM      9  C   UNL     1      32.977  24.532  26.220  0.00  0.00    +0.000 C 
ATOM     10  C   UNL     1      32.484  24.091  24.860  0.00  0.00    +0.000 C 
ENDROOT
BRANCH   5  11
ATOM     11  C   UNL     1      28.154  23.406  27.155  0.00  0.00    +0.000 A 
ATOM     12  C   UNL     1      28.036  22.223  27.842  0.00  0.00    +0.000 A 
ATOM     13  C   UNL     1      27.327  22.104  29.027  0.00  0.00    +0.000 A 
ATOM     14  C   UNL     1      26.698  23.243  29.553  0.00  0.00    +0.000 A 
ATOM     15  O   UNL     1      25.995  23.084  30.749  0.00  0.00    +0.000 OA
ATOM     16  C   UNL     1      26.824  24.403  28.858  0.00  0.00    +0.000 A 
ATOM     17  C   UNL     1      27.533  24.522  27.676  0.00  0.00    +0.000 A 
ENDBRANCH   5  11
BRANCH   1  19
ATOM     18  C   UNL     1      27.627  25.310  21.524  0.00  0.00    +0.000 C 
ATOM     19  S   UNL     1      28.210  23.644  21.951  0.00  0.00    +0.000 S 
ENDBRANCH   1  19
BRANCH   6  20
ATOM     20  C   UNL     1      26.922  23.349  24.584  0.00  0.00    +0.000 C 
ATOM     21  N   UNL     1      25.761  23.186  24.504  0.00  0.00    +0.000 NA
ENDBRANCH   6  20
TORSDOF 3
ENDMDL
MODEL 4
REMARK VINA RESULT:      -5.8      2.534      4.527
REMARK  Name = 
REMARK  3 active torsions:
REMARK  status: ('A' for Active; 'I' for Inactive)
REMARK    1  A    between atoms: S_2  and  C_3
REMARK    2  A    between atoms: C_7  and  C_8
REMARK    3  A    between atoms: C_15  and  C_16
REMARK                            x       y       z     vdW  Elec       q    Type
REMARK                         _______ _______ _______ _____ _____    ______ ____
ROOT
ATOM      1  C   UNL     1      24.344  26.030  28.536  0.00  0.00    +0.000 A 
ATOM      2  N   UNL     1      24.895  25.365  29.561  0.00  0.00    +0.000 NA
ATOM      3  C   UNL     1      25.808  24.379  29.361  0.00  0.00    +0.000 A 
ATOM      4  C   UNL     1      26.192  24.035  28.095  0.00  0.00    +0.000 A 
ATOM      5  C   UNL     1      25.647  24.701  26.985  0.00  0.00    +0.000 A 
ATOM      6  C   UNL     1      24.732  25.685  27.250  0.00  0.00    +0.000 A 
ATOM      7  C   UNL     1      27.176  22.983  27.770  0.00  0.00    +0.000 C 
ATOM      8  C   UNL     1      27.946  22.523  28.967  0.00  0.00    +0.000 C 
ATOM      9  C   UNL     1      27.030  22.358  30.163  0.00  0.00    +0.000 C 
ATOM     10  C   UNL     1      26.387  23.678  30.530  0.00  0.00    +0.000 C 
ENDROOT
BRANCH   5  11
ATOM     11  C   UNL     1      26.037  24.351  25.642  0.00  0.00    +0.000 A 
ATOM     12  C   UNL     1      25.410  23.390  24.887  0.00  0.00    +0.000 A 
ATOM     13  C   UNL     1      25.776  23.093  23.584  0.00  0.00    +0.000 A 
ATOM     14  C   UNL     1      26.837  23.804  23.003  0.00  0.00    +0.000 A 
ATOM     15  O   UNL     1      27.176  23.479  21.689  0.00  0.00    +0.000 OA
ATOM     16  C   UNL     1      27.447  24.749  23.766  0.00  0.00    +0.000 A 
ATOM     17  C   UNL     1      27.081  25.046  25.067  0.00  0.00    +0.000 A 
ENDBRANCH   5  11
BRANCH   1  19
ATOM     18  C   UNL     1      21.466  26.633  28.729  0.00  0.00    +0.000 C 
ATOM     19  S   UNL     1      23.142  27.330  28.784  0.00  0.00    +0.000 S 
ENDBRANCH   1  19
BRANCH   6  20
ATOM     20  C   UNL     1      24.133  26.408  26.168  0.00  0.00    +0.000 C 
ATOM     21  N   UNL     1      23.640  26.985  25.272  0.00  0.00    +0.000 NA
ENDBRANCH   6  20
TORSDOF 3
ENDMDL
MODEL 5
REMARK VINA RESULT:      -5.7      1.580      2.092
REMARK  Name = 
REMARK  3 active torsions:
REMARK  status: ('A' for Active; 'I' for Inactive)
REMARK    1  A    between atoms: S_2  and  C_3
REMARK    2  A    between atoms: C_7  and  C_8
REMARK    3  A    between atoms: C_15  and  C_16
REMARK                            x       y       z     vdW  Elec       q    Type
REMARK                         _______ _______ _______ _____ _____    ______ ____
ROOT
ATOM      1  C   UNL     1      26.113  24.120  29.211  0.00  0.00    +0.000 A 
ATOM      2  N   UNL     1      25.168  25.006  29.554  0.00  0.00    +0.000 NA
ATOM      3  C   UNL     1      24.465  25.694  28.618  0.00  0.00    +0.000 A 
ATOM      4  C   UNL     1      24.707  25.500  27.287  0.00  0.00    +0.000 A 
ATOM      5  C   UNL     1      25.685  24.582  26.871  0.00  0.00    +0.000 A 
ATOM      6  C   UNL     1      26.361  23.918  27.862  0.00  0.00    +0.000 A 
ATOM      7  C   UNL     1      23.999  26.194  26.191  0.00  0.00    +0.000 C 
ATOM      8  C   UNL     1      22.776  26.917  26.662  0.00  0.00    +0.000 C 
ATOM      9  C   UNL     1      23.050  27.641  27.965  0.00  0.00    +0.000 C 
ATOM     10  C   UNL     1      23.430  26.661  29.052  0.00  0.00    +0.000 C 
ENDROOT
BRANCH   5  11
ATOM     11  C   UNL     1      25.958  24.365  25.472  0.00  0.00    +0.000 A 
ATOM     12  C   UNL     1      26.835  25.122  24.735  0.00  0.00    +0.000 A 
ATOM     13  C   UNL     1      27.111  24.874  23.400  0.00  0.00    +0.000 A 
ATOM     14  C   UNL     1      26.465  23.802  22.766  0.00  0.00    +0.000 A 
ATOM     15  O   UNL     1      26.770  23.583  21.421  0.00  0.00    +0.000 OA
ATOM     16  C   UNL     1      25.600  23.067  23.511  0.00  0.00    +0.000 A 
ATOM     17  C   UNL     1      25.325  23.312  24.844  0.00  0.00    +0.000 A 
ENDBRANCH   5  11
BRANCH   1  19
ATOM     18  C   UNL     1      26.356  21.533  30.602  0.00  0.00    +0.000 C 
ATOM     19  S   UNL     1      27.046  23.205  30.433  0.00  0.00    +0.000 S 
ENDBRANCH   1  19
BRANCH   6  20
ATOM     20  C   UNL     1      27.373  22.966  27.515  0.00  0.00    +0.000 C 
ATOM     21  N   UNL     1      28.194  22.173  27.237  0.00  0.00    +0.000 NA
ENDBRANCH   6  20
TORSDOF 3
ENDMDL
MODEL 6
REMARK VINA RESULT:      -5.6     32.824     35.124
REMARK  Name = 
REMARK  3 active torsions:
REMARK  status: ('A' for Active; 'I' for Inactive)
REMARK    1  A    between atoms: S_2  and  C_3
REMARK    2  A    between atoms: C_7  and  C_8
REMARK    3  A    between atoms: C_15  and  C_16
REMARK                            x       y       z     vdW  Elec       q    Type
REMARK                         _______ _______ _______ _____ _____    ______ ____
ROOT
ATOM      1  C   UNL     1      15.499 -10.896  27.828  0.00  0.00    +0.000 A 
ATOM      2  N   UNL     1      15.926 -11.389  28.999  0.00  0.00    +0.000 NA
ATOM      3  C   UNL     1      17.039 -10.908  29.610  0.00  0.00    +0.000 A 
ATOM      4  C   UNL     1      17.761  -9.896  29.040  0.00  0.00    +0.000 A 
ATOM      5  C   UNL     1      17.357  -9.342  27.814  0.00  0.00    +0.000 A 
ATOM      6  C   UNL     1      16.227  -9.869  27.247  0.00  0.00    +0.000 A 
ATOM      7  C   UNL     1      18.982  -9.301  29.621  0.00  0.00    +0.000 C 
ATOM      8  C   UNL     1      19.196  -9.700  31.048  0.00  0.00    +0.000 C 
ATOM      9  C   UNL     1      18.907 -11.176  31.240  0.00  0.00    +0.000 C 
ATOM     10  C   UNL     1      17.466 -11.488  30.904  0.00  0.00    +0.000 C 
ENDROOT
BRANCH   5  11
ATOM     11  C   UNL     1      18.107  -8.277  27.195  0.00  0.00    +0.000 A 
ATOM     12  C   UNL     1      19.175  -8.479  26.355  0.00  0.00    +0.000 A 
ATOM     13  C   UNL     1      19.860  -7.443  25.741  0.00  0.00    +0.000 A 
ATOM     14  C   UNL     1      19.449  -6.124  25.986  0.00  0.00    +0.000 A 
ATOM     15  O   UNL     1      20.162  -5.107  25.348  0.00  0.00    +0.000 OA
ATOM     16  C   UNL     1      18.393  -5.945  26.821  0.00  0.00    +0.000 A 
ATOM     17  C   UNL     1      17.708  -6.978  27.434  0.00  0.00    +0.000 A 
ENDBRANCH   5  11
BRANCH   1  19
ATOM     18  C   UNL     1      12.580 -10.581  27.565  0.00  0.00    +0.000 C 
ATOM     19  S   UNL     1      14.034 -11.519  27.012  0.00  0.00    +0.000 S 
ENDBRANCH   1  19
BRANCH   6  20
ATOM     20  C   UNL     1      15.754  -9.354  25.997  0.00  0.00    +0.000 C 
ATOM     21  N   UNL     1      15.369  -8.915  24.978  0.00  0.00    +0.000 NA
ENDBRANCH   6  20
TORSDOF 3
ENDMDL
MODEL 7
REMARK VINA RESULT:      -5.6      4.263      6.313
REMARK  Name = 
REMARK  3 active torsions:
REMARK  status: ('A' for Active; 'I' for Inactive)
REMARK    1  A    between atoms: S_2  and  C_3
REMARK    2  A    between atoms: C_7  and  C_8
REMARK    3  A    between atoms: C_15  and  C_16
REMARK                            x       y       z     vdW  Elec       q    Type
REMARK                         _______ _______ _______ _____ _____    ______ ____
ROOT
ATOM      1  C   UNL     1      27.848  22.765  28.505  0.00  0.00    +0.000 A 
ATOM      2  N   UNL     1      27.726  22.806  27.171  0.00  0.00    +0.000 NA
ATOM      3  C   UNL     1      28.813  22.868  26.359  0.00  0.00    +0.000 A 
ATOM      4  C   UNL     1      30.073  22.891  26.887  0.00  0.00    +0.000 A 
ATOM      5  C   UNL     1      30.259  22.849  28.279  0.00  0.00    +0.000 A 
ATOM      6  C   UNL     1      29.124  22.787  29.046  0.00  0.00    +0.000 A 
ATOM      7  C   UNL     1      31.319  22.956  26.095  0.00  0.00    +0.000 C 
ATOM      8  C   UNL     1      31.091  22.691  24.640  0.00  0.00    +0.000 C 
ATOM      9  C   UNL     1      29.846  23.405  24.154  0.00  0.00    +0.000 C 
ATOM     10  C   UNL     1      28.621  22.909  24.891  0.00  0.00    +0.000 C 
ENDROOT
BRANCH   5  11
ATOM     11  C   UNL     1      31.579  22.877  28.856  0.00  0.00    +0.000 A 
ATOM     12  C   UNL     1      32.257  24.030  29.168  0.00  0.00    +0.000 A 
ATOM     13  C   UNL     1      33.511  24.035  29.756  0.00  0.00    +0.000 A 
ATOM     14  C   UNL     1      34.124  22.807  30.048  0.00  0.00    +0.000 A 
ATOM     15  O   UNL     1      35.387  22.853  30.642  0.00  0.00    +0.000 OA
ATOM     16  C   UNL     1      33.440  21.678  29.731  0.00  0.00    +0.000 A 
ATOM     17  C   UNL     1      32.187  21.672  29.144  0.00  0.00    +0.000 A 
ENDBRANCH   5  11
BRANCH   1  19
ATOM     18  C   UNL     1      25.906  24.361  30.043  0.00  0.00    +0.000 C 
ATOM     19  S   UNL     1      26.426  22.682  29.587  0.00  0.00    +0.000 S 
ENDBRANCH   1  19
BRANCH   6  20
ATOM     20  C   UNL     1      29.234  22.741  30.473  0.00  0.00    +0.000 C 
ATOM     21  N   UNL     1      29.340  22.694  31.642  0.00  0.00    +0.000 NA
ENDBRANCH   6  20
TORSDOF 3
ENDMDL
MODEL 8
REMARK VINA RESULT:      -5.6      2.940      4.339
REMARK  Name = 
REMARK  3 active torsions:
REMARK  status: ('A' for Active; 'I' for Inactive)
REMARK    1  A    between atoms: S_2  and  C_3
REMARK    2  A    between atoms: C_7  and  C_8
REMARK    3  A    between atoms: C_15  and  C_16
REMARK                            x       y       z     vdW  Elec       q    Type
REMARK                         _______ _______ _______ _____ _____    ______ ____
ROOT
ATOM      1  C   UNL     1      28.294  22.960  26.601  0.00  0.00    +0.000 A 
ATOM      2  N   UNL     1      27.475  22.962  25.540  0.00  0.00    +0.000 NA
ATOM      3  C   UNL     1      27.868  23.458  24.338  0.00  0.00    +0.000 A 
ATOM      4  C   UNL     1      29.123  23.976  24.178  0.00  0.00    +0.000 A 
ATOM      5  C   UNL     1      30.023  23.998  25.257  0.00  0.00    +0.000 A 
ATOM      6  C   UNL     1      29.569  23.483  26.443  0.00  0.00    +0.000 A 
ATOM      7  C   UNL     1      29.649  24.537  22.917  0.00  0.00    +0.000 C 
ATOM      8  C   UNL     1      28.785  24.217  21.739  0.00  0.00    +0.000 C 
ATOM      9  C   UNL     1      27.319  24.382  22.088  0.00  0.00    +0.000 C 
ATOM     10  C   UNL     1      26.923  23.434  23.198  0.00  0.00    +0.000 C 
ENDROOT
BRANCH   5  11
ATOM     11  C   UNL     1      31.350  24.543  25.110  0.00  0.00    +0.000 A 
ATOM     12  C   UNL     1      31.672  25.854  25.357  0.00  0.00    +0.000 A 
ATOM     13  C   UNL     1      32.961  26.350  25.245  0.00  0.00    +0.000 A 
ATOM     14  C   UNL     1      33.989  25.476  24.860  0.00  0.00    +0.000 A 
ATOM     15  O   UNL     1      35.274  26.012  24.760  0.00  0.00    +0.000 OA
ATOM     16  C   UNL     1      33.650  24.183  24.618  0.00  0.00    +0.000 A 
ATOM     17  C   UNL     1      32.364  23.687  24.731  0.00  0.00    +0.000 A 
ENDBRANCH   5  11
BRANCH   1  19
ATOM     18  C   UNL     1      26.523  23.385  28.917  0.00  0.00    +0.000 C 
ATOM     19  S   UNL     1      27.791  22.308  28.188  0.00  0.00    +0.000 S 
ENDBRANCH   1  19
BRANCH   6  20
ATOM     20  C   UNL     1      30.430  23.471  27.587  0.00  0.00    +0.000 C 
ATOM     21  N   UNL     1      31.150  23.466  28.515  0.00  0.00    +0.000 NA
ENDBRANCH   6  20
TORSDOF 3
ENDMDL
MODEL 9
REMARK VINA RESULT:      -5.6     14.894     17.270
REMARK  Name = 
REMARK  3 active torsions:
REMARK  status: ('A' for Active; 'I' for Inactive)
REMARK    1  A    between atoms: S_2  and  C_3
REMARK    2  A    between atoms: C_7  and  C_8
REMARK    3  A    between atoms: C_15  and  C_16
REMARK                            x       y       z     vdW  Elec       q    Type
REMARK                         _______ _______ _______ _____ _____    ______ ____
ROOT
ATOM      1  C   UNL     1      11.504  25.093  23.109  0.00  0.00    +0.000 A 
ATOM      2  N   UNL     1      12.820  25.005  22.867  0.00  0.00    +0.000 NA
ATOM      3  C   UNL     1      13.334  24.025  22.079  0.00  0.00    +0.000 A 
ATOM      4  C   UNL     1      12.514  23.093  21.507  0.00  0.00    +0.000 A 
ATOM      5  C   UNL     1      11.127  23.139  21.727  0.00  0.00    +0.000 A 
ATOM      6  C   UNL     1      10.669  24.150  22.530  0.00  0.00    +0.000 A 
ATOM      7  C   UNL     1      12.970  21.991  20.634  0.00  0.00    +0.000 C 
ATOM      8  C   UNL     1      14.387  22.161  20.185  0.00  0.00    +0.000 C 
ATOM      9  C   UNL     1      15.261  22.631  21.330  0.00  0.00    +0.000 C 
ATOM     10  C   UNL     1      14.795  23.976  21.842  0.00  0.00    +0.000 C 
ENDROOT
BRANCH   5  11
ATOM     11  C   UNL     1      10.246  22.163  21.135  0.00  0.00    +0.000 A 
ATOM     12  C   UNL     1       9.652  22.310  19.906  0.00  0.00    +0.000 A 
ATOM     13  C   UNL     1       8.837  21.344  19.339  0.00  0.00    +0.000 A 
ATOM     14  C   UNL     1       8.604  20.157  20.050  0.00  0.00    +0.000 A 
ATOM     15  O   UNL     1       7.779  19.206  19.446  0.00  0.00    +0.000 OA
ATOM     16  C   UNL     1       9.198  20.030  21.265  0.00  0.00    +0.000 A 
ATOM     17  C   UNL     1      10.013  20.994  21.831  0.00  0.00    +0.000 A 
ENDBRANCH   5  11
BRANCH   1  19
ATOM     18  C   UNL     1      10.783  25.821  25.872  0.00  0.00    +0.000 C 
ATOM     19  S   UNL     1      10.813  26.378  24.144  0.00  0.00    +0.000 S 
ENDBRANCH   1  19
BRANCH   6  20
ATOM     20  C   UNL     1       9.267  24.261  22.799  0.00  0.00    +0.000 C 
ATOM     21  N   UNL     1       8.117  24.370  23.017  0.00  0.00    +0.000 NA
ENDBRANCH   6  20
TORSDOF 3
ENDMDL
MODEL 10
REMARK VINA RESULT:      -5.5     23.725     26.817
REMARK  Name = 
REMARK  3 active torsions:
REMARK  status: ('A' for Active; 'I' for Inactive)
REMARK    1  A    between atoms: S_2  and  C_3
REMARK    2  A    between atoms: C_7  and  C_8
REMARK    3  A    between atoms: C_15  and  C_16
REMARK                            x       y       z     vdW  Elec       q    Type
REMARK                         _______ _______ _______ _____ _____    ______ ____
ROOT
ATOM      1  C   UNL     1      34.264   2.134  38.349  0.00  0.00    +0.000 A 
ATOM      2  N   UNL     1      34.241   3.281  37.656  0.00  0.00    +0.000 NA
ATOM      3  C   UNL     1      34.010   3.298  36.318  0.00  0.00    +0.000 A 
ATOM      4  C   UNL     1      33.793   2.134  35.635  0.00  0.00    +0.000 A 
ATOM      5  C   UNL     1      33.805   0.903  36.313  0.00  0.00    +0.000 A 
ATOM      6  C   UNL     1      34.043   0.950  37.661  0.00  0.00    +0.000 A 
ATOM      7  C   UNL     1      33.530   2.043  34.184  0.00  0.00    +0.000 C 
ATOM      8  C   UNL     1      33.224   3.373  33.570  0.00  0.00    +0.000 C 
ATOM      9  C   UNL     1      34.158   4.439  34.105  0.00  0.00    +0.000 C 
ATOM     10  C   UNL     1      33.993   4.594  35.601  0.00  0.00    +0.000 C 
ENDROOT
BRANCH   5  11
ATOM     11  C   UNL     1      33.582  -0.336  35.611  0.00  0.00    +0.000 A 
ATOM     12  C   UNL     1      34.576  -1.062  35.002  0.00  0.00    +0.000 A 
ATOM     13  C   UNL     1      34.347  -2.270  34.363  0.00  0.00    +0.000 A 
ATOM     14  C   UNL     1      33.040  -2.780  34.333  0.00  0.00    +0.000 A 
ATOM     15  O   UNL     1      32.849  -4.000  33.682  0.00  0.00    +0.000 OA
ATOM     16  C   UNL     1      32.070  -2.046  34.939  0.00  0.00    +0.000 A 
ATOM     17  C   UNL     1      32.298  -0.841  35.577  0.00  0.00    +0.000 A 
ENDBRANCH   5  11
BRANCH   1  19
ATOM     18  C   UNL     1      32.993   2.254  41.005  0.00  0.00    +0.000 C 
ATOM     19  S   UNL     1      34.566   2.095  40.111  0.00  0.00    +0.000 S 
ENDBRANCH   1  19
BRANCH   6  20
ATOM     20  C   UNL     1      34.071  -0.265  38.419  0.00  0.00    +0.000 C 
ATOM     21  N   UNL     1      34.097  -1.271  39.026  0.00  0.00    +0.000 NA
ENDBRANCH   6  20
TORSDOF 3
ENDMDL
