MODEL 1
REMARK VINA RESULT:      -6.1      0.000      0.000
REMARK  Name = 
REMARK  4 active torsions:
REMARK  status: ('A' for Active; 'I' for Inactive)
REMARK    1  A    between atoms: C_2  and  C_3
REMARK    2  A    between atoms: C_3  and  C_4
REMARK    3  A    between atoms: C_7  and  C_8
REMARK    4  A    between atoms: C_14  and  C_15
REMARK                            x       y       z     vdW  Elec       q    Type
REMARK                         _______ _______ _______ _____ _____    ______ ____
ROOT
ATOM      1  C   UNL     1      32.855  24.789  24.975  0.00  0.00    +0.000 A 
ATOM      2  C   UNL     1      32.510  23.495  24.722  0.00  0.00    +0.000 A 
ATOM      3  C   UNL     1      31.172  23.198  24.446  0.00  0.00    +0.000 A 
ATOM      4  C   UNL     1      30.211  24.177  24.426  0.00  0.00    +0.000 A 
ATOM      5  C   UNL     1      30.604  25.473  24.689  0.00  0.00    +0.000 A 
ATOM      6  C   UNL     1      31.928  25.788  24.965  0.00  0.00    +0.000 A 
ENDROOT
BRANCH   4   7
ATOM      7  C   UNL     1      28.775  23.850  24.161  0.00  0.00    +0.000 A 
ATOM      8  C   UNL     1      27.950  23.492  25.190  0.00  0.00    +0.000 A 
ATOM      9  C   UNL     1      28.297  23.384  26.660  0.00  0.00    +0.000 C 
ATOM     10  S   UNL     1      26.462  23.200  24.437  0.00  0.00    +0.000 S 
ATOM     11  C   UNL     1      26.895  23.536  22.826  0.00  0.00    +0.000 A 
ATOM     12  N   UNL     1      26.084  23.487  21.623  0.00  0.00    +0.000 NA
ATOM     13  C   UNL     1      28.221  23.873  22.921  0.00  0.00    +0.000 A 
BRANCH  13  14
ATOM     14  C   UNL     1      28.978  24.234  21.704  0.00  0.00    +0.000 C 
ATOM     15  N   UNL     1      29.568  24.522  20.729  0.00  0.00    +0.000 NA
ENDBRANCH  13  14
ENDBRANCH   4   7
BRANCH   1  16
ATOM     16  C   UNL     1      34.269  25.158  25.270  0.00  0.00    +0.000 C 
BRANCH  16  18
ATOM     17  C   UNL     1      36.237  23.699  24.682  0.00  0.00    +0.000 C 
ATOM     18  C   UNL     1      35.137  24.605  24.162  0.00  0.00    +0.000 C 
ENDBRANCH  16  18
ENDBRANCH   1  16
TORSDOF 4
ENDMDL
MODEL 2
REMARK VINA RESULT:      -5.2      3.039      4.820
REMARK  Name = 
REMARK  4 active torsions:
REMARK  status: ('A' for Active; 'I' for Inactive)
REMARK    1  A    between atoms: C_2  and  C_3
REMARK    2  A    between atoms: C_3  and  C_4
REMARK    3  A    between atoms: C_7  and  C_8
REMARK    4  A    between atoms: C_14  and  C_15
REMARK                            x       y       z     vdW  Elec       q    Type
REMARK                         _______ _______ _______ _____ _____    ______ ____
ROOT
ATOM      1  C   UNL     1      29.398  26.732  21.105  0.00  0.00    +0.000 A 
ATOM      2  C   UNL     1      29.326  25.398  20.838  0.00  0.00    +0.000 A 
ATOM      3  C   UNL     1      29.070  24.513  21.890  0.00  0.00    +0.000 A 
ATOM      4  C   UNL     1      28.892  24.961  23.174  0.00  0.00    +0.000 A 
ATOM      5  C   UNL     1      28.974  26.320  23.401  0.00  0.00    +0.000 A 
ATOM      6  C   UNL     1      29.228  27.214  22.370  0.00  0.00    +0.000 A 
ENDROOT
BRANCH   4   7
ATOM      7  C   UNL     1      28.649  24.008  24.302  0.00  0.00    +0.000 A 
ATOM      8  C   UNL     1      27.372  23.726  24.699  0.00  0.00    +0.000 A 
ATOM      9  C   UNL     1      26.081  24.260  24.115  0.00  0.00    +0.000 C 
ATOM     10  S   UNL     1      27.575  22.645  25.986  0.00  0.00    +0.000 S 
ATOM     11  C   UNL     1      29.274  22.558  26.010  0.00  0.00    +0.000 A 
ATOM     12  N   UNL     1      30.146  21.794  26.884  0.00  0.00    +0.000 NA
ATOM     13  C   UNL     1      29.646  23.396  24.990  0.00  0.00    +0.000 A 
BRANCH  13  14
ATOM     14  C   UNL     1      31.079  23.598  24.690  0.00  0.00    +0.000 C 
ATOM     15  N   UNL     1      32.215  23.764  24.439  0.00  0.00    +0.000 NA
ENDBRANCH  13  14
ENDBRANCH   4   7
BRANCH   1  16
ATOM     16  C   UNL     1      29.665  27.715  20.018  0.00  0.00    +0.000 C 
BRANCH  16  18
ATOM     17  C   UNL     1      31.257  27.698  18.065  0.00  0.00    +0.000 C 
ATOM     18  C   UNL     1      30.168  26.953  18.813  0.00  0.00    +0.000 C 
ENDBRANCH  16  18
ENDBRANCH   1  16
TORSDOF 4
ENDMDL
MODEL 3
REMARK VINA RESULT:      -5.2      1.722      2.854
REMARK  Name = 
REMARK  4 active torsions:
REMARK  status: ('A' for Active; 'I' for Inactive)
REMARK    1  A    between atoms: C_2  and  C_3
REMARK    2  A    between atoms: C_3  and  C_4
REMARK    3  A    between atoms: C_7  and  C_8
REMARK    4  A    between atoms: C_14  and  C_15
REMARK                            x       y       z     vdW  Elec       q    Type
REMARK                         _______ _______ _______ _____ _____    ______ ____
ROOT
ATOM      1  C   UNL     1      32.509  24.614  25.066  0.00  0.00    +0.000 A 
ATOM      2  C   UNL     1      31.695  25.697  24.921  0.00  0.00    +0.000 A 
ATOM      3  C   UNL     1      30.423  25.514  24.371  0.00  0.00    +0.000 A 
ATOM      4  C   UNL     1      29.986  24.275  23.977  0.00  0.00    +0.000 A 
ATOM      5  C   UNL     1      30.842  23.206  24.140  0.00  0.00    +0.000 A 
ATOM      6  C   UNL     1      32.109  23.368  24.684  0.00  0.00    +0.000 A 
ENDROOT
BRANCH   4   7
ATOM      7  C   UNL     1      28.635  24.089  23.360  0.00  0.00    +0.000 A 
ATOM      8  C   UNL     1      28.415  24.460  22.063  0.00  0.00    +0.000 A 
ATOM      9  C   UNL     1      29.409  25.059  21.090  0.00  0.00    +0.000 C 
ATOM     10  S   UNL     1      26.782  24.094  21.806  0.00  0.00    +0.000 S 
ATOM     11  C   UNL     1      26.392  23.471  23.340  0.00  0.00    +0.000 A 
ATOM     12  N   UNL     1      25.127  22.954  23.832  0.00  0.00    +0.000 NA
ATOM     13  C   UNL     1      27.574  23.570  24.029  0.00  0.00    +0.000 A 
BRANCH  13  14
ATOM     14  C   UNL     1      27.644  23.125  25.437  0.00  0.00    +0.000 C 
ATOM     15  N   UNL     1      27.695  22.760  26.553  0.00  0.00    +0.000 NA
ENDBRANCH  13  14
ENDBRANCH   4   7
BRANCH   1  16
ATOM     16  C   UNL     1      33.872  24.756  25.651  0.00  0.00    +0.000 C 
BRANCH  16  18
ATOM     17  C   UNL     1      35.697  24.432  23.944  0.00  0.00    +0.000 C 
ATOM     18  C   UNL     1      34.757  25.415  24.616  0.00  0.00    +0.000 C 
ENDBRANCH  16  18
ENDBRANCH   1  16
TORSDOF 4
ENDMDL
MODEL 4
REMARK VINA RESULT:      -5.2      2.981      3.631
REMARK  Name = 
REMARK  4 active torsions:
REMARK  status: ('A' for Active; 'I' for Inactive)
REMARK    1  A    between atoms: C_2  and  C_3
REMARK    2  A    between atoms: C_3  and  C_4
REMARK    3  A    between atoms: C_7  and  C_8
REMARK    4  A    between atoms: C_14  and  C_15
REMARK                            x       y       z     vdW  Elec       q    Type
REMARK                         _______ _______ _______ _____ _____    ______ ____
ROOT
ATOM      1  C   UNL     1      31.738  23.131  28.385  0.00  0.00    +0.000 A 
ATOM      2  C   UNL     1      31.104  24.325  28.217  0.00  0.00    +0.000 A 
ATOM      3  C   UNL     1      29.933  24.364  27.455  0.00  0.00    +0.000 A 
ATOM      4  C   UNL     1      29.417  23.232  26.878  0.00  0.00    +0.000 A 
ATOM      5  C   UNL     1      30.091  22.044  27.072  0.00  0.00    +0.000 A 
ATOM      6  C   UNL     1      31.256  21.985  27.826  0.00  0.00    +0.000 A 
ENDROOT
BRANCH   4   7
ATOM      7  C   UNL     1      28.180  23.283  26.038  0.00  0.00    +0.000 A 
ATOM      8  C   UNL     1      26.948  23.191  26.622  0.00  0.00    +0.000 A 
ATOM      9  C   UNL     1      26.631  23.051  28.097  0.00  0.00    +0.000 C 
ATOM     10  S   UNL     1      25.872  23.272  25.319  0.00  0.00    +0.000 S 
ATOM     11  C   UNL     1      26.989  23.424  24.044  0.00  0.00    +0.000 A 
ATOM     12  N   UNL     1      26.750  23.545  22.617  0.00  0.00    +0.000 NA
ATOM     13  C   UNL     1      28.201  23.405  24.686  0.00  0.00    +0.000 A 
BRANCH  13  14
ATOM     14  C   UNL     1      29.450  23.511  23.902  0.00  0.00    +0.000 C 
ATOM     15  N   UNL     1      30.442  23.608  23.279  0.00  0.00    +0.000 NA
ENDBRANCH  13  14
ENDBRANCH   4   7
BRANCH   1  16
ATOM     16  C   UNL     1      32.988  23.037  29.192  0.00  0.00    +0.000 C 
BRANCH  16  18
ATOM     17  C   UNL     1      33.695  21.322  30.898  0.00  0.00    +0.000 C 
ATOM     18  C   UNL     1      33.256  21.574  29.467  0.00  0.00    +0.000 C 
ENDBRANCH  16  18
ENDBRANCH   1  16
TORSDOF 4
ENDMDL
MODEL 5
REMARK VINA RESULT:      -5.1      3.533      5.836
REMARK  Name = 
REMARK  4 active torsions:
REMARK  status: ('A' for Active; 'I' for Inactive)
REMARK    1  A    between atoms: C_2  and  C_3
REMARK    2  A    between atoms: C_3  and  C_4
REMARK    3  A    between atoms: C_7  and  C_8
REMARK    4  A    between atoms: C_14  and  C_15
REMARK                            x       y       z     vdW  Elec       q    Type
REMARK                         _______ _______ _______ _____ _____    ______ ____
ROOT
ATOM      1  C   UNL     1      26.507  24.179  27.876  0.00  0.00    +0.000 A 
ATOM      2  C   UNL     1      27.642  24.912  27.696  0.00  0.00    +0.000 A 
ATOM      3  C   UNL     1      27.982  25.319  26.403  0.00  0.00    +0.000 A 
ATOM      4  C   UNL     1      27.202  24.995  25.323  0.00  0.00    +0.000 A 
ATOM      5  C   UNL     1      26.062  24.251  25.549  0.00  0.00    +0.000 A 
ATOM      6  C   UNL     1      25.708  23.837  26.826  0.00  0.00    +0.000 A 
ENDROOT
BRANCH   4   7
ATOM      7  C   UNL     1      27.586  25.407  23.936  0.00  0.00    +0.000 A 
ATOM      8  C   UNL     1      27.021  26.513  23.366  0.00  0.00    +0.000 A 
ATOM      9  C   UNL     1      26.006  27.455  23.981  0.00  0.00    +0.000 C 
ATOM     10  S   UNL     1      27.719  26.580  21.826  0.00  0.00    +0.000 S 
ATOM     11  C   UNL     1      28.723  25.209  21.916  0.00  0.00    +0.000 A 
ATOM     12  N   UNL     1      29.627  24.661  20.921  0.00  0.00    +0.000 NA
ATOM     13  C   UNL     1      28.478  24.723  23.175  0.00  0.00    +0.000 A 
BRANCH  13  14
ATOM     14  C   UNL     1      29.173  23.504  23.641  0.00  0.00    +0.000 C 
ATOM     15  N   UNL     1      29.714  22.529  24.011  0.00  0.00    +0.000 NA
ENDBRANCH  13  14
ENDBRANCH   4   7
BRANCH   1  16
ATOM     16  C   UNL     1      26.099  23.724  29.236  0.00  0.00    +0.000 C 
BRANCH  16  18
ATOM     17  C   UNL     1      26.234  21.567  30.530  0.00  0.00    +0.000 C 
ATOM     18  C   UNL     1      26.951  22.530  29.603  0.00  0.00    +0.000 C 
ENDBRANCH  16  18
ENDBRANCH   1  16
TORSDOF 4
ENDMDL
MODEL 6
REMARK VINA RESULT:      -5.1      4.641      5.979
REMARK  Name = 
REMARK  4 active torsions:
REMARK  status: ('A' for Active; 'I' for Inactive)
REMARK    1  A    between atoms: C_2  and  C_3
REMARK    2  A    between atoms: C_3  and  C_4
REMARK    3  A    between atoms: C_7  and  C_8
REMARK    4  A    between atoms: C_14  and  C_15
REMARK                            x       y       z     vdW  Elec       q    Type
REMARK                         _______ _______ _______ _____ _____    ______ ____
ROOT
ATOM      1  C   UNL     1      27.123  24.242  23.266  0.00  0.00    +0.000 A 
ATOM      2  C   UNL     1      26.357  23.232  23.766  0.00  0.00    +0.000 A 
ATOM      3  C   UNL     1      26.237  23.101  25.153  0.00  0.00    +0.000 A 
ATOM      4  C   UNL     1      26.872  23.964  26.009  0.00  0.00    +0.000 A 
ATOM      5  C   UNL     1      27.638  24.972  25.461  0.00  0.00    +0.000 A 
ATOM      6  C   UNL     1      27.769  25.117  24.086  0.00  0.00    +0.000 A 
ENDROOT
BRANCH   4   7
ATOM      7  C   UNL     1      26.765  23.803  27.494  0.00  0.00    +0.000 A 
ATOM      8  C   UNL     1      25.739  24.392  28.177  0.00  0.00    +0.000 A 
ATOM      9  C   UNL     1      24.610  25.229  27.612  0.00  0.00    +0.000 C 
ATOM     10  S   UNL     1      26.027  23.969  29.790  0.00  0.00    +0.000 S 
ATOM     11  C   UNL     1      27.443  23.047  29.587  0.00  0.00    +0.000 A 
ATOM     12  N   UNL     1      28.249  22.362  30.582  0.00  0.00    +0.000 NA
ATOM     13  C   UNL     1      27.659  23.097  28.233  0.00  0.00    +0.000 A 
BRANCH  13  14
ATOM     14  C   UNL     1      28.826  22.404  27.648  0.00  0.00    +0.000 C 
ATOM     15  N   UNL     1      29.748  21.855  27.171  0.00  0.00    +0.000 NA
ENDBRANCH  13  14
ENDBRANCH   4   7
BRANCH   1  16
ATOM     16  C   UNL     1      27.279  24.425  21.795  0.00  0.00    +0.000 C 
BRANCH  16  18
ATOM     17  C   UNL     1      29.304  25.624  20.895  0.00  0.00    +0.000 C 
ATOM     18  C   UNL     1      28.752  24.332  21.467  0.00  0.00    +0.000 C 
ENDBRANCH  16  18
ENDBRANCH   1  16
TORSDOF 4
ENDMDL
MODEL 7
REMARK VINA RESULT:      -5.0      4.782      6.196
REMARK  Name = 
REMARK  4 active torsions:
REMARK  status: ('A' for Active; 'I' for Inactive)
REMARK    1  A    between atoms: C_2  and  C_3
REMARK    2  A    between atoms: C_3  and  C_4
REMARK    3  A    between atoms: C_7  and  C_8
REMARK    4  A    between atoms: C_14  and  C_15
REMARK                            x       y       z     vdW  Elec       q    Type
REMARK                         _______ _______ _______ _____ _____    ______ ____
ROOT
ATOM      1  C   UNL     1      27.137  24.081  23.553  0.00  0.00    +0.000 A 
ATOM      2  C   UNL     1      26.343  23.138  24.133  0.00  0.00    +0.000 A 
ATOM      3  C   UNL     1      26.295  23.064  25.528  0.00  0.00    +0.000 A 
ATOM      4  C   UNL     1      27.026  23.917  26.315  0.00  0.00    +0.000 A 
ATOM      5  C   UNL     1      27.817  24.857  25.687  0.00  0.00    +0.000 A 
ATOM      6  C   UNL     1      27.879  24.945  24.303  0.00  0.00    +0.000 A 
ENDROOT
BRANCH   4   7
ATOM      7  C   UNL     1      26.995  23.815  27.808  0.00  0.00    +0.000 A 
ATOM      8  C   UNL     1      27.908  23.037  28.463  0.00  0.00    +0.000 A 
ATOM      9  C   UNL     1      29.031  22.220  27.858  0.00  0.00    +0.000 C 
ATOM     10  S   UNL     1      27.490  23.203  30.094  0.00  0.00    +0.000 S 
ATOM     11  C   UNL     1      26.164  24.258  29.936  0.00  0.00    +0.000 A 
ATOM     12  N   UNL     1      25.310  24.828  30.962  0.00  0.00    +0.000 NA
ATOM     13  C   UNL     1      26.080  24.455  28.581  0.00  0.00    +0.000 A 
BRANCH  13  14
ATOM     14  C   UNL     1      25.024  25.330  28.028  0.00  0.00    +0.000 C 
ATOM     15  N   UNL     1      24.191  26.025  27.578  0.00  0.00    +0.000 NA
ENDBRANCH  13  14
ENDBRANCH   4   7
BRANCH   1  16
ATOM     16  C   UNL     1      27.220  24.202  22.070  0.00  0.00    +0.000 C 
BRANCH  16  18
ATOM     17  C   UNL     1      29.200  25.293  20.957  0.00  0.00    +0.000 C 
ATOM     18  C   UNL     1      28.672  24.063  21.671  0.00  0.00    +0.000 C 
ENDBRANCH  16  18
ENDBRANCH   1  16
TORSDOF 4
ENDMDL
MODEL 8
REMARK VINA RESULT:      -4.9     22.204     23.894
REMARK  Name = 
REMARK  4 active torsions:
REMARK  status: ('A' for Active; 'I' for Inactive)
REMARK    1  A    between atoms: C_2  and  C_3
REMARK    2  A    between atoms: C_3  and  C_4
REMARK    3  A    between atoms: C_7  and  C_8
REMARK    4  A    between atoms: C_14  and  C_15
REMARK                            x       y       z     vdW  Elec       q    Type
REMARK                         _______ _______ _______ _____ _____    ______ ____
ROOT
ATOM      1  C   UNL     1      25.069   4.009  18.167  0.00  0.00    +0.000 A 
ATOM      2  C   UNL     1      24.638   2.899  18.829  0.00  0.00    +0.000 A 
ATOM      3  C   UNL     1      23.652   2.103  18.237  0.00  0.00    +0.000 A 
ATOM      4  C   UNL     1      23.118   2.419  17.014  0.00  0.00    +0.000 A 
ATOM      5  C   UNL     1      23.582   3.552  16.378  0.00  0.00    +0.000 A 
ATOM      6  C   UNL     1      24.559   4.355  16.950  0.00  0.00    +0.000 A 
ENDROOT
BRANCH   4   7
ATOM      7  C   UNL     1      22.041   1.581  16.398  0.00  0.00    +0.000 A 
ATOM      8  C   UNL     1      22.352   0.664  15.433  0.00  0.00    +0.000 A 
ATOM      9  C   UNL     1      23.720   0.340  14.869  0.00  0.00    +0.000 C 
ATOM     10  S   UNL     1      20.858  -0.018  15.023  0.00  0.00    +0.000 S 
ATOM     11  C   UNL     1      19.852   0.860  16.077  0.00  0.00    +0.000 A 
ATOM     12  N   UNL     1      18.414   0.782  16.259  0.00  0.00    +0.000 NA
ATOM     13  C   UNL     1      20.730   1.683  16.735  0.00  0.00    +0.000 A 
BRANCH  13  14
ATOM     14  C   UNL     1      20.229   2.628  17.756  0.00  0.00    +0.000 C 
ATOM     15  N   UNL     1      19.825   3.387  18.557  0.00  0.00    +0.000 NA
ENDBRANCH  13  14
ENDBRANCH   4   7
BRANCH   1  16
ATOM     16  C   UNL     1      26.120   4.888  18.754  0.00  0.00    +0.000 C 
BRANCH  16  18
ATOM     17  C   UNL     1      27.401   6.734  17.612  0.00  0.00    +0.000 C 
ATOM     18  C   UNL     1      27.094   5.249  17.654  0.00  0.00    +0.000 C 
ENDBRANCH  16  18
ENDBRANCH   1  16
TORSDOF 4
ENDMDL
MODEL 9
REMARK VINA RESULT:      -4.9     34.114     35.685
REMARK  Name = 
REMARK  4 active torsions:
REMARK  status: ('A' for Active; 'I' for Inactive)
REMARK    1  A    between atoms: C_2  and  C_3
REMARK    2  A    between atoms: C_3  and  C_4
REMARK    3  A    between atoms: C_7  and  C_8
REMARK    4  A    between atoms: C_14  and  C_15
REMARK                            x       y       z     vdW  Elec       q    Type
REMARK                         _______ _______ _______ _____ _____    ______ ____
ROOT
ATOM      1  C   UNL     1      19.615  -7.145  26.265  0.00  0.00    +0.000 A 
ATOM      2  C   UNL     1      18.458  -6.712  26.838  0.00  0.00    +0.000 A 
ATOM      3  C   UNL     1      17.642  -7.640  27.493  0.00  0.00    +0.000 A 
ATOM      4  C   UNL     1      17.984  -8.967  27.565  0.00  0.00    +0.000 A 
ATOM      5  C   UNL     1      19.164  -9.363  26.969  0.00  0.00    +0.000 A 
ATOM      6  C   UNL     1      19.987  -8.456  26.315  0.00  0.00    +0.000 A 
ENDROOT
BRANCH   4   7
ATOM      7  C   UNL     1      17.093  -9.963  28.240  0.00  0.00    +0.000 A 
ATOM      8  C   UNL     1      16.038 -10.509  27.564  0.00  0.00    +0.000 A 
ATOM      9  C   UNL     1      15.620 -10.248  26.132  0.00  0.00    +0.000 C 
ATOM     10  S   UNL     1      15.318 -11.539  28.698  0.00  0.00    +0.000 S 
ATOM     11  C   UNL     1      16.359 -11.272  30.017  0.00  0.00    +0.000 A 
ATOM     12  N   UNL     1      16.328 -11.848  31.349  0.00  0.00    +0.000 NA
ATOM     13  C   UNL     1      17.262 -10.363  29.526  0.00  0.00    +0.000 A 
BRANCH  13  14
ATOM     14  C   UNL     1      18.350  -9.864  30.393  0.00  0.00    +0.000 C 
ATOM     15  N   UNL     1      19.213  -9.455  31.078  0.00  0.00    +0.000 NA
ENDBRANCH  13  14
ENDBRANCH   4   7
BRANCH   1  16
ATOM     16  C   UNL     1      20.520  -6.194  25.559  0.00  0.00    +0.000 C 
BRANCH  16  18
ATOM     17  C   UNL     1      22.509  -6.187  24.013  0.00  0.00    +0.000 C 
ATOM     18  C   UNL     1      21.688  -6.982  25.010  0.00  0.00    +0.000 C 
ENDBRANCH  16  18
ENDBRANCH   1  16
TORSDOF 4
ENDMDL
MODEL 10
REMARK VINA RESULT:      -4.9     34.094     35.944
REMARK  Name = 
REMARK  4 active torsions:
REMARK  status: ('A' for Active; 'I' for Inactive)
REMARK    1  A    between atoms: C_2  and  C_3
REMARK    2  A    between atoms: C_3  and  C_4
REMARK    3  A    between atoms: C_7  and  C_8
REMARK    4  A    between atoms: C_14  and  C_15
REMARK                            x       y       z     vdW  Elec       q    Type
REMARK                         _______ _______ _______ _____ _____    ______ ____
ROOT
ATOM      1  C   UNL     1      16.741 -10.642  29.702  0.00  0.00    +0.000 A 
ATOM      2  C   UNL     1      16.589 -10.823  28.360  0.00  0.00    +0.000 A 
ATOM      3  C   UNL     1      17.516 -10.238  27.493  0.00  0.00    +0.000 A 
ATOM      4  C   UNL     1      18.565  -9.492  27.965  0.00  0.00    +0.000 A 
ATOM      5  C   UNL     1      18.681  -9.332  29.331  0.00  0.00    +0.000 A 
ATOM      6  C   UNL     1      17.770  -9.905  30.208  0.00  0.00    +0.000 A 
ENDROOT
BRANCH   4   7
ATOM      7  C   UNL     1      19.539  -8.842  27.032  0.00  0.00    +0.000 A 
ATOM      8  C   UNL     1      20.650  -9.520  26.616  0.00  0.00    +0.000 A 
ATOM      9  C   UNL     1      21.059 -10.934  26.974  0.00  0.00    +0.000 C 
ATOM     10  S   UNL     1      21.450  -8.416  25.615  0.00  0.00    +0.000 S 
ATOM     11  C   UNL     1      20.372  -7.104  25.728  0.00  0.00    +0.000 A 
ATOM     12  N   UNL     1      20.441  -5.796  25.104  0.00  0.00    +0.000 NA
ATOM     13  C   UNL     1      19.393  -7.575  26.566  0.00  0.00    +0.000 A 
BRANCH  13  14
ATOM     14  C   UNL     1      18.251  -6.707  26.924  0.00  0.00    +0.000 C 
ATOM     15  N   UNL     1      17.348  -6.008  27.200  0.00  0.00    +0.000 NA
ENDBRANCH  13  14
ENDBRANCH   4   7
BRANCH   1  16
ATOM     16  C   UNL     1      15.781 -11.248  30.668  0.00  0.00    +0.000 C 
BRANCH  16  18
ATOM     17  C   UNL     1      14.828 -10.258  32.780  0.00  0.00    +0.000 C 
ATOM     18  C   UNL     1      16.081 -10.685  32.039  0.00  0.00    +0.000 C 
ENDBRANCH  16  18
ENDBRANCH   1  16
TORSDOF 4
ENDMDL
