MODEL 1
REMARK VINA RESULT:      -6.0      0.000      0.000
REMARK  Name = 
REMARK  4 active torsions:
REMARK  status: ('A' for Active; 'I' for Inactive)
REMARK    1  A    between atoms: C_2  and  C_4
REMARK    2  A    between atoms: C_4  and  C_5
REMARK    3  A    between atoms: C_8  and  C_9
REMARK    4  A    between atoms: C_14  and  C_15
REMARK                            x       y       z     vdW  Elec       q    Type
REMARK                         _______ _______ _______ _____ _____    ______ ____
ROOT
ATOM      1  C   UNL     1      16.956  11.104  33.987  0.00  0.00    +0.000 A 
ATOM      2  C   UNL     1      17.571   9.874  34.117  0.00  0.00    +0.000 A 
ATOM      3  C   UNL     1      18.051   9.431  35.355  0.00  0.00    +0.000 A 
ATOM      4  C   UNL     1      17.882  10.264  36.412  0.00  0.00    +0.000 A 
ATOM      5  C   UNL     1      17.268  11.492  36.283  0.00  0.00    +0.000 A 
ATOM      6  C   UNL     1      16.792  11.936  35.065  0.00  0.00    +0.000 A 
ENDROOT
BRANCH   4   7
ATOM      7  C   UNL     1      18.339   9.928  37.786  0.00  0.00    +0.000 A 
ATOM      8  C   UNL     1      17.411   9.784  38.772  0.00  0.00    +0.000 A 
ATOM      9  S   UNL     1      18.346   9.411  40.146  0.00  0.00    +0.000 S 
ATOM     10  C   UNL     1      19.888   9.447  39.433  0.00  0.00    +0.000 A 
ATOM     11  N   UNL     1      21.143   9.204  40.096  0.00  0.00    +0.000 NA
ATOM     12  C   UNL     1      19.636   9.753  38.123  0.00  0.00    +0.000 A 
BRANCH  12  13
ATOM     13  C   UNL     1      20.763   9.868  37.195  0.00  0.00    +0.000 C 
ATOM     14  N   UNL     1      21.665   9.941  36.456  0.00  0.00    +0.000 NA
ENDBRANCH  12  13
ENDBRANCH   4   7
BRANCH   1  15
ATOM     15  C   UNL     1      16.463  11.538  32.666  0.00  0.00    +0.000 C 
BRANCH  15  17
ATOM     16  C   UNL     1      14.559  10.217  31.888  0.00  0.00    +0.000 C 
ATOM     17  C   UNL     1      14.937  11.494  32.613  0.00  0.00    +0.000 C 
ATOM     18  C   UNL     1      14.518  12.712  31.794  0.00  0.00    +0.000 C 
ENDBRANCH  15  17
ENDBRANCH   1  15
TORSDOF 4
ENDMDL
MODEL 2
REMARK VINA RESULT:      -6.0     21.569     23.139
REMARK  Name = 
REMARK  4 active torsions:
REMARK  status: ('A' for Active; 'I' for Inactive)
REMARK    1  A    between atoms: C_2  and  C_4
REMARK    2  A    between atoms: C_4  and  C_5
REMARK    3  A    between atoms: C_8  and  C_9
REMARK    4  A    between atoms: C_14  and  C_15
REMARK                            x       y       z     vdW  Elec       q    Type
REMARK                         _______ _______ _______ _____ _____    ______ ____
ROOT
ATOM      1  C   UNL     1      32.485  24.670  25.253  0.00  0.00    +0.000 A 
ATOM      2  C   UNL     1      31.605  25.732  25.189  0.00  0.00    +0.000 A 
ATOM      3  C   UNL     1      30.268  25.543  24.819  0.00  0.00    +0.000 A 
ATOM      4  C   UNL     1      29.884  24.275  24.532  0.00  0.00    +0.000 A 
ATOM      5  C   UNL     1      30.763  23.214  24.597  0.00  0.00    +0.000 A 
ATOM      6  C   UNL     1      32.084  23.392  24.960  0.00  0.00    +0.000 A 
ENDROOT
BRANCH   4   7
ATOM      7  C   UNL     1      28.498  23.923  24.126  0.00  0.00    +0.000 A 
ATOM      8  C   UNL     1      27.598  23.579  25.090  0.00  0.00    +0.000 A 
ATOM      9  S   UNL     1      26.176  23.261  24.208  0.00  0.00    +0.000 S 
ATOM     10  C   UNL     1      26.760  23.573  22.643  0.00  0.00    +0.000 A 
ATOM     11  N   UNL     1      26.013  23.479  21.415  0.00  0.00    +0.000 NA
ATOM     12  C   UNL     1      28.068  23.923  22.845  0.00  0.00    +0.000 A 
BRANCH  12  13
ATOM     13  C   UNL     1      28.896  24.265  21.687  0.00  0.00    +0.000 C 
ATOM     14  N   UNL     1      29.543  24.550  20.756  0.00  0.00    +0.000 NA
ENDBRANCH  12  13
ENDBRANCH   4   7
BRANCH   1  15
ATOM     15  C   UNL     1      33.887  24.907  25.646  0.00  0.00    +0.000 C 
BRANCH  15  17
ATOM     16  C   UNL     1      35.671  24.188  24.137  0.00  0.00    +0.000 C 
ATOM     17  C   UNL     1      34.725  25.334  24.442  0.00  0.00    +0.000 C 
ATOM     18  C   UNL     1      35.509  26.561  24.900  0.00  0.00    +0.000 C 
ENDBRANCH  15  17
ENDBRANCH   1  15
TORSDOF 4
ENDMDL
MODEL 3
REMARK VINA RESULT:      -5.5     16.793     17.973
REMARK  Name = 
REMARK  4 active torsions:
REMARK  status: ('A' for Active; 'I' for Inactive)
REMARK    1  A    between atoms: C_2  and  C_4
REMARK    2  A    between atoms: C_4  and  C_5
REMARK    3  A    between atoms: C_8  and  C_9
REMARK    4  A    between atoms: C_14  and  C_15
REMARK                            x       y       z     vdW  Elec       q    Type
REMARK                         _______ _______ _______ _____ _____    ______ ____
ROOT
ATOM      1  C   UNL     1      35.277   7.646  35.774  0.00  0.00    +0.000 A 
ATOM      2  C   UNL     1      36.274   6.740  35.467  0.00  0.00    +0.000 A 
ATOM      3  C   UNL     1      35.971   5.414  35.140  0.00  0.00    +0.000 A 
ATOM      4  C   UNL     1      34.661   5.065  35.138  0.00  0.00    +0.000 A 
ATOM      5  C   UNL     1      33.665   5.970  35.443  0.00  0.00    +0.000 A 
ATOM      6  C   UNL     1      33.955   7.280  35.767  0.00  0.00    +0.000 A 
ENDROOT
BRANCH   4   7
ATOM      7  C   UNL     1      34.190   3.694  34.810  0.00  0.00    +0.000 A 
ATOM      8  C   UNL     1      33.861   3.402  33.521  0.00  0.00    +0.000 A 
ATOM      9  S   UNL     1      33.387   1.768  33.592  0.00  0.00    +0.000 S 
ATOM     10  C   UNL     1      33.618   1.499  35.254  0.00  0.00    +0.000 A 
ATOM     11  N   UNL     1      33.384   0.267  35.963  0.00  0.00    +0.000 NA
ATOM     12  C   UNL     1      34.066   2.705  35.722  0.00  0.00    +0.000 A 
BRANCH  12  13
ATOM     13  C   UNL     1      34.374   2.840  37.147  0.00  0.00    +0.000 C 
ATOM     14  N   UNL     1      34.635   2.937  38.282  0.00  0.00    +0.000 NA
ENDBRANCH  12  13
ENDBRANCH   4   7
BRANCH   1  15
ATOM     15  C   UNL     1      35.633   9.036  36.114  0.00  0.00    +0.000 C 
BRANCH  15  17
ATOM     16  C   UNL     1      35.478  10.972  34.629  0.00  0.00    +0.000 C 
ATOM     17  C   UNL     1      34.655  10.021  35.477  0.00  0.00    +0.000 C 
ATOM     18  C   UNL     1      34.010  10.772  36.640  0.00  0.00    +0.000 C 
ENDBRANCH  15  17
ENDBRANCH   1  15
TORSDOF 4
ENDMDL
MODEL 4
REMARK VINA RESULT:      -5.5     18.862     20.620
REMARK  Name = 
REMARK  4 active torsions:
REMARK  status: ('A' for Active; 'I' for Inactive)
REMARK    1  A    between atoms: C_2  and  C_4
REMARK    2  A    between atoms: C_4  and  C_5
REMARK    3  A    between atoms: C_8  and  C_9
REMARK    4  A    between atoms: C_14  and  C_15
REMARK                            x       y       z     vdW  Elec       q    Type
REMARK                         _______ _______ _______ _____ _____    ______ ____
ROOT
ATOM      1  C   UNL     1      31.256  22.927  28.441  0.00  0.00    +0.000 A 
ATOM      2  C   UNL     1      30.506  24.088  28.414  0.00  0.00    +0.000 A 
ATOM      3  C   UNL     1      29.423  24.230  27.540  0.00  0.00    +0.000 A 
ATOM      4  C   UNL     1      29.147  23.179  26.728  0.00  0.00    +0.000 A 
ATOM      5  C   UNL     1      29.895  22.020  26.755  0.00  0.00    +0.000 A 
ATOM      6  C   UNL     1      30.966  21.872  27.615  0.00  0.00    +0.000 A 
ENDROOT
BRANCH   4   7
ATOM      7  C   UNL     1      28.028  23.186  25.750  0.00  0.00    +0.000 A 
ATOM      8  C   UNL     1      26.764  22.937  26.194  0.00  0.00    +0.000 A 
ATOM      9  S   UNL     1      25.820  23.041  24.781  0.00  0.00    +0.000 S 
ATOM     10  C   UNL     1      27.051  23.396  23.665  0.00  0.00    +0.000 A 
ATOM     11  N   UNL     1      26.890  23.609  22.250  0.00  0.00    +0.000 NA
ATOM     12  C   UNL     1      28.187  23.427  24.430  0.00  0.00    +0.000 A 
BRANCH  12  13
ATOM     13  C   UNL     1      29.468  23.713  23.781  0.00  0.00    +0.000 C 
ATOM     14  N   UNL     1      30.500  23.926  23.275  0.00  0.00    +0.000 NA
ENDBRANCH  12  13
ENDBRANCH   4   7
BRANCH   1  15
ATOM     15  C   UNL     1      32.391  22.814  29.376  0.00  0.00    +0.000 C 
BRANCH  15  17
ATOM     16  C   UNL     1      31.308  21.753  31.293  0.00  0.00    +0.000 C 
ATOM     17  C   UNL     1      32.308  21.516  30.178  0.00  0.00    +0.000 C 
ATOM     18  C   UNL     1      33.705  21.300  30.756  0.00  0.00    +0.000 C 
ENDBRANCH  15  17
ENDBRANCH   1  15
TORSDOF 4
ENDMDL
MODEL 5
REMARK VINA RESULT:      -5.4      3.788      6.972
REMARK  Name = 
REMARK  4 active torsions:
REMARK  status: ('A' for Active; 'I' for Inactive)
REMARK    1  A    between atoms: C_2  and  C_4
REMARK    2  A    between atoms: C_4  and  C_5
REMARK    3  A    between atoms: C_8  and  C_9
REMARK    4  A    between atoms: C_14  and  C_15
REMARK                            x       y       z     vdW  Elec       q    Type
REMARK                         _______ _______ _______ _____ _____    ______ ____
ROOT
ATOM      1  C   UNL     1      18.172   9.751  37.917  0.00  0.00    +0.000 A 
ATOM      2  C   UNL     1      16.889  10.263  37.884  0.00  0.00    +0.000 A 
ATOM      3  C   UNL     1      16.285  10.625  36.675  0.00  0.00    +0.000 A 
ATOM      4  C   UNL     1      17.015  10.446  35.546  0.00  0.00    +0.000 A 
ATOM      5  C   UNL     1      18.296   9.934  35.578  0.00  0.00    +0.000 A 
ATOM      6  C   UNL     1      18.899   9.575  36.767  0.00  0.00    +0.000 A 
ENDROOT
BRANCH   4   7
ATOM      7  C   UNL     1      16.504  10.784  34.192  0.00  0.00    +0.000 A 
ATOM      8  C   UNL     1      17.027  10.140  33.112  0.00  0.00    +0.000 A 
ATOM      9  S   UNL     1      16.178  10.814  31.798  0.00  0.00    +0.000 S 
ATOM     10  C   UNL     1      15.183  11.894  32.654  0.00  0.00    +0.000 A 
ATOM     11  N   UNL     1      14.203  12.786  32.089  0.00  0.00    +0.000 NA
ATOM     12  C   UNL     1      15.539  11.702  33.961  0.00  0.00    +0.000 A 
BRANCH  12  13
ATOM     13  C   UNL     1      14.868  12.486  35.000  0.00  0.00    +0.000 C 
ATOM     14  N   UNL     1      14.324  13.124  35.814  0.00  0.00    +0.000 NA
ENDBRANCH  12  13
ENDBRANCH   4   7
BRANCH   1  15
ATOM     15  C   UNL     1      18.777   9.381  39.210  0.00  0.00    +0.000 C 
BRANCH  15  17
ATOM     16  C   UNL     1      17.765   9.434  41.435  0.00  0.00    +0.000 C 
ATOM     17  C   UNL     1      17.756   8.691  40.112  0.00  0.00    +0.000 C 
ATOM     18  C   UNL     1      18.269   7.266  40.301  0.00  0.00    +0.000 C 
ENDBRANCH  15  17
ENDBRANCH   1  15
TORSDOF 4
ENDMDL
MODEL 6
REMARK VINA RESULT:      -5.3     17.676     19.623
REMARK  Name = 
REMARK  4 active torsions:
REMARK  status: ('A' for Active; 'I' for Inactive)
REMARK    1  A    between atoms: C_2  and  C_4
REMARK    2  A    between atoms: C_4  and  C_5
REMARK    3  A    between atoms: C_8  and  C_9
REMARK    4  A    between atoms: C_14  and  C_15
REMARK                            x       y       z     vdW  Elec       q    Type
REMARK                         _______ _______ _______ _____ _____    ______ ____
ROOT
ATOM      1  C   UNL     1      32.969  -2.343  34.124  0.00  0.00    +0.000 A 
ATOM      2  C   UNL     1      33.976  -1.757  33.382  0.00  0.00    +0.000 A 
ATOM      3  C   UNL     1      34.232  -0.384  33.465  0.00  0.00    +0.000 A 
ATOM      4  C   UNL     1      33.448   0.337  34.304  0.00  0.00    +0.000 A 
ATOM      5  C   UNL     1      32.442  -0.247  35.046  0.00  0.00    +0.000 A 
ATOM      6  C   UNL     1      32.184  -1.602  34.970  0.00  0.00    +0.000 A 
ENDROOT
BRANCH   4   7
ATOM      7  C   UNL     1      33.603   1.803  34.495  0.00  0.00    +0.000 A 
ATOM      8  C   UNL     1      33.369   2.632  33.440  0.00  0.00    +0.000 A 
ATOM      9  S   UNL     1      33.655   4.183  34.084  0.00  0.00    +0.000 S 
ATOM     10  C   UNL     1      34.063   3.738  35.672  0.00  0.00    +0.000 A 
ATOM     11  N   UNL     1      34.420   4.629  36.746  0.00  0.00    +0.000 NA
ATOM     12  C   UNL     1      33.964   2.373  35.666  0.00  0.00    +0.000 A 
BRANCH  12  13
ATOM     13  C   UNL     1      34.253   1.637  36.898  0.00  0.00    +0.000 C 
ATOM     14  N   UNL     1      34.495   1.036  37.871  0.00  0.00    +0.000 NA
ENDBRANCH  12  13
ENDBRANCH   4   7
BRANCH   1  15
ATOM     15  C   UNL     1      32.728  -3.794  34.011  0.00  0.00    +0.000 C 
BRANCH  15  17
ATOM     16  C   UNL     1      33.196  -5.134  32.021  0.00  0.00    +0.000 C 
ATOM     17  C   UNL     1      33.846  -4.471  33.220  0.00  0.00    +0.000 C 
ATOM     18  C   UNL     1      34.433  -5.525  34.156  0.00  0.00    +0.000 C 
ENDBRANCH  15  17
ENDBRANCH   1  15
TORSDOF 4
ENDMDL
MODEL 7
REMARK VINA RESULT:      -5.3      3.453      6.152
REMARK  Name = 
REMARK  4 active torsions:
REMARK  status: ('A' for Active; 'I' for Inactive)
REMARK    1  A    between atoms: C_2  and  C_4
REMARK    2  A    between atoms: C_4  and  C_5
REMARK    3  A    between atoms: C_8  and  C_9
REMARK    4  A    between atoms: C_14  and  C_15
REMARK                            x       y       z     vdW  Elec       q    Type
REMARK                         _______ _______ _______ _____ _____    ______ ____
ROOT
ATOM      1  C   UNL     1      20.059   9.919  36.781  0.00  0.00    +0.000 A 
ATOM      2  C   UNL     1      19.816  10.871  37.752  0.00  0.00    +0.000 A 
ATOM      3  C   UNL     1      18.511  11.200  38.134  0.00  0.00    +0.000 A 
ATOM      4  C   UNL     1      17.504  10.541  37.508  0.00  0.00    +0.000 A 
ATOM      5  C   UNL     1      17.746   9.589  36.539  0.00  0.00    +0.000 A 
ATOM      6  C   UNL     1      19.031   9.260  36.157  0.00  0.00    +0.000 A 
ENDROOT
BRANCH   4   7
ATOM      7  C   UNL     1      16.069  10.784  37.810  0.00  0.00    +0.000 A 
ATOM      8  C   UNL     1      15.575  10.394  39.018  0.00  0.00    +0.000 A 
ATOM      9  S   UNL     1      13.936  10.852  38.944  0.00  0.00    +0.000 S 
ATOM     10  C   UNL     1      13.922  11.526  37.384  0.00  0.00    +0.000 A 
ATOM     11  N   UNL     1      12.788  12.110  36.714  0.00  0.00    +0.000 NA
ATOM     12  C   UNL     1      15.212  11.378  36.951  0.00  0.00    +0.000 A 
BRANCH  12  13
ATOM     13  C   UNL     1      15.569  11.859  35.615  0.00  0.00    +0.000 C 
ATOM     14  N   UNL     1      15.849  12.226  34.541  0.00  0.00    +0.000 NA
ENDBRANCH  12  13
ENDBRANCH   4   7
BRANCH   1  15
ATOM     15  C   UNL     1      21.448   9.599  36.404  0.00  0.00    +0.000 C 
BRANCH  15  17
ATOM     16  C   UNL     1      23.579  10.795  36.322  0.00  0.00    +0.000 C 
ATOM     17  C   UNL     1      22.439  10.403  37.244  0.00  0.00    +0.000 C 
ATOM     18  C   UNL     1      22.937   9.445  38.324  0.00  0.00    +0.000 C 
ENDBRANCH  15  17
ENDBRANCH   1  15
TORSDOF 4
ENDMDL
MODEL 8
REMARK VINA RESULT:      -5.3     16.126     18.410
REMARK  Name = 
REMARK  4 active torsions:
REMARK  status: ('A' for Active; 'I' for Inactive)
REMARK    1  A    between atoms: C_2  and  C_4
REMARK    2  A    between atoms: C_4  and  C_5
REMARK    3  A    between atoms: C_8  and  C_9
REMARK    4  A    between atoms: C_14  and  C_15
REMARK                            x       y       z     vdW  Elec       q    Type
REMARK                         _______ _______ _______ _____ _____    ______ ____
ROOT
ATOM      1  C   UNL     1      34.443   5.984  35.787  0.00  0.00    +0.000 A 
ATOM      2  C   UNL     1      35.589   6.183  35.040  0.00  0.00    +0.000 A 
ATOM      3  C   UNL     1      36.483   7.214  35.348  0.00  0.00    +0.000 A 
ATOM      4  C   UNL     1      36.173   8.000  36.408  0.00  0.00    +0.000 A 
ATOM      5  C   UNL     1      35.030   7.801  37.154  0.00  0.00    +0.000 A 
ATOM      6  C   UNL     1      34.141   6.787  36.857  0.00  0.00    +0.000 A 
ENDROOT
BRANCH   4   7
ATOM      7  C   UNL     1      37.028   9.132  36.853  0.00  0.00    +0.000 A 
ATOM      8  C   UNL     1      37.920   8.925  37.862  0.00  0.00    +0.000 A 
ATOM      9  S   UNL     1      38.670  10.443  38.044  0.00  0.00    +0.000 S 
ATOM     10  C   UNL     1      37.834  11.298  36.837  0.00  0.00    +0.000 A 
ATOM     11  N   UNL     1      38.020  12.682  36.482  0.00  0.00    +0.000 NA
ATOM     12  C   UNL     1      36.978  10.368  36.310  0.00  0.00    +0.000 A 
BRANCH  12  13
ATOM     13  C   UNL     1      36.084  10.767  35.222  0.00  0.00    +0.000 C 
ATOM     14  N   UNL     1      35.356  11.091  34.366  0.00  0.00    +0.000 NA
ENDBRANCH  12  13
ENDBRANCH   4   7
BRANCH   1  15
ATOM     15  C   UNL     1      33.522   4.887  35.432  0.00  0.00    +0.000 C 
BRANCH  15  17
ATOM     16  C   UNL     1      32.046   5.375  33.546  0.00  0.00    +0.000 C 
ATOM     17  C   UNL     1      33.383   4.762  33.916  0.00  0.00    +0.000 C 
ATOM     18  C   UNL     1      33.377   3.263  33.625  0.00  0.00    +0.000 C 
ENDBRANCH  15  17
ENDBRANCH   1  15
TORSDOF 4
ENDMDL
MODEL 9
REMARK VINA RESULT:      -5.2     16.799     18.472
REMARK  Name = 
REMARK  4 active torsions:
REMARK  status: ('A' for Active; 'I' for Inactive)
REMARK    1  A    between atoms: C_2  and  C_4
REMARK    2  A    between atoms: C_4  and  C_5
REMARK    3  A    between atoms: C_8  and  C_9
REMARK    4  A    between atoms: C_14  and  C_15
REMARK                            x       y       z     vdW  Elec       q    Type
REMARK                         _______ _______ _______ _____ _____    ______ ____
ROOT
ATOM      1  C   UNL     1      34.588   5.497  35.440  0.00  0.00    +0.000 A 
ATOM      2  C   UNL     1      35.791   5.803  34.831  0.00  0.00    +0.000 A 
ATOM      3  C   UNL     1      36.389   7.057  35.000  0.00  0.00    +0.000 A 
ATOM      4  C   UNL     1      35.735   7.949  35.785  0.00  0.00    +0.000 A 
ATOM      5  C   UNL     1      34.535   7.643  36.393  0.00  0.00    +0.000 A 
ATOM      6  C   UNL     1      33.938   6.408  36.231  0.00  0.00    +0.000 A 
ENDROOT
BRANCH   4   7
ATOM      7  C   UNL     1      36.250   9.317  36.055  0.00  0.00    +0.000 A 
ATOM      8  C   UNL     1      35.785  10.354  35.305  0.00  0.00    +0.000 A 
ATOM      9  S   UNL     1      36.616  11.701  35.934  0.00  0.00    +0.000 S 
ATOM     10  C   UNL     1      37.530  10.913  37.129  0.00  0.00    +0.000 A 
ATOM     11  N   UNL     1      38.465  11.527  38.037  0.00  0.00    +0.000 NA
ATOM     12  C   UNL     1      37.161   9.600  37.011  0.00  0.00    +0.000 A 
BRANCH  12  13
ATOM     13  C   UNL     1      37.767   8.612  37.906  0.00  0.00    +0.000 C 
ATOM     14  N   UNL     1      38.250   7.837  38.636  0.00  0.00    +0.000 NA
ENDBRANCH  12  13
ENDBRANCH   4   7
BRANCH   1  15
ATOM     15  C   UNL     1      33.987   4.165  35.239  0.00  0.00    +0.000 C 
BRANCH  15  17
ATOM     16  C   UNL     1      32.480   4.718  33.395  0.00  0.00    +0.000 C 
ATOM     17  C   UNL     1      33.711   3.910  33.758  0.00  0.00    +0.000 C 
ATOM     18  C   UNL     1      33.416   2.416  33.645  0.00  0.00    +0.000 C 
ENDBRANCH  15  17
ENDBRANCH   1  15
TORSDOF 4
ENDMDL
MODEL 10
REMARK VINA RESULT:      -5.2      6.396      8.115
REMARK  Name = 
REMARK  4 active torsions:
REMARK  status: ('A' for Active; 'I' for Inactive)
REMARK    1  A    between atoms: C_2  and  C_4
REMARK    2  A    between atoms: C_4  and  C_5
REMARK    3  A    between atoms: C_8  and  C_9
REMARK    4  A    between atoms: C_14  and  C_15
REMARK                            x       y       z     vdW  Elec       q    Type
REMARK                         _______ _______ _______ _____ _____    ______ ____
ROOT
ATOM      1  C   UNL     1      17.042   6.656  41.735  0.00  0.00    +0.000 A 
ATOM      2  C   UNL     1      17.757   6.822  40.565  0.00  0.00    +0.000 A 
ATOM      3  C   UNL     1      18.775   5.931  40.206  0.00  0.00    +0.000 A 
ATOM      4  C   UNL     1      19.020   4.904  41.056  0.00  0.00    +0.000 A 
ATOM      5  C   UNL     1      18.305   4.737  42.224  0.00  0.00    +0.000 A 
ATOM      6  C   UNL     1      17.300   5.612  42.586  0.00  0.00    +0.000 A 
ENDROOT
BRANCH   4   7
ATOM      7  C   UNL     1      20.069   3.880  40.806  0.00  0.00    +0.000 A 
ATOM      8  C   UNL     1      19.695   2.579  40.654  0.00  0.00    +0.000 A 
ATOM      9  S   UNL     1      21.171   1.771  40.393  0.00  0.00    +0.000 S 
ATOM     10  C   UNL     1      22.222   3.104  40.483  0.00  0.00    +0.000 A 
ATOM     11  N   UNL     1      23.655   3.076  40.338  0.00  0.00    +0.000 NA
ATOM     12  C   UNL     1      21.387   4.163  40.717  0.00  0.00    +0.000 A 
BRANCH  12  13
ATOM     13  C   UNL     1      21.965   5.502  40.854  0.00  0.00    +0.000 C 
ATOM     14  N   UNL     1      22.426   6.572  40.943  0.00  0.00    +0.000 NA
ENDBRANCH  12  13
ENDBRANCH   4   7
BRANCH   1  15
ATOM     15  C   UNL     1      15.976   7.615  42.081  0.00  0.00    +0.000 C 
BRANCH  15  17
ATOM     16  C   UNL     1      16.391   9.831  43.027  0.00  0.00    +0.000 C 
ATOM     17  C   UNL     1      16.394   9.043  41.731  0.00  0.00    +0.000 C 
ATOM     18  C   UNL     1      15.314   9.568  40.788  0.00  0.00    +0.000 C 
ENDBRANCH  15  17
ENDBRANCH   1  15
TORSDOF 4
ENDMDL
