MODEL 1
REMARK VINA RESULT:      -7.0      0.000      0.000
REMARK  Name = 
REMARK  3 active torsions:
REMARK  status: ('A' for Active; 'I' for Inactive)
REMARK    1  A    between atoms: N_2  and  C_4
REMARK    2  A    between atoms: C_7  and  N_8
REMARK    3  A    between atoms: N_8  and  C_9
REMARK                            x       y       z     vdW  Elec       q    Type
REMARK                         _______ _______ _______ _____ _____    ______ ____
ROOT
ATOM      1  C   UNL     1      29.434  24.117  23.257  0.00  0.00    +0.000 A 
ATOM      2  C   UNL     1      30.615  23.863  23.925  0.00  0.00    +0.000 A 
ATOM      3  C   UNL     1      30.537  23.206  25.146  0.00  0.00    +0.000 A 
ATOM      4  C   UNL     1      29.333  22.811  25.689  0.00  0.00    +0.000 A 
ATOM      5  C   UNL     1      28.172  23.083  24.988  0.00  0.00    +0.000 A 
ATOM      6  N   UNL     1      26.987  22.706  25.502  0.00  0.00    +0.000 NA
ATOM      7  C   UNL     1      25.816  22.936  24.883  0.00  0.00    +0.000 A 
ATOM      8  C   UNL     1      25.854  23.586  23.668  0.00  0.00    +0.000 A 
ATOM      9  C   UNL     1      27.046  23.990  23.105  0.00  0.00    +0.000 A 
ATOM     10  C   UNL     1      28.226  23.735  23.777  0.00  0.00    +0.000 A 
ENDROOT
BRANCH   1  12
ATOM     11  O   UNL     1      29.685  24.127  20.985  0.00  0.00    +0.000 OA
ATOM     12  N   UNL     1      29.506  24.785  22.017  0.00  0.00    +0.000 N 
ATOM     13  O   UNL     1      29.381  26.140  21.946  0.00  0.00    +0.000 OA
ENDBRANCH   1  12
BRANCH   4  14
ATOM     14  N   UNL     1      29.245  22.138  26.937  0.00  0.00    +0.000 NA
BRANCH  14  15
ATOM     15  C   UNL     1      29.294  22.868  28.181  0.00  0.00    +0.000 C 
ATOM     16  C   UNL     1      28.151  22.388  29.046  0.00  0.00    +0.000 C 
ATOM     17  C   UNL     1      28.236  22.989  30.408  0.00  0.00    +0.000 C 
ATOM     18  C   UNL     1      29.572  22.560  31.013  0.00  0.00    +0.000 C 
ATOM     19  C   UNL     1      30.709  23.126  30.194  0.00  0.00    +0.000 C 
ATOM     20  C   UNL     1      30.632  24.626  30.083  0.00  0.00    +0.000 C 
ATOM     21  C   UNL     1      29.329  24.981  29.382  0.00  0.00    +0.000 C 
ATOM     22  C   UNL     1      28.205  24.504  30.294  0.00  0.00    +0.000 C 
ATOM     23  C   UNL     1      29.220  24.352  28.019  0.00  0.00    +0.000 C 
ATOM     24  C   UNL     1      30.641  22.550  28.820  0.00  0.00    +0.000 C 
ENDBRANCH  14  15
ENDBRANCH   4  14
TORSDOF 3
ENDMDL
MODEL 2
REMARK VINA RESULT:      -6.7     32.536     33.771
REMARK  Name = 
REMARK  3 active torsions:
REMARK  status: ('A' for Active; 'I' for Inactive)
REMARK    1  A    between atoms: N_2  and  C_4
REMARK    2  A    between atoms: C_7  and  N_8
REMARK    3  A    between atoms: N_8  and  C_9
REMARK                            x       y       z     vdW  Elec       q    Type
REMARK                         _______ _______ _______ _____ _____    ______ ____
ROOT
ATOM      1  C   UNL     1      21.314  -7.368  25.143  0.00  0.00    +0.000 A 
ATOM      2  C   UNL     1      21.487  -8.737  25.075  0.00  0.00    +0.000 A 
ATOM      3  C   UNL     1      20.516  -9.539  25.658  0.00  0.00    +0.000 A 
ATOM      4  C   UNL     1      19.408  -9.010  26.286  0.00  0.00    +0.000 A 
ATOM      5  C   UNL     1      19.271  -7.635  26.332  0.00  0.00    +0.000 A 
ATOM      6  N   UNL     1      18.197  -7.098  26.940  0.00  0.00    +0.000 NA
ATOM      7  C   UNL     1      17.992  -5.773  27.028  0.00  0.00    +0.000 A 
ATOM      8  C   UNL     1      18.936  -4.944  26.460  0.00  0.00    +0.000 A 
ATOM      9  C   UNL     1      20.052  -5.450  25.826  0.00  0.00    +0.000 A 
ATOM     10  C   UNL     1      20.222  -6.820  25.762  0.00  0.00    +0.000 A 
ENDROOT
BRANCH   1  12
ATOM     11  O   UNL     1      23.377  -6.384  25.134  0.00  0.00    +0.000 OA
ATOM     12  N   UNL     1      22.297  -6.547  24.553  0.00  0.00    +0.000 N 
ATOM     13  O   UNL     1      22.070  -5.936  23.358  0.00  0.00    +0.000 OA
ENDBRANCH   1  12
BRANCH   4  14
ATOM     14  N   UNL     1      18.411  -9.825  26.884  0.00  0.00    +0.000 NA
BRANCH  14  15
ATOM     15  C   UNL     1      18.583 -10.357  28.215  0.00  0.00    +0.000 C 
ATOM     16  C   UNL     1      19.870  -9.795  28.776  0.00  0.00    +0.000 C 
ATOM     17  C   UNL     1      20.029 -10.180  30.208  0.00  0.00    +0.000 C 
ATOM     18  C   UNL     1      18.830  -9.615  30.968  0.00  0.00    +0.000 C 
ATOM     19  C   UNL     1      17.557 -10.255  30.464  0.00  0.00    +0.000 C 
ATOM     20  C   UNL     1      17.600 -11.757  30.575  0.00  0.00    +0.000 C 
ATOM     21  C   UNL     1      18.749 -12.262  29.716  0.00  0.00    +0.000 C 
ATOM     22  C   UNL     1      20.025 -11.694  30.326  0.00  0.00    +0.000 C 
ATOM     23  C   UNL     1      18.613 -11.850  28.275  0.00  0.00    +0.000 C 
ATOM     24  C   UNL     1      17.379  -9.896  29.027  0.00  0.00    +0.000 C 
ENDBRANCH  14  15
ENDBRANCH   4  14
TORSDOF 3
ENDMDL
MODEL 3
REMARK VINA RESULT:      -6.7      3.290      6.402
REMARK  Name = 
REMARK  3 active torsions:
REMARK  status: ('A' for Active; 'I' for Inactive)
REMARK    1  A    between atoms: N_2  and  C_4
REMARK    2  A    between atoms: C_7  and  N_8
REMARK    3  A    between atoms: N_8  and  C_9
REMARK                            x       y       z     vdW  Elec       q    Type
REMARK                         _______ _______ _______ _____ _____    ______ ____
ROOT
ATOM      1  C   UNL     1      30.181  22.689  29.371  0.00  0.00    +0.000 A 
ATOM      2  C   UNL     1      30.858  22.338  28.220  0.00  0.00    +0.000 A 
ATOM      3  C   UNL     1      30.131  22.267  27.039  0.00  0.00    +0.000 A 
ATOM      4  C   UNL     1      28.779  22.536  26.995  0.00  0.00    +0.000 A 
ATOM      5  C   UNL     1      28.137  22.885  28.169  0.00  0.00    +0.000 A 
ATOM      6  N   UNL     1      26.818  23.150  28.147  0.00  0.00    +0.000 NA
ATOM      7  C   UNL     1      26.123  23.494  29.245  0.00  0.00    +0.000 A 
ATOM      8  C   UNL     1      26.813  23.575  30.436  0.00  0.00    +0.000 A 
ATOM      9  C   UNL     1      28.165  23.311  30.505  0.00  0.00    +0.000 A 
ATOM     10  C   UNL     1      28.839  22.960  29.351  0.00  0.00    +0.000 A 
ENDROOT
BRANCH   1  12
ATOM     11  O   UNL     1      31.467  23.824  30.881  0.00  0.00    +0.000 OA
ATOM     12  N   UNL     1      30.914  22.761  30.574  0.00  0.00    +0.000 N 
ATOM     13  O   UNL     1      31.018  21.679  31.394  0.00  0.00    +0.000 OA
ENDBRANCH   1  12
BRANCH   4  14
ATOM     14  N   UNL     1      28.029  22.466  25.791  0.00  0.00    +0.000 NA
BRANCH  14  15
ATOM     15  C   UNL     1      28.177  23.469  24.763  0.00  0.00    +0.000 C 
ATOM     16  C   UNL     1      29.366  23.086  23.910  0.00  0.00    +0.000 C 
ATOM     17  C   UNL     1      29.481  23.996  22.734  0.00  0.00    +0.000 C 
ATOM     18  C   UNL     1      28.190  23.864  21.928  0.00  0.00    +0.000 C 
ATOM     19  C   UNL     1      27.019  24.339  22.758  0.00  0.00    +0.000 C 
ATOM     20  C   UNL     1      27.206  25.755  23.237  0.00  0.00    +0.000 C 
ATOM     21  C   UNL     1      28.447  25.796  24.115  0.00  0.00    +0.000 C 
ATOM     22  C   UNL     1      29.623  25.429  23.216  0.00  0.00    +0.000 C 
ATOM     23  C   UNL     1      28.354  24.857  25.287  0.00  0.00    +0.000 C 
ATOM     24  C   UNL     1      26.887  23.453  23.950  0.00  0.00    +0.000 C 
ENDBRANCH  14  15
ENDBRANCH   4  14
TORSDOF 3
ENDMDL
MODEL 4
REMARK VINA RESULT:      -6.6      3.395      6.757
REMARK  Name = 
REMARK  3 active torsions:
REMARK  status: ('A' for Active; 'I' for Inactive)
REMARK    1  A    between atoms: N_2  and  C_4
REMARK    2  A    between atoms: C_7  and  N_8
REMARK    3  A    between atoms: N_8  and  C_9
REMARK                            x       y       z     vdW  Elec       q    Type
REMARK                         _______ _______ _______ _____ _____    ______ ____
ROOT
ATOM      1  C   UNL     1      27.019  22.947  29.179  0.00  0.00    +0.000 A 
ATOM      2  C   UNL     1      26.332  23.105  27.992  0.00  0.00    +0.000 A 
ATOM      3  C   UNL     1      27.071  23.129  26.817  0.00  0.00    +0.000 A 
ATOM      4  C   UNL     1      28.444  23.002  26.812  0.00  0.00    +0.000 A 
ATOM      5  C   UNL     1      29.095  22.845  28.022  0.00  0.00    +0.000 A 
ATOM      6  N   UNL     1      30.435  22.719  28.039  0.00  0.00    +0.000 NA
ATOM      7  C   UNL     1      31.141  22.565  29.172  0.00  0.00    +0.000 A 
ATOM      8  C   UNL     1      30.440  22.535  30.359  0.00  0.00    +0.000 A 
ATOM      9  C   UNL     1      29.067  22.660  30.389  0.00  0.00    +0.000 A 
ATOM     10  C   UNL     1      28.383  22.818  29.199  0.00  0.00    +0.000 A 
ENDROOT
BRANCH   1  12
ATOM     11  O   UNL     1      26.002  23.987  30.941  0.00  0.00    +0.000 OA
ATOM     12  N   UNL     1      26.275  22.921  30.376  0.00  0.00    +0.000 N 
ATOM     13  O   UNL     1      25.856  21.741  30.912  0.00  0.00    +0.000 OA
ENDBRANCH   1  12
BRANCH   4  14
ATOM     14  N   UNL     1      29.206  23.026  25.614  0.00  0.00    +0.000 NA
BRANCH  14  15
ATOM     15  C   UNL     1      28.848  23.899  24.522  0.00  0.00    +0.000 C 
ATOM     16  C   UNL     1      28.531  25.260  25.100  0.00  0.00    +0.000 C 
ATOM     17  C   UNL     1      28.305  26.253  24.011  0.00  0.00    +0.000 C 
ATOM     18  C   UNL     1      29.587  26.318  23.181  0.00  0.00    +0.000 C 
ATOM     19  C   UNL     1      29.843  24.978  22.530  0.00  0.00    +0.000 C 
ATOM     20  C   UNL     1      28.680  24.534  21.681  0.00  0.00    +0.000 C 
ATOM     21  C   UNL     1      27.465  24.389  22.584  0.00  0.00    +0.000 C 
ATOM     22  C   UNL     1      27.164  25.781  23.127  0.00  0.00    +0.000 C 
ATOM     23  C   UNL     1      27.694  23.413  23.706  0.00  0.00    +0.000 C 
ATOM     24  C   UNL     1      30.060  23.961  23.599  0.00  0.00    +0.000 C 
ENDBRANCH  14  15
ENDBRANCH   4  14
TORSDOF 3
ENDMDL
MODEL 5
REMARK VINA RESULT:      -6.6      3.719      6.560
REMARK  Name = 
REMARK  3 active torsions:
REMARK  status: ('A' for Active; 'I' for Inactive)
REMARK    1  A    between atoms: N_2  and  C_4
REMARK    2  A    between atoms: C_7  and  N_8
REMARK    3  A    between atoms: N_8  and  C_9
REMARK                            x       y       z     vdW  Elec       q    Type
REMARK                         _______ _______ _______ _____ _____    ______ ____
ROOT
ATOM      1  C   UNL     1      26.634  23.466  28.714  0.00  0.00    +0.000 A 
ATOM      2  C   UNL     1      27.471  22.616  28.018  0.00  0.00    +0.000 A 
ATOM      3  C   UNL     1      27.412  22.646  26.631  0.00  0.00    +0.000 A 
ATOM      4  C   UNL     1      26.557  23.488  25.953  0.00  0.00    +0.000 A 
ATOM      5  C   UNL     1      25.736  24.325  26.686  0.00  0.00    +0.000 A 
ATOM      6  N   UNL     1      24.894  25.154  26.042  0.00  0.00    +0.000 NA
ATOM      7  C   UNL     1      24.064  25.995  26.682  0.00  0.00    +0.000 A 
ATOM      8  C   UNL     1      24.094  25.993  28.061  0.00  0.00    +0.000 A 
ATOM      9  C   UNL     1      24.941  25.160  28.761  0.00  0.00    +0.000 A 
ATOM     10  C   UNL     1      25.777  24.311  28.061  0.00  0.00    +0.000 A 
ENDROOT
BRANCH   1  12
ATOM     11  O   UNL     1      25.961  22.654  30.742  0.00  0.00    +0.000 OA
ATOM     12  N   UNL     1      26.688  23.440  30.123  0.00  0.00    +0.000 N 
ATOM     13  O   UNL     1      27.529  24.267  30.805  0.00  0.00    +0.000 OA
ENDBRANCH   1  12
BRANCH   4  14
ATOM     14  N   UNL     1      26.493  23.525  24.534  0.00  0.00    +0.000 NA
BRANCH  14  15
ATOM     15  C   UNL     1      27.509  24.198  23.760  0.00  0.00    +0.000 C 
ATOM     16  C   UNL     1      26.952  24.444  22.377  0.00  0.00    +0.000 C 
ATOM     17  C   UNL     1      27.893  25.276  21.573  0.00  0.00    +0.000 C 
ATOM     18  C   UNL     1      28.074  26.601  22.312  0.00  0.00    +0.000 C 
ATOM     19  C   UNL     1      28.720  26.352  23.656  0.00  0.00    +0.000 C 
ATOM     20  C   UNL     1      30.036  25.631  23.523  0.00  0.00    +0.000 C 
ATOM     21  C   UNL     1      29.771  24.280  22.876  0.00  0.00    +0.000 C 
ATOM     22  C   UNL     1      29.235  24.571  21.479  0.00  0.00    +0.000 C 
ATOM     23  C   UNL     1      28.797  23.446  23.662  0.00  0.00    +0.000 C 
ATOM     24  C   UNL     1      27.804  25.510  24.478  0.00  0.00    +0.000 C 
ENDBRANCH  14  15
ENDBRANCH   4  14
TORSDOF 3
ENDMDL
MODEL 6
REMARK VINA RESULT:      -6.5      3.289      6.694
REMARK  Name = 
REMARK  3 active torsions:
REMARK  status: ('A' for Active; 'I' for Inactive)
REMARK    1  A    between atoms: N_2  and  C_4
REMARK    2  A    between atoms: C_7  and  N_8
REMARK    3  A    between atoms: N_8  and  C_9
REMARK                            x       y       z     vdW  Elec       q    Type
REMARK                         _______ _______ _______ _____ _____    ______ ____
ROOT
ATOM      1  C   UNL     1      26.646  23.605  28.484  0.00  0.00    +0.000 A 
ATOM      2  C   UNL     1      25.650  23.876  27.566  0.00  0.00    +0.000 A 
ATOM      3  C   UNL     1      25.934  23.664  26.224  0.00  0.00    +0.000 A 
ATOM      4  C   UNL     1      27.161  23.200  25.800  0.00  0.00    +0.000 A 
ATOM      5  C   UNL     1      28.132  22.941  26.749  0.00  0.00    +0.000 A 
ATOM      6  N   UNL     1      29.337  22.487  26.356  0.00  0.00    +0.000 NA
ATOM      7  C   UNL     1      30.332  22.214  27.216  0.00  0.00    +0.000 A 
ATOM      8  C   UNL     1      30.086  22.411  28.558  0.00  0.00    +0.000 A 
ATOM      9  C   UNL     1      28.867  22.874  29.006  0.00  0.00    +0.000 A 
ATOM     10  C   UNL     1      27.872  23.144  28.086  0.00  0.00    +0.000 A 
ENDROOT
BRANCH   1  12
ATOM     11  O   UNL     1      26.508  24.950  30.327  0.00  0.00    +0.000 OA
ATOM     12  N   UNL     1      26.364  23.818  29.849  0.00  0.00    +0.000 N 
ATOM     13  O   UNL     1      25.936  22.796  30.641  0.00  0.00    +0.000 OA
ENDBRANCH   1  12
BRANCH   4  14
ATOM     14  N   UNL     1      27.459  22.982  24.428  0.00  0.00    +0.000 NA
BRANCH  14  15
ATOM     15  C   UNL     1      27.977  24.045  23.601  0.00  0.00    +0.000 C 
ATOM     16  C   UNL     1      27.143  24.102  22.341  0.00  0.00    +0.000 C 
ATOM     17  C   UNL     1      27.525  25.281  21.512  0.00  0.00    +0.000 C 
ATOM     18  C   UNL     1      27.288  26.530  22.359  0.00  0.00    +0.000 C 
ATOM     19  C   UNL     1      28.197  26.509  23.567  0.00  0.00    +0.000 C 
ATOM     20  C   UNL     1      29.648  26.397  23.178  0.00  0.00    +0.000 C 
ATOM     21  C   UNL     1      29.836  25.086  22.430  0.00  0.00    +0.000 C 
ATOM     22  C   UNL     1      29.000  25.192  21.159  0.00  0.00    +0.000 C 
ATOM     23  C   UNL     1      29.421  23.892  23.247  0.00  0.00    +0.000 C 
ATOM     24  C   UNL     1      27.844  25.330  24.410  0.00  0.00    +0.000 C 
ENDBRANCH  14  15
ENDBRANCH   4  14
TORSDOF 3
ENDMDL
MODEL 7
REMARK VINA RESULT:      -6.3      3.855      6.923
REMARK  Name = 
REMARK  3 active torsions:
REMARK  status: ('A' for Active; 'I' for Inactive)
REMARK    1  A    between atoms: N_2  and  C_4
REMARK    2  A    between atoms: C_7  and  N_8
REMARK    3  A    between atoms: N_8  and  C_9
REMARK                            x       y       z     vdW  Elec       q    Type
REMARK                         _______ _______ _______ _____ _____    ______ ____
ROOT
ATOM      1  C   UNL     1      24.860  25.659  29.164  0.00  0.00    +0.000 A 
ATOM      2  C   UNL     1      24.338  25.993  27.930  0.00  0.00    +0.000 A 
ATOM      3  C   UNL     1      24.748  25.246  26.833  0.00  0.00    +0.000 A 
ATOM      4  C   UNL     1      25.643  24.204  26.950  0.00  0.00    +0.000 A 
ATOM      5  C   UNL     1      26.142  23.901  28.204  0.00  0.00    +0.000 A 
ATOM      6  N   UNL     1      27.017  22.888  28.339  0.00  0.00    +0.000 NA
ATOM      7  C   UNL     1      27.548  22.533  29.521  0.00  0.00    +0.000 A 
ATOM      8  C   UNL     1      27.164  23.252  30.633  0.00  0.00    +0.000 A 
ATOM      9  C   UNL     1      26.270  24.297  30.541  0.00  0.00    +0.000 A 
ATOM     10  C   UNL     1      25.750  24.628  29.304  0.00  0.00    +0.000 A 
ENDROOT
BRANCH   1  12
ATOM     11  O   UNL     1      25.051  27.457  30.563  0.00  0.00    +0.000 OA
ATOM     12  N   UNL     1      24.448  26.414  30.282  0.00  0.00    +0.000 N 
ATOM     13  O   UNL     1      23.399  26.007  31.050  0.00  0.00    +0.000 OA
ENDBRANCH   1  12
BRANCH   4  14
ATOM     14  N   UNL     1      26.066  23.436  25.833  0.00  0.00    +0.000 NA
BRANCH  14  15
ATOM     15  C   UNL     1      26.998  23.974  24.870  0.00  0.00    +0.000 C 
ATOM     16  C   UNL     1      28.171  23.025  24.778  0.00  0.00    +0.000 C 
ATOM     17  C   UNL     1      29.097  23.440  23.686  0.00  0.00    +0.000 C 
ATOM     18  C   UNL     1      28.300  23.424  22.382  0.00  0.00    +0.000 C 
ATOM     19  C   UNL     1      27.188  24.445  22.449  0.00  0.00    +0.000 C 
ATOM     20  C   UNL     1      27.711  25.829  22.737  0.00  0.00    +0.000 C 
ATOM     21  C   UNL     1      28.401  25.800  24.092  0.00  0.00    +0.000 C 
ATOM     22  C   UNL     1      29.588  24.853  23.951  0.00  0.00    +0.000 C 
ATOM     23  C   UNL     1      27.483  25.350  25.196  0.00  0.00    +0.000 C 
ATOM     24  C   UNL     1      26.251  24.060  23.544  0.00  0.00    +0.000 C 
ENDBRANCH  14  15
ENDBRANCH   4  14
TORSDOF 3
ENDMDL
MODEL 8
REMARK VINA RESULT:      -6.3      2.916      5.789
REMARK  Name = 
REMARK  3 active torsions:
REMARK  status: ('A' for Active; 'I' for Inactive)
REMARK    1  A    between atoms: N_2  and  C_4
REMARK    2  A    between atoms: C_7  and  N_8
REMARK    3  A    between atoms: N_8  and  C_9
REMARK                            x       y       z     vdW  Elec       q    Type
REMARK                         _______ _______ _______ _____ _____    ______ ____
ROOT
ATOM      1  C   UNL     1      33.182  24.324  26.188  0.00  0.00    +0.000 A 
ATOM      2  C   UNL     1      32.807  24.262  24.860  0.00  0.00    +0.000 A 
ATOM      3  C   UNL     1      31.595  23.655  24.559  0.00  0.00    +0.000 A 
ATOM      4  C   UNL     1      30.778  23.128  25.536  0.00  0.00    +0.000 A 
ATOM      5  C   UNL     1      31.188  23.211  26.854  0.00  0.00    +0.000 A 
ATOM      6  N   UNL     1      30.404  22.702  27.822  0.00  0.00    +0.000 NA
ATOM      7  C   UNL     1      30.732  22.741  29.125  0.00  0.00    +0.000 A 
ATOM      8  C   UNL     1      31.930  23.336  29.462  0.00  0.00    +0.000 A 
ATOM      9  C   UNL     1      32.763  23.871  28.503  0.00  0.00    +0.000 A 
ATOM     10  C   UNL     1      32.386  23.807  27.175  0.00  0.00    +0.000 A 
ENDROOT
BRANCH   1  12
ATOM     11  O   UNL     1      34.451  26.162  26.669  0.00  0.00    +0.000 OA
ATOM     12  N   UNL     1      34.412  24.938  26.500  0.00  0.00    +0.000 N 
ATOM     13  O   UNL     1      35.551  24.199  26.617  0.00  0.00    +0.000 OA
ENDBRANCH   1  12
BRANCH   4  14
ATOM     14  N   UNL     1      29.537  22.507  25.235  0.00  0.00    +0.000 NA
BRANCH  14  15
ATOM     15  C   UNL     1      28.379  23.292  24.877  0.00  0.00    +0.000 C 
ATOM     16  C   UNL     1      28.248  23.266  23.371  0.00  0.00    +0.000 C 
ATOM     17  C   UNL     1      26.982  23.928  22.944  0.00  0.00    +0.000 C 
ATOM     18  C   UNL     1      25.827  23.162  23.588  0.00  0.00    +0.000 C 
ATOM     19  C   UNL     1      25.915  23.275  25.092  0.00  0.00    +0.000 C 
ATOM     20  C   UNL     1      25.922  24.710  25.549  0.00  0.00    +0.000 C 
ATOM     21  C   UNL     1      27.150  25.388  24.958  0.00  0.00    +0.000 C 
ATOM     22  C   UNL     1      26.968  25.362  23.445  0.00  0.00    +0.000 C 
ATOM     23  C   UNL     1      28.431  24.706  25.357  0.00  0.00    +0.000 C 
ATOM     24  C   UNL     1      27.180  22.630  25.547  0.00  0.00    +0.000 C 
ENDBRANCH  14  15
ENDBRANCH   4  14
TORSDOF 3
ENDMDL
MODEL 9
REMARK VINA RESULT:      -6.3      3.607      6.793
REMARK  Name = 
REMARK  3 active torsions:
REMARK  status: ('A' for Active; 'I' for Inactive)
REMARK    1  A    between atoms: N_2  and  C_4
REMARK    2  A    between atoms: C_7  and  N_8
REMARK    3  A    between atoms: N_8  and  C_9
REMARK                            x       y       z     vdW  Elec       q    Type
REMARK                         _______ _______ _______ _____ _____    ______ ____
ROOT
ATOM      1  C   UNL     1      31.465  22.669  27.731  0.00  0.00    +0.000 A 
ATOM      2  C   UNL     1      30.398  22.021  27.141  0.00  0.00    +0.000 A 
ATOM      3  C   UNL     1      30.103  22.334  25.821  0.00  0.00    +0.000 A 
ATOM      4  C   UNL     1      30.837  23.256  25.106  0.00  0.00    +0.000 A 
ATOM      5  C   UNL     1      31.899  23.882  25.732  0.00  0.00    +0.000 A 
ATOM      6  N   UNL     1      32.628  24.785  25.050  0.00  0.00    +0.000 NA
ATOM      7  C   UNL     1      33.673  25.438  25.588  0.00  0.00    +0.000 A 
ATOM      8  C   UNL     1      33.996  25.152  26.897  0.00  0.00    +0.000 A 
ATOM      9  C   UNL     1      33.277  24.234  27.633  0.00  0.00    +0.000 A 
ATOM     10  C   UNL     1      32.209  23.588  27.040  0.00  0.00    +0.000 A 
ENDROOT
BRANCH   1  12
ATOM     11  O   UNL     1      32.509  21.394  29.315  0.00  0.00    +0.000 OA
ATOM     12  N   UNL     1      31.770  22.356  29.072  0.00  0.00    +0.000 N 
ATOM     13  O   UNL     1      31.262  23.098  30.095  0.00  0.00    +0.000 OA
ENDBRANCH   1  12
BRANCH   4  14
ATOM     14  N   UNL     1      30.541  23.581  23.755  0.00  0.00    +0.000 NA
BRANCH  14  15
ATOM     15  C   UNL     1      29.276  24.174  23.393  0.00  0.00    +0.000 C 
ATOM     16  C   UNL     1      29.018  25.330  24.333  0.00  0.00    +0.000 C 
ATOM     17  C   UNL     1      27.802  26.085  23.915  0.00  0.00    +0.000 C 
ATOM     18  C   UNL     1      28.051  26.601  22.499  0.00  0.00    +0.000 C 
ATOM     19  C   UNL     1      28.212  25.436  21.550  0.00  0.00    +0.000 C 
ATOM     20  C   UNL     1      27.019  24.517  21.579  0.00  0.00    +0.000 C 
ATOM     21  C   UNL     1      26.888  23.958  22.988  0.00  0.00    +0.000 C 
ATOM     22  C   UNL     1      26.607  25.147  23.899  0.00  0.00    +0.000 C 
ATOM     23  C   UNL     1      28.124  23.222  23.431  0.00  0.00    +0.000 C 
ATOM     24  C   UNL     1      29.417  24.655  21.953  0.00  0.00    +0.000 C 
ENDBRANCH  14  15
ENDBRANCH   4  14
TORSDOF 3
ENDMDL
MODEL 10
REMARK VINA RESULT:      -6.2      3.608      5.893
REMARK  Name = 
REMARK  3 active torsions:
REMARK  status: ('A' for Active; 'I' for Inactive)
REMARK    1  A    between atoms: N_2  and  C_4
REMARK    2  A    between atoms: C_7  and  N_8
REMARK    3  A    between atoms: N_8  and  C_9
REMARK                            x       y       z     vdW  Elec       q    Type
REMARK                         _______ _______ _______ _____ _____    ______ ____
ROOT
ATOM      1  C   UNL     1      24.371  25.992  27.530  0.00  0.00    +0.000 A 
ATOM      2  C   UNL     1      24.499  25.714  26.184  0.00  0.00    +0.000 A 
ATOM      3  C   UNL     1      25.399  24.725  25.812  0.00  0.00    +0.000 A 
ATOM      4  C   UNL     1      26.149  24.032  26.738  0.00  0.00    +0.000 A 
ATOM      5  C   UNL     1      25.992  24.339  28.077  0.00  0.00    +0.000 A 
ATOM      6  N   UNL     1      26.715  23.674  28.997  0.00  0.00    +0.000 NA
ATOM      7  C   UNL     1      26.620  23.915  30.315  0.00  0.00    +0.000 A 
ATOM      8  C   UNL     1      25.735  24.891  30.722  0.00  0.00    +0.000 A 
ATOM      9  C   UNL     1      24.974  25.597  29.815  0.00  0.00    +0.000 A 
ATOM     10  C   UNL     1      25.105  25.317  28.468  0.00  0.00    +0.000 A 
ENDROOT
BRANCH   1  12
ATOM     11  O   UNL     1      23.828  28.177  27.927  0.00  0.00    +0.000 OA
ATOM     12  N   UNL     1      23.458  26.996  27.914  0.00  0.00    +0.000 N 
ATOM     13  O   UNL     1      22.182  26.680  28.269  0.00  0.00    +0.000 OA
ENDBRANCH   1  12
BRANCH   4  14
ATOM     14  N   UNL     1      27.072  23.019  26.365  0.00  0.00    +0.000 NA
BRANCH  14  15
ATOM     15  C   UNL     1      28.402  23.353  25.915  0.00  0.00    +0.000 C 
ATOM     16  C   UNL     1      29.373  22.417  26.598  0.00  0.00    +0.000 C 
ATOM     17  C   UNL     1      30.751  22.605  26.059  0.00  0.00    +0.000 C 
ATOM     18  C   UNL     1      30.697  22.308  24.561  0.00  0.00    +0.000 C 
ATOM     19  C   UNL     1      29.798  23.309  23.872  0.00  0.00    +0.000 C 
ATOM     20  C   UNL     1      30.243  24.727  24.119  0.00  0.00    +0.000 C 
ATOM     21  C   UNL     1      30.174  24.990  25.615  0.00  0.00    +0.000 C 
ATOM     22  C   UNL     1      31.181  24.047  26.264  0.00  0.00    +0.000 C 
ATOM     23  C   UNL     1      28.795  24.771  26.176  0.00  0.00    +0.000 C 
ATOM     24  C   UNL     1      28.413  23.151  24.403  0.00  0.00    +0.000 C 
ENDBRANCH  14  15
ENDBRANCH   4  14
TORSDOF 3
ENDMDL
