MODEL 1
REMARK VINA RESULT:      -7.3      0.000      0.000
REMARK  Name = 
REMARK  8 active torsions:
REMARK  status: ('A' for Active; 'I' for Inactive)
REMARK    1  A    between atoms: O_2  and  C_3
REMARK    2  A    between atoms: C_6  and  C_7
REMARK    3  A    between atoms: C_9  and  C_10
REMARK    4  A    between atoms: N_12  and  C_13
REMARK    5  A    between atoms: C_13  and  C_14
REMARK    6  A    between atoms: C_14  and  C_15
REMARK    7  A    between atoms: C_15  and  C_16
REMARK    8  A    between atoms: C_29  and  O_30
REMARK                            x       y       z     vdW  Elec       q    Type
REMARK                         _______ _______ _______ _____ _____    ______ ____
ROOT
ATOM      1  C   UNL     1      38.549   4.854  17.027  0.00  0.00    +0.000 A 
ATOM      2  C   UNL     1      37.494   3.986  17.250  0.00  0.00    +0.000 A 
ATOM      3  C   UNL     1      37.228   2.953  16.373  0.00  0.00    +0.000 A 
ATOM      4  C   UNL     1      38.009   2.762  15.252  0.00  0.00    +0.000 A 
ATOM      5  C   UNL     1      37.773   1.740  14.354  0.00  0.00    +0.000 A 
ATOM      6  C   UNL     1      38.571   1.561  13.229  0.00  0.00    +0.000 A 
ATOM      7  C   UNL     1      39.620   2.434  13.019  0.00  0.00    +0.000 A 
ATOM      8  C   UNL     1      39.841   3.448  13.927  0.00  0.00    +0.000 A 
ATOM      9  C   UNL     1      39.048   3.632  15.052  0.00  0.00    +0.000 A 
ATOM     10  N   UNL     1      39.289   4.638  15.926  0.00  0.00    +0.000 NA
ENDROOT
BRANCH   1  14
ATOM     11  C   UNL     1      39.309   8.098  19.703  0.00  0.00    +0.000 A 
ATOM     12  C   UNL     1      39.778   6.839  19.987  0.00  0.00    +0.000 A 
ATOM     13  C   UNL     1      39.538   5.765  19.120  0.00  0.00    +0.000 A 
ATOM     14  C   UNL     1      38.823   5.942  17.957  0.00  0.00    +0.000 A 
ATOM     15  C   UNL     1      38.357   7.209  17.683  0.00  0.00    +0.000 A 
ATOM     16  C   UNL     1      38.595   8.269  18.540  0.00  0.00    +0.000 A 
BRANCH  11  18
ATOM     17  C   UNL     1      38.509  10.018  21.013  0.00  0.00    +0.000 C 
ATOM     18  O   UNL     1      39.525   9.187  20.538  0.00  0.00    +0.000 OA
ENDBRANCH  11  18
BRANCH  15  19
ATOM     19  O   UNL     1      37.635   7.395  16.511  0.00  0.00    +0.000 OA
ATOM     20  C   UNL     1      38.016   8.239  15.467  0.00  0.00    +0.000 C 
ENDBRANCH  15  19
ENDBRANCH   1  14
BRANCH   3  21
ATOM     21  C   UNL     1      36.123   2.024  16.582  0.00  0.00    +0.000 C 
ATOM     22  O   UNL     1      34.995   2.334  16.087  0.00  0.00    +0.000 OA
ATOM     23  N   UNL     1      36.275   0.815  17.304  0.00  0.00    +0.000 NA
BRANCH  23  24
ATOM     24  C   UNL     1      35.111  -0.042  17.456  0.00  0.00    +0.000 C 
BRANCH  24  25
ATOM     25  C   UNL     1      35.171  -1.235  16.545  0.00  0.00    +0.000 C 
BRANCH  25  26
ATOM     26  C   UNL     1      36.381  -2.063  16.921  0.00  0.00    +0.000 C 
BRANCH  26  27
ATOM     27  C   UNL     1      37.376  -1.999  15.807  0.00  0.00    +0.000 A 
ATOM     28  C   UNL     1      38.669  -1.649  16.098  0.00  0.00    +0.000 A 
ATOM     29  C   UNL     1      39.623  -1.575  15.112  0.00  0.00    +0.000 A 
ATOM     30  C   UNL     1      39.302  -1.855  13.792  0.00  0.00    +0.000 A 
ATOM     31  C   UNL     1      37.993  -2.206  13.531  0.00  0.00    +0.000 A 
ATOM     32  C   UNL     1      37.033  -2.281  14.510  0.00  0.00    +0.000 A 
ENDBRANCH  26  27
ENDBRANCH  25  26
ENDBRANCH  24  25
ENDBRANCH  23  24
ENDBRANCH   3  21
TORSDOF 8
ENDMDL
MODEL 2
REMARK VINA RESULT:      -7.2      1.770      3.427
REMARK  Name = 
REMARK  8 active torsions:
REMARK  status: ('A' for Active; 'I' for Inactive)
REMARK    1  A    between atoms: O_2  and  C_3
REMARK    2  A    between atoms: C_6  and  C_7
REMARK    3  A    between atoms: C_9  and  C_10
REMARK    4  A    between atoms: N_12  and  C_13
REMARK    5  A    between atoms: C_13  and  C_14
REMARK    6  A    between atoms: C_14  and  C_15
REMARK    7  A    between atoms: C_15  and  C_16
REMARK    8  A    between atoms: C_29  and  O_30
REMARK                            x       y       z     vdW  Elec       q    Type
REMARK                         _______ _______ _______ _____ _____    ______ ____
ROOT
ATOM      1  C   UNL     1      37.970   3.856  16.648  0.00  0.00    +0.000 A 
ATOM      2  C   UNL     1      38.688   3.317  15.594  0.00  0.00    +0.000 A 
ATOM      3  C   UNL     1      38.328   2.107  15.037  0.00  0.00    +0.000 A 
ATOM      4  C   UNL     1      37.244   1.403  15.519  0.00  0.00    +0.000 A 
ATOM      5  C   UNL     1      36.855   0.190  14.988  0.00  0.00    +0.000 A 
ATOM      6  C   UNL     1      35.758  -0.506  15.485  0.00  0.00    +0.000 A 
ATOM      7  C   UNL     1      35.051   0.043  16.536  0.00  0.00    +0.000 A 
ATOM      8  C   UNL     1      35.453   1.256  17.054  0.00  0.00    +0.000 A 
ATOM      9  C   UNL     1      36.548   1.955  16.562  0.00  0.00    +0.000 A 
ATOM     10  N   UNL     1      36.919   3.145  17.092  0.00  0.00    +0.000 NA
ENDROOT
BRANCH   1  14
ATOM     11  C   UNL     1      39.067   7.648  18.285  0.00  0.00    +0.000 A 
ATOM     12  C   UNL     1      39.350   6.490  18.966  0.00  0.00    +0.000 A 
ATOM     13  C   UNL     1      38.997   5.239  18.444  0.00  0.00    +0.000 A 
ATOM     14  C   UNL     1      38.356   5.135  17.230  0.00  0.00    +0.000 A 
ATOM     15  C   UNL     1      38.076   6.304  16.556  0.00  0.00    +0.000 A 
ATOM     16  C   UNL     1      38.425   7.539  17.073  0.00  0.00    +0.000 A 
BRANCH  11  18
ATOM     17  C   UNL     1      40.110   9.123  19.952  0.00  0.00    +0.000 C 
ATOM     18  O   UNL     1      39.399   8.906  18.770  0.00  0.00    +0.000 OA
ENDBRANCH  11  18
BRANCH  15  19
ATOM     19  O   UNL     1      37.429   6.207  15.330  0.00  0.00    +0.000 OA
ATOM     20  C   UNL     1      36.709   7.238  14.727  0.00  0.00    +0.000 C 
ENDBRANCH  15  19
ENDBRANCH   1  14
BRANCH   3  21
ATOM     21  C   UNL     1      39.066   1.514  13.927  0.00  0.00    +0.000 C 
ATOM     22  O   UNL     1      38.574   1.642  12.762  0.00  0.00    +0.000 OA
ATOM     23  N   UNL     1      40.284   0.816  14.112  0.00  0.00    +0.000 NA
BRANCH  23  24
ATOM     24  C   UNL     1      40.940   0.261  12.939  0.00  0.00    +0.000 C 
BRANCH  24  25
ATOM     25  C   UNL     1      40.896  -1.241  12.931  0.00  0.00    +0.000 C 
BRANCH  25  26
ATOM     26  C   UNL     1      40.819  -1.724  14.363  0.00  0.00    +0.000 C 
BRANCH  26  27
ATOM     27  C   UNL     1      39.530  -2.456  14.557  0.00  0.00    +0.000 A 
ATOM     28  C   UNL     1      39.207  -2.900  15.813  0.00  0.00    +0.000 A 
ATOM     29  C   UNL     1      38.035  -3.578  16.047  0.00  0.00    +0.000 A 
ATOM     30  C   UNL     1      37.143  -3.830  15.015  0.00  0.00    +0.000 A 
ATOM     31  C   UNL     1      37.495  -3.370  13.763  0.00  0.00    +0.000 A 
ATOM     32  C   UNL     1      38.665  -2.692  13.519  0.00  0.00    +0.000 A 
ENDBRANCH  26  27
ENDBRANCH  25  26
ENDBRANCH  24  25
ENDBRANCH  23  24
ENDBRANCH   3  21
TORSDOF 8
ENDMDL
MODEL 3
REMARK VINA RESULT:      -7.2      2.918      9.372
REMARK  Name = 
REMARK  8 active torsions:
REMARK  status: ('A' for Active; 'I' for Inactive)
REMARK    1  A    between atoms: O_2  and  C_3
REMARK    2  A    between atoms: C_6  and  C_7
REMARK    3  A    between atoms: C_9  and  C_10
REMARK    4  A    between atoms: N_12  and  C_13
REMARK    5  A    between atoms: C_13  and  C_14
REMARK    6  A    between atoms: C_14  and  C_15
REMARK    7  A    between atoms: C_15  and  C_16
REMARK    8  A    between atoms: C_29  and  O_30
REMARK                            x       y       z     vdW  Elec       q    Type
REMARK                         _______ _______ _______ _____ _____    ______ ____
ROOT
ATOM      1  C   UNL     1      38.477  -0.570  13.986  0.00  0.00    +0.000 A 
ATOM      2  C   UNL     1      38.685   0.798  14.037  0.00  0.00    +0.000 A 
ATOM      3  C   UNL     1      37.861   1.613  14.786  0.00  0.00    +0.000 A 
ATOM      4  C   UNL     1      36.809   1.082  15.504  0.00  0.00    +0.000 A 
ATOM      5  C   UNL     1      35.964   1.865  16.264  0.00  0.00    +0.000 A 
ATOM      6  C   UNL     1      34.908   1.314  16.983  0.00  0.00    +0.000 A 
ATOM      7  C   UNL     1      34.713  -0.052  16.924  0.00  0.00    +0.000 A 
ATOM      8  C   UNL     1      35.567  -0.819  16.159  0.00  0.00    +0.000 A 
ATOM      9  C   UNL     1      36.623  -0.274  15.440  0.00  0.00    +0.000 A 
ATOM     10  N   UNL     1      37.445  -1.053  14.697  0.00  0.00    +0.000 NA
ENDROOT
BRANCH   1  14
ATOM     11  C   UNL     1      41.081  -3.101  11.733  0.00  0.00    +0.000 A 
ATOM     12  C   UNL     1      40.169  -2.297  11.093  0.00  0.00    +0.000 A 
ATOM     13  C   UNL     1      39.309  -1.462  11.817  0.00  0.00    +0.000 A 
ATOM     14  C   UNL     1      39.353  -1.423  13.192  0.00  0.00    +0.000 A 
ATOM     15  C   UNL     1      40.271  -2.234  13.823  0.00  0.00    +0.000 A 
ATOM     16  C   UNL     1      41.121  -3.059  13.107  0.00  0.00    +0.000 A 
BRANCH  11  18
ATOM     17  C   UNL     1      43.340  -3.811  11.072  0.00  0.00    +0.000 C 
ATOM     18  O   UNL     1      41.950  -3.943  11.051  0.00  0.00    +0.000 OA
ENDBRANCH  11  18
BRANCH  15  19
ATOM     19  O   UNL     1      40.321  -2.200  15.211  0.00  0.00    +0.000 OA
ATOM     20  C   UNL     1      39.938  -3.249  16.047  0.00  0.00    +0.000 C 
ENDBRANCH  15  19
ENDBRANCH   1  14
BRANCH   3  21
ATOM     21  C   UNL     1      38.054   3.057  14.858  0.00  0.00    +0.000 C 
ATOM     22  O   UNL     1      37.510   3.766  13.956  0.00  0.00    +0.000 OA
ATOM     23  N   UNL     1      38.815   3.670  15.883  0.00  0.00    +0.000 NA
BRANCH  23  24
ATOM     24  C   UNL     1      38.948   5.117  15.864  0.00  0.00    +0.000 C 
BRANCH  24  25
ATOM     25  C   UNL     1      39.870   5.609  16.943  0.00  0.00    +0.000 C 
BRANCH  25  26
ATOM     26  C   UNL     1      39.249   5.289  18.286  0.00  0.00    +0.000 C 
BRANCH  26  27
ATOM     27  C   UNL     1      38.868   6.568  18.959  0.00  0.00    +0.000 A 
ATOM     28  C   UNL     1      39.564   6.958  20.074  0.00  0.00    +0.000 A 
ATOM     29  C   UNL     1      39.255   8.124  20.731  0.00  0.00    +0.000 A 
ATOM     30  C   UNL     1      38.229   8.942  20.282  0.00  0.00    +0.000 A 
ATOM     31  C   UNL     1      37.548   8.523  19.157  0.00  0.00    +0.000 A 
ATOM     32  C   UNL     1      37.849   7.358  18.494  0.00  0.00    +0.000 A 
ENDBRANCH  26  27
ENDBRANCH  25  26
ENDBRANCH  24  25
ENDBRANCH  23  24
ENDBRANCH   3  21
TORSDOF 8
ENDMDL
MODEL 4
REMARK VINA RESULT:      -7.2      3.081      8.923
REMARK  Name = 
REMARK  8 active torsions:
REMARK  status: ('A' for Active; 'I' for Inactive)
REMARK    1  A    between atoms: O_2  and  C_3
REMARK    2  A    between atoms: C_6  and  C_7
REMARK    3  A    between atoms: C_9  and  C_10
REMARK    4  A    between atoms: N_12  and  C_13
REMARK    5  A    between atoms: C_13  and  C_14
REMARK    6  A    between atoms: C_14  and  C_15
REMARK    7  A    between atoms: C_15  and  C_16
REMARK    8  A    between atoms: C_29  and  O_30
REMARK                            x       y       z     vdW  Elec       q    Type
REMARK                         _______ _______ _______ _____ _____    ______ ____
ROOT
ATOM      1  C   UNL     1      38.770  -0.980  14.572  0.00  0.00    +0.000 A 
ATOM      2  C   UNL     1      38.648   0.397  14.650  0.00  0.00    +0.000 A 
ATOM      3  C   UNL     1      37.575   0.978  15.294  0.00  0.00    +0.000 A 
ATOM      4  C   UNL     1      36.596   0.200  15.876  0.00  0.00    +0.000 A 
ATOM      5  C   UNL     1      35.509   0.746  16.529  0.00  0.00    +0.000 A 
ATOM      6  C   UNL     1      34.531  -0.054  17.112  0.00  0.00    +0.000 A 
ATOM      7  C   UNL     1      34.666  -1.426  17.027  0.00  0.00    +0.000 A 
ATOM      8  C   UNL     1      35.758  -1.954  16.371  0.00  0.00    +0.000 A 
ATOM      9  C   UNL     1      36.737  -1.160  15.788  0.00  0.00    +0.000 A 
ATOM     10  N   UNL     1      37.799  -1.707  15.151  0.00  0.00    +0.000 NA
ENDROOT
BRANCH   1  14
ATOM     11  C   UNL     1      42.067  -2.735  12.496  0.00  0.00    +0.000 A 
ATOM     12  C   UNL     1      42.033  -2.731  13.868  0.00  0.00    +0.000 A 
ATOM     13  C   UNL     1      40.961  -2.160  14.564  0.00  0.00    +0.000 A 
ATOM     14  C   UNL     1      39.907  -1.586  13.890  0.00  0.00    +0.000 A 
ATOM     15  C   UNL     1      39.951  -1.595  12.513  0.00  0.00    +0.000 A 
ATOM     16  C   UNL     1      41.012  -2.160  11.827  0.00  0.00    +0.000 A 
BRANCH  11  18
ATOM     17  C   UNL     1      44.360  -3.602  12.316  0.00  0.00    +0.000 C 
ATOM     18  O   UNL     1      43.113  -3.290  11.770  0.00  0.00    +0.000 OA
ENDBRANCH  11  18
BRANCH  15  19
ATOM     19  O   UNL     1      38.890  -1.017  11.825  0.00  0.00    +0.000 OA
ATOM     20  C   UNL     1      38.994   0.101  10.998  0.00  0.00    +0.000 C 
ENDBRANCH  15  19
ENDBRANCH   1  14
BRANCH   3  21
ATOM     21  C   UNL     1      37.419   2.426  15.391  0.00  0.00    +0.000 C 
ATOM     22  O   UNL     1      36.746   3.005  14.483  0.00  0.00    +0.000 OA
ATOM     23  N   UNL     1      37.987   3.180  16.447  0.00  0.00    +0.000 NA
BRANCH  23  24
ATOM     24  C   UNL     1      37.774   4.618  16.452  0.00  0.00    +0.000 C 
BRANCH  24  25
ATOM     25  C   UNL     1      39.038   5.370  16.756  0.00  0.00    +0.000 C 
BRANCH  25  26
ATOM     26  C   UNL     1      39.024   5.756  18.219  0.00  0.00    +0.000 C 
BRANCH  26  27
ATOM     27  C   UNL     1      40.411   6.126  18.635  0.00  0.00    +0.000 A 
ATOM     28  C   UNL     1      40.691   6.238  19.972  0.00  0.00    +0.000 A 
ATOM     29  C   UNL     1      41.949   6.575  20.409  0.00  0.00    +0.000 A 
ATOM     30  C   UNL     1      42.974   6.810  19.505  0.00  0.00    +0.000 A 
ATOM     31  C   UNL     1      42.663   6.689  18.166  0.00  0.00    +0.000 A 
ATOM     32  C   UNL     1      41.407   6.353  17.721  0.00  0.00    +0.000 A 
ENDBRANCH  26  27
ENDBRANCH  25  26
ENDBRANCH  24  25
ENDBRANCH  23  24
ENDBRANCH   3  21
TORSDOF 8
ENDMDL
MODEL 5
REMARK VINA RESULT:      -7.0      2.455      3.389
REMARK  Name = 
REMARK  8 active torsions:
REMARK  status: ('A' for Active; 'I' for Inactive)
REMARK    1  A    between atoms: O_2  and  C_3
REMARK    2  A    between atoms: C_6  and  C_7
REMARK    3  A    between atoms: C_9  and  C_10
REMARK    4  A    between atoms: N_12  and  C_13
REMARK    5  A    between atoms: C_13  and  C_14
REMARK    6  A    between atoms: C_14  and  C_15
REMARK    7  A    between atoms: C_15  and  C_16
REMARK    8  A    between atoms: C_29  and  O_30
REMARK                            x       y       z     vdW  Elec       q    Type
REMARK                         _______ _______ _______ _____ _____    ______ ____
ROOT
ATOM      1  C   UNL     1      38.711   5.635  16.840  0.00  0.00    +0.000 A 
ATOM      2  C   UNL     1      38.268   4.328  16.720  0.00  0.00    +0.000 A 
ATOM      3  C   UNL     1      37.322   3.984  15.776  0.00  0.00    +0.000 A 
ATOM      4  C   UNL     1      36.795   4.936  14.927  0.00  0.00    +0.000 A 
ATOM      5  C   UNL     1      35.848   4.628  13.971  0.00  0.00    +0.000 A 
ATOM      6  C   UNL     1      35.327   5.600  13.122  0.00  0.00    +0.000 A 
ATOM      7  C   UNL     1      35.778   6.898  13.252  0.00  0.00    +0.000 A 
ATOM      8  C   UNL     1      36.725   7.187  14.213  0.00  0.00    +0.000 A 
ATOM      9  C   UNL     1      37.248   6.221  15.063  0.00  0.00    +0.000 A 
ATOM     10  N   UNL     1      38.177   6.535  15.996  0.00  0.00    +0.000 NA
ENDROOT
BRANCH   1  14
ATOM     11  C   UNL     1      41.701   6.681  19.708  0.00  0.00    +0.000 A 
ATOM     12  C   UNL     1      40.409   6.445  20.106  0.00  0.00    +0.000 A 
ATOM     13  C   UNL     1      39.417   6.102  19.179  0.00  0.00    +0.000 A 
ATOM     14  C   UNL     1      39.710   5.990  17.840  0.00  0.00    +0.000 A 
ATOM     15  C   UNL     1      41.010   6.229  17.450  0.00  0.00    +0.000 A 
ATOM     16  C   UNL     1      41.989   6.568  18.367  0.00  0.00    +0.000 A 
BRANCH  11  18
ATOM     17  C   UNL     1      43.300   6.129  21.492  0.00  0.00    +0.000 C 
ATOM     18  O   UNL     1      42.712   7.025  20.596  0.00  0.00    +0.000 OA
ENDBRANCH  11  18
BRANCH  15  19
ATOM     19  O   UNL     1      41.314   6.117  16.099  0.00  0.00    +0.000 OA
ATOM     20  C   UNL     1      41.791   7.159  15.302  0.00  0.00    +0.000 C 
ENDBRANCH  15  19
ENDBRANCH   1  14
BRANCH   3  21
ATOM     21  C   UNL     1      36.836   2.617  15.627  0.00  0.00    +0.000 C 
ATOM     22  O   UNL     1      37.464   1.855  14.828  0.00  0.00    +0.000 OA
ATOM     23  N   UNL     1      35.708   2.132  16.333  0.00  0.00    +0.000 NA
BRANCH  23  24
ATOM     24  C   UNL     1      35.304   0.753  16.113  0.00  0.00    +0.000 C 
BRANCH  24  25
ATOM     25  C   UNL     1      35.000   0.046  17.403  0.00  0.00    +0.000 C 
BRANCH  25  26
ATOM     26  C   UNL     1      36.147   0.285  18.361  0.00  0.00    +0.000 C 
BRANCH  26  27
ATOM     27  C   UNL     1      36.990  -0.947  18.423  0.00  0.00    +0.000 A 
ATOM     28  C   UNL     1      37.598  -1.388  17.277  0.00  0.00    +0.000 A 
ATOM     29  C   UNL     1      38.384  -2.515  17.278  0.00  0.00    +0.000 A 
ATOM     30  C   UNL     1      38.584  -3.239  18.444  0.00  0.00    +0.000 A 
ATOM     31  C   UNL     1      37.960  -2.770  19.582  0.00  0.00    +0.000 A 
ATOM     32  C   UNL     1      37.172  -1.645  19.589  0.00  0.00    +0.000 A 
ENDBRANCH  26  27
ENDBRANCH  25  26
ENDBRANCH  24  25
ENDBRANCH  23  24
ENDBRANCH   3  21
TORSDOF 8
ENDMDL
MODEL 6
REMARK VINA RESULT:      -7.0      3.954      9.218
REMARK  Name = 
REMARK  8 active torsions:
REMARK  status: ('A' for Active; 'I' for Inactive)
REMARK    1  A    between atoms: O_2  and  C_3
REMARK    2  A    between atoms: C_6  and  C_7
REMARK    3  A    between atoms: C_9  and  C_10
REMARK    4  A    between atoms: N_12  and  C_13
REMARK    5  A    between atoms: C_13  and  C_14
REMARK    6  A    between atoms: C_14  and  C_15
REMARK    7  A    between atoms: C_15  and  C_16
REMARK    8  A    between atoms: C_29  and  O_30
REMARK                            x       y       z     vdW  Elec       q    Type
REMARK                         _______ _______ _______ _____ _____    ______ ____
ROOT
ATOM      1  C   UNL     1      40.795  -1.760  14.660  0.00  0.00    +0.000 A 
ATOM      2  C   UNL     1      40.194  -0.547  14.368  0.00  0.00    +0.000 A 
ATOM      3  C   UNL     1      38.982  -0.202  14.931  0.00  0.00    +0.000 A 
ATOM      4  C   UNL     1      38.340  -1.059  15.800  0.00  0.00    +0.000 A 
ATOM      5  C   UNL     1      37.127  -0.748  16.383  0.00  0.00    +0.000 A 
ATOM      6  C   UNL     1      36.493  -1.623  17.258  0.00  0.00    +0.000 A 
ATOM      7  C   UNL     1      37.104  -2.829  17.541  0.00  0.00    +0.000 A 
ATOM      8  C   UNL     1      38.315  -3.123  16.950  0.00  0.00    +0.000 A 
ATOM      9  C   UNL     1      38.952  -2.253  16.076  0.00  0.00    +0.000 A 
ATOM     10  N   UNL     1      40.142  -2.569  15.511  0.00  0.00    +0.000 NA
ENDROOT
BRANCH   1  14
ATOM     11  C   UNL     1      44.505  -2.844  12.840  0.00  0.00    +0.000 A 
ATOM     12  C   UNL     1      44.490  -2.112  14.001  0.00  0.00    +0.000 A 
ATOM     13  C   UNL     1      43.282  -1.748  14.610  0.00  0.00    +0.000 A 
ATOM     14  C   UNL     1      42.075  -2.116  14.061  0.00  0.00    +0.000 A 
ATOM     15  C   UNL     1      42.102  -2.850  12.896  0.00  0.00    +0.000 A 
ATOM     16  C   UNL     1      43.296  -3.209  12.295  0.00  0.00    +0.000 A 
BRANCH  11  18
ATOM     17  C   UNL     1      46.936  -3.210  12.817  0.00  0.00    +0.000 C 
ATOM     18  O   UNL     1      45.681  -3.224  12.205  0.00  0.00    +0.000 OA
ENDBRANCH  11  18
BRANCH  15  19
ATOM     19  O   UNL     1      40.887  -3.225  12.336  0.00  0.00    +0.000 OA
ATOM     20  C   UNL     1      40.377  -2.728  11.137  0.00  0.00    +0.000 C 
ENDBRANCH  15  19
ENDBRANCH   1  14
BRANCH   3  21
ATOM     21  C   UNL     1      38.325   1.068  14.641  0.00  0.00    +0.000 C 
ATOM     22  O   UNL     1      37.708   1.169  13.536  0.00  0.00    +0.000 OA
ATOM     23  N   UNL     1      38.358   2.162  15.540  0.00  0.00    +0.000 NA
BRANCH  23  24
ATOM     24  C   UNL     1      37.672   3.384  15.156  0.00  0.00    +0.000 C 
BRANCH  24  25
ATOM     25  C   UNL     1      38.392   4.608  15.647  0.00  0.00    +0.000 C 
BRANCH  25  26
ATOM     26  C   UNL     1      38.151   4.740  17.135  0.00  0.00    +0.000 C 
BRANCH  26  27
ATOM     27  C   UNL     1      39.330   5.413  17.759  0.00  0.00    +0.000 A 
ATOM     28  C   UNL     1      40.399   5.737  16.964  0.00  0.00    +0.000 A 
ATOM     29  C   UNL     1      41.509   6.358  17.486  0.00  0.00    +0.000 A 
ATOM     30  C   UNL     1      41.576   6.674  18.835  0.00  0.00    +0.000 A 
ATOM     31  C   UNL     1      40.485   6.336  19.608  0.00  0.00    +0.000 A 
ATOM     32  C   UNL     1      39.372   5.716  19.095  0.00  0.00    +0.000 A 
ENDBRANCH  26  27
ENDBRANCH  25  26
ENDBRANCH  24  25
ENDBRANCH  23  24
ENDBRANCH   3  21
TORSDOF 8
ENDMDL
MODEL 7
REMARK VINA RESULT:      -6.9      4.442      8.228
REMARK  Name = 
REMARK  8 active torsions:
REMARK  status: ('A' for Active; 'I' for Inactive)
REMARK    1  A    between atoms: O_2  and  C_3
REMARK    2  A    between atoms: C_6  and  C_7
REMARK    3  A    between atoms: C_9  and  C_10
REMARK    4  A    between atoms: N_12  and  C_13
REMARK    5  A    between atoms: C_13  and  C_14
REMARK    6  A    between atoms: C_14  and  C_15
REMARK    7  A    between atoms: C_15  and  C_16
REMARK    8  A    between atoms: C_29  and  O_30
REMARK                            x       y       z     vdW  Elec       q    Type
REMARK                         _______ _______ _______ _____ _____    ______ ____
ROOT
ATOM      1  C   UNL     1      41.775  -1.109  14.462  0.00  0.00    +0.000 A 
ATOM      2  C   UNL     1      40.861  -0.100  14.205  0.00  0.00    +0.000 A 
ATOM      3  C   UNL     1      39.543  -0.222  14.596  0.00  0.00    +0.000 A 
ATOM      4  C   UNL     1      39.105  -1.353  15.253  0.00  0.00    +0.000 A 
ATOM      5  C   UNL     1      37.794  -1.509  15.659  0.00  0.00    +0.000 A 
ATOM      6  C   UNL     1      37.369  -2.656  16.322  0.00  0.00    +0.000 A 
ATOM      7  C   UNL     1      38.291  -3.653  16.572  0.00  0.00    +0.000 A 
ATOM      8  C   UNL     1      39.595  -3.479  16.159  0.00  0.00    +0.000 A 
ATOM      9  C   UNL     1      40.026  -2.337  15.497  0.00  0.00    +0.000 A 
ATOM     10  N   UNL     1      41.314  -2.195  15.104  0.00  0.00    +0.000 NA
ENDROOT
BRANCH   1  14
ATOM     11  C   UNL     1      45.832  -0.748  13.167  0.00  0.00    +0.000 A 
ATOM     12  C   UNL     1      45.446  -0.253  14.388  0.00  0.00    +0.000 A 
ATOM     13  C   UNL     1      44.121  -0.362  14.827  0.00  0.00    +0.000 A 
ATOM     14  C   UNL     1      43.165  -0.972  14.046  0.00  0.00    +0.000 A 
ATOM     15  C   UNL     1      43.563  -1.465  12.822  0.00  0.00    +0.000 A 
ATOM     16  C   UNL     1      44.873  -1.356  12.390  0.00  0.00    +0.000 A 
BRANCH  11  18
ATOM     17  C   UNL     1      48.252  -1.113  13.401  0.00  0.00    +0.000 C 
ATOM     18  O   UNL     1      47.135  -0.658  12.696  0.00  0.00    +0.000 OA
ENDBRANCH  11  18
BRANCH  15  19
ATOM     19  O   UNL     1      42.604  -2.082  12.028  0.00  0.00    +0.000 OA
ATOM     20  C   UNL     1      42.712  -3.372  11.508  0.00  0.00    +0.000 C 
ENDBRANCH  15  19
ENDBRANCH   1  14
BRANCH   3  21
ATOM     21  C   UNL     1      38.558   0.822  14.338  0.00  0.00    +0.000 C 
ATOM     22  O   UNL     1      37.832   0.701  13.303  0.00  0.00    +0.000 OA
ATOM     23  N   UNL     1      38.396   1.940  15.193  0.00  0.00    +0.000 NA
BRANCH  23  24
ATOM     24  C   UNL     1      37.386   2.926  14.846  0.00  0.00    +0.000 C 
BRANCH  24  25
ATOM     25  C   UNL     1      36.078   2.653  15.534  0.00  0.00    +0.000 C 
BRANCH  25  26
ATOM     26  C   UNL     1      36.335   2.541  17.021  0.00  0.00    +0.000 C 
BRANCH  26  27
ATOM     27  C   UNL     1      35.817   1.224  17.502  0.00  0.00    +0.000 A 
ATOM     28  C   UNL     1      34.917   0.545  16.722  0.00  0.00    +0.000 A 
ATOM     29  C   UNL     1      34.409  -0.669  17.117  0.00  0.00    +0.000 A 
ATOM     30  C   UNL     1      34.797  -1.243  18.319  0.00  0.00    +0.000 A 
ATOM     31  C   UNL     1      35.704  -0.537  19.081  0.00  0.00    +0.000 A 
ATOM     32  C   UNL     1      36.216   0.678  18.695  0.00  0.00    +0.000 A 
ENDBRANCH  26  27
ENDBRANCH  25  26
ENDBRANCH  24  25
ENDBRANCH  23  24
ENDBRANCH   3  21
TORSDOF 8
ENDMDL
MODEL 8
REMARK VINA RESULT:      -6.9      4.999      8.535
REMARK  Name = 
REMARK  8 active torsions:
REMARK  status: ('A' for Active; 'I' for Inactive)
REMARK    1  A    between atoms: O_2  and  C_3
REMARK    2  A    between atoms: C_6  and  C_7
REMARK    3  A    between atoms: C_9  and  C_10
REMARK    4  A    between atoms: N_12  and  C_13
REMARK    5  A    between atoms: C_13  and  C_14
REMARK    6  A    between atoms: C_14  and  C_15
REMARK    7  A    between atoms: C_15  and  C_16
REMARK    8  A    between atoms: C_29  and  O_30
REMARK                            x       y       z     vdW  Elec       q    Type
REMARK                         _______ _______ _______ _____ _____    ______ ____
ROOT
ATOM      1  C   UNL     1      36.666  -1.569  15.543  0.00  0.00    +0.000 A 
ATOM      2  C   UNL     1      37.238  -1.121  14.364  0.00  0.00    +0.000 A 
ATOM      3  C   UNL     1      37.007   0.160  13.906  0.00  0.00    +0.000 A 
ATOM      4  C   UNL     1      36.198   1.026  14.613  0.00  0.00    +0.000 A 
ATOM      5  C   UNL     1      35.943   2.314  14.185  0.00  0.00    +0.000 A 
ATOM      6  C   UNL     1      35.126   3.175  14.910  0.00  0.00    +0.000 A 
ATOM      7  C   UNL     1      34.563   2.716  16.085  0.00  0.00    +0.000 A 
ATOM      8  C   UNL     1      34.828   1.426  16.496  0.00  0.00    +0.000 A 
ATOM      9  C   UNL     1      35.643   0.562  15.777  0.00  0.00    +0.000 A 
ATOM     10  N   UNL     1      35.885  -0.699  16.206  0.00  0.00    +0.000 NA
ENDROOT
BRANCH   1  14
ATOM     11  C   UNL     1      37.327  -5.566  16.902  0.00  0.00    +0.000 A 
ATOM     12  C   UNL     1      38.211  -4.567  17.227  0.00  0.00    +0.000 A 
ATOM     13  C   UNL     1      38.009  -3.252  16.790  0.00  0.00    +0.000 A 
ATOM     14  C   UNL     1      36.916  -2.923  16.021  0.00  0.00    +0.000 A 
ATOM     15  C   UNL     1      36.036  -3.933  15.700  0.00  0.00    +0.000 A 
ATOM     16  C   UNL     1      36.237  -5.232  16.133  0.00  0.00    +0.000 A 
BRANCH  11  18
ATOM     17  C   UNL     1      36.439  -7.778  17.505  0.00  0.00    +0.000 C 
ATOM     18  O   UNL     1      37.493  -6.881  17.315  0.00  0.00    +0.000 OA
ENDBRANCH  11  18
BRANCH  15  19
ATOM     19  O   UNL     1      34.930  -3.608  14.924  0.00  0.00    +0.000 OA
ATOM     20  C   UNL     1      33.646  -4.119  15.116  0.00  0.00    +0.000 C 
ENDBRANCH  15  19
ENDBRANCH   1  14
BRANCH   3  21
ATOM     21  C   UNL     1      37.594   0.660  12.668  0.00  0.00    +0.000 C 
ATOM     22  O   UNL     1      37.039   0.321  11.577  0.00  0.00    +0.000 OA
ATOM     23  N   UNL     1      38.741   1.491  12.654  0.00  0.00    +0.000 NA
BRANCH  23  24
ATOM     24  C   UNL     1      39.249   1.934  11.366  0.00  0.00    +0.000 C 
BRANCH  24  25
ATOM     25  C   UNL     1      40.289   0.996  10.822  0.00  0.00    +0.000 C 
BRANCH  25  26
ATOM     26  C   UNL     1      41.351   0.793  11.882  0.00  0.00    +0.000 C 
BRANCH  26  27
ATOM     27  C   UNL     1      41.064  -0.476  12.617  0.00  0.00    +0.000 A 
ATOM     28  C   UNL     1      41.331  -0.535  13.960  0.00  0.00    +0.000 A 
ATOM     29  C   UNL     1      41.086  -1.677  14.683  0.00  0.00    +0.000 A 
ATOM     30  C   UNL     1      40.558  -2.804  14.072  0.00  0.00    +0.000 A 
ATOM     31  C   UNL     1      40.299  -2.714  12.719  0.00  0.00    +0.000 A 
ATOM     32  C   UNL     1      40.542  -1.577  11.988  0.00  0.00    +0.000 A 
ENDBRANCH  26  27
ENDBRANCH  25  26
ENDBRANCH  24  25
ENDBRANCH  23  24
ENDBRANCH   3  21
TORSDOF 8
ENDMDL
MODEL 9
REMARK VINA RESULT:      -6.9      3.515      6.098
REMARK  Name = 
REMARK  8 active torsions:
REMARK  status: ('A' for Active; 'I' for Inactive)
REMARK    1  A    between atoms: O_2  and  C_3
REMARK    2  A    between atoms: C_6  and  C_7
REMARK    3  A    between atoms: C_9  and  C_10
REMARK    4  A    between atoms: N_12  and  C_13
REMARK    5  A    between atoms: C_13  and  C_14
REMARK    6  A    between atoms: C_14  and  C_15
REMARK    7  A    between atoms: C_15  and  C_16
REMARK    8  A    between atoms: C_29  and  O_30
REMARK                            x       y       z     vdW  Elec       q    Type
REMARK                         _______ _______ _______ _____ _____    ______ ____
ROOT
ATOM      1  C   UNL     1      41.608   6.780  19.858  0.00  0.00    +0.000 A 
ATOM      2  C   UNL     1      41.012   6.059  18.836  0.00  0.00    +0.000 A 
ATOM      3  C   UNL     1      39.723   6.338  18.431  0.00  0.00    +0.000 A 
ATOM      4  C   UNL     1      38.996   7.343  19.035  0.00  0.00    +0.000 A 
ATOM      5  C   UNL     1      37.704   7.649  18.656  0.00  0.00    +0.000 A 
ATOM      6  C   UNL     1      36.985   8.666  19.274  0.00  0.00    +0.000 A 
ATOM      7  C   UNL     1      37.591   9.378  20.291  0.00  0.00    +0.000 A 
ATOM      8  C   UNL     1      38.882   9.058  20.657  0.00  0.00    +0.000 A 
ATOM      9  C   UNL     1      39.605   8.043  20.042  0.00  0.00    +0.000 A 
ATOM     10  N   UNL     1      40.871   7.752  20.423  0.00  0.00    +0.000 NA
ENDROOT
BRANCH   1  14
ATOM     11  C   UNL     1      45.633   5.945  21.025  0.00  0.00    +0.000 A 
ATOM     12  C   UNL     1      44.581   5.487  21.781  0.00  0.00    +0.000 A 
ATOM     13  C   UNL     1      43.257   5.753  21.412  0.00  0.00    +0.000 A 
ATOM     14  C   UNL     1      42.970   6.480  20.280  0.00  0.00    +0.000 A 
ATOM     15  C   UNL     1      44.033   6.935  19.529  0.00  0.00    +0.000 A 
ATOM     16  C   UNL     1      45.342   6.671  19.895  0.00  0.00    +0.000 A 
BRANCH  11  18
ATOM     17  C   UNL     1      47.384   5.298  22.625  0.00  0.00    +0.000 C 
ATOM     18  O   UNL     1      46.959   5.703  21.358  0.00  0.00    +0.000 OA
ENDBRANCH  11  18
BRANCH  15  19
ATOM     19  O   UNL     1      43.752   7.670  18.384  0.00  0.00    +0.000 OA
ATOM     20  C   UNL     1      44.083   7.279  17.087  0.00  0.00    +0.000 C 
ENDBRANCH  15  19
ENDBRANCH   1  14
BRANCH   3  21
ATOM     21  C   UNL     1      39.069   5.595  17.359  0.00  0.00    +0.000 C 
ATOM     22  O   UNL     1      39.164   6.061  16.181  0.00  0.00    +0.000 OA
ATOM     23  N   UNL     1      38.350   4.399  17.594  0.00  0.00    +0.000 NA
BRANCH  23  24
ATOM     24  C   UNL     1      37.734   3.735  16.457  0.00  0.00    +0.000 C 
BRANCH  24  25
ATOM     25  C   UNL     1      36.500   2.975  16.853  0.00  0.00    +0.000 C 
BRANCH  25  26
ATOM     26  C   UNL     1      35.924   2.320  15.617  0.00  0.00    +0.000 C 
BRANCH  26  27
ATOM     27  C   UNL     1      35.687   0.872  15.902  0.00  0.00    +0.000 A 
ATOM     28  C   UNL     1      34.840   0.533  16.925  0.00  0.00    +0.000 A 
ATOM     29  C   UNL     1      34.586  -0.783  17.229  0.00  0.00    +0.000 A 
ATOM     30  C   UNL     1      35.182  -1.806  16.506  0.00  0.00    +0.000 A 
ATOM     31  C   UNL     1      36.029  -1.433  15.482  0.00  0.00    +0.000 A 
ATOM     32  C   UNL     1      36.288  -0.120  15.171  0.00  0.00    +0.000 A 
ENDBRANCH  26  27
ENDBRANCH  25  26
ENDBRANCH  24  25
ENDBRANCH  23  24
ENDBRANCH   3  21
TORSDOF 8
ENDMDL
MODEL 10
REMARK VINA RESULT:      -6.7      3.283      9.290
REMARK  Name = 
REMARK  8 active torsions:
REMARK  status: ('A' for Active; 'I' for Inactive)
REMARK    1  A    between atoms: O_2  and  C_3
REMARK    2  A    between atoms: C_6  and  C_7
REMARK    3  A    between atoms: C_9  and  C_10
REMARK    4  A    between atoms: N_12  and  C_13
REMARK    5  A    between atoms: C_13  and  C_14
REMARK    6  A    between atoms: C_14  and  C_15
REMARK    7  A    between atoms: C_15  and  C_16
REMARK    8  A    between atoms: C_29  and  O_30
REMARK                            x       y       z     vdW  Elec       q    Type
REMARK                         _______ _______ _______ _____ _____    ______ ____
ROOT
ATOM      1  C   UNL     1      37.040  -2.412  15.132  0.00  0.00    +0.000 A 
ATOM      2  C   UNL     1      36.557  -1.174  15.520  0.00  0.00    +0.000 A 
ATOM      3  C   UNL     1      37.319  -0.035  15.364  0.00  0.00    +0.000 A 
ATOM      4  C   UNL     1      38.583  -0.103  14.815  0.00  0.00    +0.000 A 
ATOM      5  C   UNL     1      39.375   1.016  14.643  0.00  0.00    +0.000 A 
ATOM      6  C   UNL     1      40.647   0.930  14.088  0.00  0.00    +0.000 A 
ATOM      7  C   UNL     1      41.116  -0.311  13.704  0.00  0.00    +0.000 A 
ATOM      8  C   UNL     1      40.312  -1.417  13.883  0.00  0.00    +0.000 A 
ATOM      9  C   UNL     1      39.041  -1.337  14.437  0.00  0.00    +0.000 A 
ATOM     10  N   UNL     1      38.274  -2.441  14.600  0.00  0.00    +0.000 NA
ENDROOT
BRANCH   1  14
ATOM     11  C   UNL     1      34.723  -5.962  15.673  0.00  0.00    +0.000 A 
ATOM     12  C   UNL     1      34.219  -4.907  14.953  0.00  0.00    +0.000 A 
ATOM     13  C   UNL     1      34.965  -3.737  14.767  0.00  0.00    +0.000 A 
ATOM     14  C   UNL     1      36.228  -3.611  15.300  0.00  0.00    +0.000 A 
ATOM     15  C   UNL     1      36.723  -4.675  16.021  0.00  0.00    +0.000 A 
ATOM     16  C   UNL     1      35.985  -5.831  16.204  0.00  0.00    +0.000 A 
BRANCH  11  18
ATOM     17  C   UNL     1      34.434  -8.161  16.733  0.00  0.00    +0.000 C 
ATOM     18  O   UNL     1      34.014  -7.138  15.880  0.00  0.00    +0.000 OA
ENDBRANCH  11  18
BRANCH  15  19
ATOM     19  O   UNL     1      37.997  -4.556  16.562  0.00  0.00    +0.000 OA
ATOM     20  C   UNL     1      38.270  -4.341  17.914  0.00  0.00    +0.000 C 
ENDBRANCH  15  19
ENDBRANCH   1  14
BRANCH   3  21
ATOM     21  C   UNL     1      36.838   1.283  15.765  0.00  0.00    +0.000 C 
ATOM     22  O   UNL     1      36.779   1.531  17.009  0.00  0.00    +0.000 OA
ATOM     23  N   UNL     1      36.443   2.265  14.823  0.00  0.00    +0.000 NA
BRANCH  23  24
ATOM     24  C   UNL     1      35.977   3.546  15.327  0.00  0.00    +0.000 C 
BRANCH  24  25
ATOM     25  C   UNL     1      36.919   4.663  14.975  0.00  0.00    +0.000 C 
BRANCH  25  26
ATOM     26  C   UNL     1      38.337   4.148  15.095  0.00  0.00    +0.000 C 
BRANCH  26  27
ATOM     27  C   UNL     1      39.000   4.824  16.251  0.00  0.00    +0.000 A 
ATOM     28  C   UNL     1      38.479   4.644  17.506  0.00  0.00    +0.000 A 
ATOM     29  C   UNL     1      39.050   5.243  18.604  0.00  0.00    +0.000 A 
ATOM     30  C   UNL     1      40.173   6.046  18.470  0.00  0.00    +0.000 A 
ATOM     31  C   UNL     1      40.674   6.207  17.195  0.00  0.00    +0.000 A 
ATOM     32  C   UNL     1      40.109   5.613  16.092  0.00  0.00    +0.000 A 
ENDBRANCH  26  27
ENDBRANCH  25  26
ENDBRANCH  24  25
ENDBRANCH  23  24
ENDBRANCH   3  21
TORSDOF 8
ENDMDL
