MODEL 1
REMARK VINA RESULT:      -7.5      0.000      0.000
REMARK  Name = 
REMARK  0 active torsions:
REMARK  status: ('A' for Active; 'I' for Inactive)
REMARK                            x       y       z     vdW  Elec       q    Type
REMARK                         _______ _______ _______ _____ _____    ______ ____
ROOT
ATOM      1  C   UNL     1      18.951  11.506  38.188  0.00  0.00    +0.000 C 
ATOM      2  C   UNL     1      19.163  10.087  37.921  0.00  0.00    +0.000 C 
ATOM      3  C   UNL     1      19.675   9.464  39.204  0.00  0.00    +0.000 C 
ATOM      4  C   UNL     1      18.533   9.853  40.155  0.00  0.00    +0.000 C 
ATOM      5  C   UNL     1      17.301  10.019  39.318  0.00  0.00    +0.000 C 
ATOM      6  C   UNL     1      17.756   9.303  37.940  0.00  0.00    +0.000 C 
ATOM      7  C   UNL     1      16.846  10.126  36.814  0.00  0.00    +0.000 C 
ATOM      8  C   UNL     1      16.484  11.502  37.527  0.00  0.00    +0.000 C 
ATOM      9  C   UNL     1      15.942  12.334  36.407  0.00  0.00    +0.000 C 
ATOM     10  C   UNL     1      16.078  11.754  35.063  0.00  0.00    +0.000 A 
ATOM     11  C   UNL     1      15.103  11.972  34.114  0.00  0.00    +0.000 A 
ATOM     12  C   UNL     1      15.274  11.399  32.844  0.00  0.00    +0.000 A 
ATOM     13  O   UNL     1      14.329  11.585  31.854  0.00  0.00    +0.000 OA
ATOM     14  C   UNL     1      16.387  10.636  32.547  0.00  0.00    +0.000 A 
ATOM     15  C   UNL     1      17.370  10.417  33.509  0.00  0.00    +0.000 A 
ATOM     16  C   UNL     1      17.163  10.971  34.672  0.00  0.00    +0.000 A 
ATOM     17  C   UNL     1      18.104  10.888  35.931  0.00  0.00    +0.000 C 
ATOM     18  C   UNL     1      18.825   9.471  35.604  0.00  0.00    +0.000 C 
ATOM     19  C   UNL     1      19.902   9.681  36.698  0.00  0.00    +0.000 C 
ENDROOT
TORSDOF 0
ENDMDL
MODEL 2
REMARK VINA RESULT:      -7.4     28.070     30.089
REMARK  Name = 
REMARK  0 active torsions:
REMARK  status: ('A' for Active; 'I' for Inactive)
REMARK                            x       y       z     vdW  Elec       q    Type
REMARK                         _______ _______ _______ _____ _____    ______ ____
ROOT
ATOM      1  C   UNL     1      32.663  22.319  10.551  0.00  0.00    +0.000 C 
ATOM      2  C   UNL     1      32.286  20.976  10.121  0.00  0.00    +0.000 C 
ATOM      3  C   UNL     1      33.570  20.203   9.900  0.00  0.00    +0.000 C 
ATOM      4  C   UNL     1      34.210  20.358  11.287  0.00  0.00    +0.000 C 
ATOM      5  C   UNL     1      33.093  20.562  12.266  0.00  0.00    +0.000 C 
ATOM      6  C   UNL     1      31.814  20.099  11.387  0.00  0.00    +0.000 C 
ATOM      7  C   UNL     1      30.596  21.018  12.054  0.00  0.00    +0.000 C 
ATOM      8  C   UNL     1      31.350  22.239  12.742  0.00  0.00    +0.000 C 
ATOM      9  C   UNL     1      30.240  23.192  13.058  0.00  0.00    +0.000 C 
ATOM     10  C   UNL     1      28.924  22.835  12.510  0.00  0.00    +0.000 A 
ATOM     11  C   UNL     1      27.777  23.125  13.218  0.00  0.00    +0.000 A 
ATOM     12  C   UNL     1      26.542  22.767  12.656  0.00  0.00    +0.000 A 
ATOM     13  O   UNL     1      25.362  23.033  13.322  0.00  0.00    +0.000 OA
ATOM     14  C   UNL     1      26.470  22.140  11.427  0.00  0.00    +0.000 A 
ATOM     15  C   UNL     1      27.630  21.847  10.714  0.00  0.00    +0.000 A 
ATOM     16  C   UNL     1      28.751  22.200  11.279  0.00  0.00    +0.000 A 
ATOM     17  C   UNL     1      30.200  21.993  10.701  0.00  0.00    +0.000 C 
ATOM     18  C   UNL     1      29.907  20.699   9.767  0.00  0.00    +0.000 C 
ATOM     19  C   UNL     1      31.273  20.816   9.046  0.00  0.00    +0.000 C 
ENDROOT
TORSDOF 0
ENDMDL
MODEL 3
REMARK VINA RESULT:      -7.2     18.815     20.335
REMARK  Name = 
REMARK  0 active torsions:
REMARK  status: ('A' for Active; 'I' for Inactive)
REMARK                            x       y       z     vdW  Elec       q    Type
REMARK                         _______ _______ _______ _____ _____    ______ ____
ROOT
ATOM      1  C   UNL     1      26.897  23.744  22.951  0.00  0.00    +0.000 C 
ATOM      2  C   UNL     1      28.331  23.886  23.184  0.00  0.00    +0.000 C 
ATOM      3  C   UNL     1      28.929  24.489  21.930  0.00  0.00    +0.000 C 
ATOM      4  C   UNL     1      28.087  25.770  21.832  0.00  0.00    +0.000 C 
ATOM      5  C   UNL     1      27.637  26.109  23.220  0.00  0.00    +0.000 C 
ATOM      6  C   UNL     1      28.618  25.175  24.107  0.00  0.00    +0.000 C 
ATOM      7  C   UNL     1      27.686  24.892  25.457  0.00  0.00    +0.000 C 
ATOM      8  C   UNL     1      26.192  25.143  24.969  0.00  0.00    +0.000 C 
ATOM      9  C   UNL     1      25.368  24.593  26.091  0.00  0.00    +0.000 C 
ATOM     10  C   UNL     1      26.116  23.869  27.129  0.00  0.00    +0.000 A 
ATOM     11  C   UNL     1      25.712  23.934  28.445  0.00  0.00    +0.000 A 
ATOM     12  C   UNL     1      26.454  23.227  29.403  0.00  0.00    +0.000 A 
ATOM     13  O   UNL     1      26.095  23.257  30.736  0.00  0.00    +0.000 OA
ATOM     14  C   UNL     1      27.562  22.483  29.044  0.00  0.00    +0.000 A 
ATOM     15  C   UNL     1      27.968  22.419  27.713  0.00  0.00    +0.000 A 
ATOM     16  C   UNL     1      27.245  23.094  26.863  0.00  0.00    +0.000 A 
ATOM     17  C   UNL     1      27.474  23.197  25.309  0.00  0.00    +0.000 C 
ATOM     18  C   UNL     1      29.075  22.931  25.281  0.00  0.00    +0.000 C 
ATOM     19  C   UNL     1      29.092  22.739  23.744  0.00  0.00    +0.000 C 
ENDROOT
TORSDOF 0
ENDMDL
MODEL 4
REMARK VINA RESULT:      -6.9     19.861     20.861
REMARK  Name = 
REMARK  0 active torsions:
REMARK  status: ('A' for Active; 'I' for Inactive)
REMARK                            x       y       z     vdW  Elec       q    Type
REMARK                         _______ _______ _______ _____ _____    ______ ____
ROOT
ATOM      1  C   UNL     1      30.016  24.393  27.571  0.00  0.00    +0.000 C 
ATOM      2  C   UNL     1      31.189  24.112  26.750  0.00  0.00    +0.000 C 
ATOM      3  C   UNL     1      32.308  23.720  27.693  0.00  0.00    +0.000 C 
ATOM      4  C   UNL     1      31.639  22.541  28.415  0.00  0.00    +0.000 C 
ATOM      5  C   UNL     1      30.614  21.976  27.478  0.00  0.00    +0.000 C 
ATOM      6  C   UNL     1      31.059  22.654  26.077  0.00  0.00    +0.000 C 
ATOM      7  C   UNL     1      29.607  22.737  25.266  0.00  0.00    +0.000 C 
ATOM      8  C   UNL     1      28.507  22.686  26.415  0.00  0.00    +0.000 C 
ATOM      9  C   UNL     1      27.248  23.067  25.700  0.00  0.00    +0.000 C 
ATOM     10  C   UNL     1      27.422  23.527  24.314  0.00  0.00    +0.000 A 
ATOM     11  C   UNL     1      26.465  23.239  23.365  0.00  0.00    +0.000 A 
ATOM     12  C   UNL     1      26.671  23.699  22.055  0.00  0.00    +0.000 A 
ATOM     13  O   UNL     1      25.745  23.439  21.064  0.00  0.00    +0.000 OA
ATOM     14  C   UNL     1      27.800  24.420  21.719  0.00  0.00    +0.000 A 
ATOM     15  C   UNL     1      28.766  24.709  22.680  0.00  0.00    +0.000 A 
ATOM     16  C   UNL     1      28.527  24.260  23.881  0.00  0.00    +0.000 A 
ATOM     17  C   UNL     1      29.441  24.440  25.150  0.00  0.00    +0.000 C 
ATOM     18  C   UNL     1      30.871  24.597  24.399  0.00  0.00    +0.000 C 
ATOM     19  C   UNL     1      31.581  25.076  25.690  0.00  0.00    +0.000 C 
ENDROOT
TORSDOF 0
ENDMDL
MODEL 5
REMARK VINA RESULT:      -6.8     20.306     22.389
REMARK  Name = 
REMARK  0 active torsions:
REMARK  status: ('A' for Active; 'I' for Inactive)
REMARK                            x       y       z     vdW  Elec       q    Type
REMARK                         _______ _______ _______ _____ _____    ______ ____
ROOT
ATOM      1  C   UNL     1      28.559   5.238  15.677  0.00  0.00    +0.000 C 
ATOM      2  C   UNL     1      28.390   6.140  16.812  0.00  0.00    +0.000 C 
ATOM      3  C   UNL     1      29.333   7.306  16.598  0.00  0.00    +0.000 C 
ATOM      4  C   UNL     1      28.847   7.784  15.222  0.00  0.00    +0.000 C 
ATOM      5  C   UNL     1      27.412   7.372  15.093  0.00  0.00    +0.000 C 
ATOM      6  C   UNL     1      27.048   7.014  16.630  0.00  0.00    +0.000 C 
ATOM      7  C   UNL     1      25.865   5.859  16.436  0.00  0.00    +0.000 C 
ATOM      8  C   UNL     1      26.105   5.286  14.971  0.00  0.00    +0.000 C 
ATOM      9  C   UNL     1      25.245   4.061  14.938  0.00  0.00    +0.000 C 
ATOM     10  C   UNL     1      24.641   3.676  16.221  0.00  0.00    +0.000 A 
ATOM     11  C   UNL     1      23.386   3.109  16.253  0.00  0.00    +0.000 A 
ATOM     12  C   UNL     1      22.848   2.756  17.501  0.00  0.00    +0.000 A 
ATOM     13  O   UNL     1      21.595   2.184  17.592  0.00  0.00    +0.000 OA
ATOM     14  C   UNL     1      23.554   2.969  18.669  0.00  0.00    +0.000 A 
ATOM     15  C   UNL     1      24.822   3.543  18.634  0.00  0.00    +0.000 A 
ATOM     16  C   UNL     1      25.276   3.852  17.451  0.00  0.00    +0.000 A 
ATOM     17  C   UNL     1      26.668   4.508  17.121  0.00  0.00    +0.000 C 
ATOM     18  C   UNL     1      26.913   5.280  18.527  0.00  0.00    +0.000 C 
ATOM     19  C   UNL     1      28.394   5.584  18.189  0.00  0.00    +0.000 C 
ENDROOT
TORSDOF 0
ENDMDL
MODEL 6
REMARK VINA RESULT:      -6.8     20.215     21.533
REMARK  Name = 
REMARK  0 active torsions:
REMARK  status: ('A' for Active; 'I' for Inactive)
REMARK                            x       y       z     vdW  Elec       q    Type
REMARK                         _______ _______ _______ _____ _____    ______ ____
ROOT
ATOM      1  C   UNL     1      25.949  23.093  25.398  0.00  0.00    +0.000 C 
ATOM      2  C   UNL     1      25.903  24.415  26.014  0.00  0.00    +0.000 C 
ATOM      3  C   UNL     1      25.559  24.212  27.476  0.00  0.00    +0.000 C 
ATOM      4  C   UNL     1      26.700  23.270  27.884  0.00  0.00    +0.000 C 
ATOM      5  C   UNL     1      27.845  23.536  26.954  0.00  0.00    +0.000 C 
ATOM      6  C   UNL     1      27.397  24.947  26.298  0.00  0.00    +0.000 C 
ATOM      7  C   UNL     1      28.120  24.868  24.800  0.00  0.00    +0.000 C 
ATOM      8  C   UNL     1      28.350  23.314  24.551  0.00  0.00    +0.000 C 
ATOM      9  C   UNL     1      28.708  23.249  23.099  0.00  0.00    +0.000 C 
ATOM     10  C   UNL     1      28.561  24.508  22.354  0.00  0.00    +0.000 A 
ATOM     11  C   UNL     1      29.437  24.815  21.336  0.00  0.00    +0.000 A 
ATOM     12  C   UNL     1      29.259  26.028  20.651  0.00  0.00    +0.000 A 
ATOM     13  O   UNL     1      30.107  26.386  19.622  0.00  0.00    +0.000 OA
ATOM     14  C   UNL     1      28.236  26.894  20.984  0.00  0.00    +0.000 A 
ATOM     15  C   UNL     1      27.353  26.581  22.015  0.00  0.00    +0.000 A 
ATOM     16  C   UNL     1      27.561  25.444  22.618  0.00  0.00    +0.000 A 
ATOM     17  C   UNL     1      26.722  24.845  23.808  0.00  0.00    +0.000 C 
ATOM     18  C   UNL     1      26.168  26.234  24.439  0.00  0.00    +0.000 C 
ATOM     19  C   UNL     1      25.146  25.503  25.344  0.00  0.00    +0.000 C 
ENDROOT
TORSDOF 0
ENDMDL
MODEL 7
REMARK VINA RESULT:      -6.8     19.216     20.192
REMARK  Name = 
REMARK  0 active torsions:
REMARK  status: ('A' for Active; 'I' for Inactive)
REMARK                            x       y       z     vdW  Elec       q    Type
REMARK                         _______ _______ _______ _____ _____    ______ ____
ROOT
ATOM      1  C   UNL     1      31.251  21.937  27.948  0.00  0.00    +0.000 C 
ATOM      2  C   UNL     1      30.493  22.925  28.708  0.00  0.00    +0.000 C 
ATOM      3  C   UNL     1      31.346  23.324  29.894  0.00  0.00    +0.000 C 
ATOM      4  C   UNL     1      32.608  23.798  29.160  0.00  0.00    +0.000 C 
ATOM      5  C   UNL     1      32.181  24.244  27.794  0.00  0.00    +0.000 C 
ATOM      6  C   UNL     1      30.578  24.364  27.988  0.00  0.00    +0.000 C 
ATOM      7  C   UNL     1      30.028  24.052  26.448  0.00  0.00    +0.000 C 
ATOM      8  C   UNL     1      31.215  23.249  25.756  0.00  0.00    +0.000 C 
ATOM      9  C   UNL     1      30.587  22.722  24.504  0.00  0.00    +0.000 C 
ATOM     10  C   UNL     1      29.135  22.919  24.392  0.00  0.00    +0.000 A 
ATOM     11  C   UNL     1      28.562  23.159  23.162  0.00  0.00    +0.000 A 
ATOM     12  C   UNL     1      27.171  23.341  23.102  0.00  0.00    +0.000 A 
ATOM     13  O   UNL     1      26.544  23.585  21.896  0.00  0.00    +0.000 OA
ATOM     14  C   UNL     1      26.392  23.281  24.241  0.00  0.00    +0.000 A 
ATOM     15  C   UNL     1      26.974  23.039  25.483  0.00  0.00    +0.000 A 
ATOM     16  C   UNL     1      28.268  22.877  25.485  0.00  0.00    +0.000 A 
ATOM     17  C   UNL     1      29.178  22.592  26.738  0.00  0.00    +0.000 C 
ATOM     18  C   UNL     1      28.247  23.280  27.876  0.00  0.00    +0.000 C 
ATOM     19  C   UNL     1      29.069  22.655  29.031  0.00  0.00    +0.000 C 
ENDROOT
TORSDOF 0
ENDMDL
MODEL 8
REMARK VINA RESULT:      -6.7     18.642     20.191
REMARK  Name = 
REMARK  0 active torsions:
REMARK  status: ('A' for Active; 'I' for Inactive)
REMARK                            x       y       z     vdW  Elec       q    Type
REMARK                         _______ _______ _______ _____ _____    ______ ____
ROOT
ATOM      1  C   UNL     1      29.230  25.022  24.311  0.00  0.00    +0.000 C 
ATOM      2  C   UNL     1      27.865  25.203  23.826  0.00  0.00    +0.000 C 
ATOM      3  C   UNL     1      27.944  25.350  22.321  0.00  0.00    +0.000 C 
ATOM      4  C   UNL     1      28.663  24.039  21.969  0.00  0.00    +0.000 C 
ATOM      5  C   UNL     1      28.347  23.058  23.057  0.00  0.00    +0.000 C 
ATOM      6  C   UNL     1      27.099  23.787  23.786  0.00  0.00    +0.000 C 
ATOM      7  C   UNL     1      27.247  23.229  25.348  0.00  0.00    +0.000 C 
ATOM      8  C   UNL     1      28.772  22.792  25.470  0.00  0.00    +0.000 C 
ATOM      9  C   UNL     1      28.953  22.589  26.942  0.00  0.00    +0.000 C 
ATOM     10  C   UNL     1      27.822  23.008  27.782  0.00  0.00    +0.000 A 
ATOM     11  C   UNL     1      27.514  22.307  28.928  0.00  0.00    +0.000 A 
ATOM     12  C   UNL     1      26.426  22.743  29.701  0.00  0.00    +0.000 A 
ATOM     13  O   UNL     1      26.073  22.079  30.858  0.00  0.00    +0.000 OA
ATOM     14  C   UNL     1      25.680  23.845  29.328  0.00  0.00    +0.000 A 
ATOM     15  C   UNL     1      25.993  24.551  28.169  0.00  0.00    +0.000 A 
ATOM     16  C   UNL     1      27.012  24.105  27.488  0.00  0.00    +0.000 A 
ATOM     17  C   UNL     1      27.582  24.707  26.149  0.00  0.00    +0.000 C 
ATOM     18  C   UNL     1      26.221  25.396  25.593  0.00  0.00    +0.000 C 
ATOM     19  C   UNL     1      26.980  26.188  24.499  0.00  0.00    +0.000 C 
ENDROOT
TORSDOF 0
ENDMDL
MODEL 9
REMARK VINA RESULT:      -6.6     18.341     19.212
REMARK  Name = 
REMARK  0 active torsions:
REMARK  status: ('A' for Active; 'I' for Inactive)
REMARK                            x       y       z     vdW  Elec       q    Type
REMARK                         _______ _______ _______ _____ _____    ______ ____
ROOT
ATOM      1  C   UNL     1      28.457  24.516  28.726  0.00  0.00    +0.000 C 
ATOM      2  C   UNL     1      29.321  23.358  28.520  0.00  0.00    +0.000 C 
ATOM      3  C   UNL     1      29.731  22.859  29.890  0.00  0.00    +0.000 C 
ATOM      4  C   UNL     1      28.345  22.620  30.506  0.00  0.00    +0.000 C 
ATOM      5  C   UNL     1      27.400  22.354  29.373  0.00  0.00    +0.000 C 
ATOM      6  C   UNL     1      28.434  22.061  28.162  0.00  0.00    +0.000 C 
ATOM      7  C   UNL     1      27.552  22.556  26.839  0.00  0.00    +0.000 C 
ATOM      8  C   UNL     1      26.471  23.560  27.435  0.00  0.00    +0.000 C 
ATOM      9  C   UNL     1      25.904  24.215  26.214  0.00  0.00    +0.000 C 
ATOM     10  C   UNL     1      26.592  23.908  24.953  0.00  0.00    +0.000 A 
ATOM     11  C   UNL     1      25.876  23.810  23.779  0.00  0.00    +0.000 A 
ATOM     12  C   UNL     1      26.574  23.516  22.598  0.00  0.00    +0.000 A 
ATOM     13  O   UNL     1      25.907  23.405  21.394  0.00  0.00    +0.000 OA
ATOM     14  C   UNL     1      27.943  23.328  22.604  0.00  0.00    +0.000 A 
ATOM     15  C   UNL     1      28.664  23.427  23.791  0.00  0.00    +0.000 A 
ATOM     16  C   UNL     1      27.969  23.703  24.860  0.00  0.00    +0.000 A 
ATOM     17  C   UNL     1      28.523  23.872  26.323  0.00  0.00    +0.000 C 
ATOM     18  C   UNL     1      29.843  22.936  26.193  0.00  0.00    +0.000 C 
ATOM     19  C   UNL     1      30.428  23.445  27.534  0.00  0.00    +0.000 C 
ENDROOT
TORSDOF 0
ENDMDL
MODEL 10
REMARK VINA RESULT:      -6.5     18.900     19.987
REMARK  Name = 
REMARK  0 active torsions:
REMARK  status: ('A' for Active; 'I' for Inactive)
REMARK                            x       y       z     vdW  Elec       q    Type
REMARK                         _______ _______ _______ _____ _____    ______ ____
ROOT
ATOM      1  C   UNL     1      26.563  22.865  28.205  0.00  0.00    +0.000 C 
ATOM      2  C   UNL     1      26.098  24.248  28.174  0.00  0.00    +0.000 C 
ATOM      3  C   UNL     1      25.800  24.649  29.605  0.00  0.00    +0.000 C 
ATOM      4  C   UNL     1      27.167  24.365  30.244  0.00  0.00    +0.000 C 
ATOM      5  C   UNL     1      28.194  24.489  29.160  0.00  0.00    +0.000 C 
ATOM      6  C   UNL     1      27.348  25.250  28.009  0.00  0.00    +0.000 C 
ATOM      7  C   UNL     1      28.094  24.703  26.625  0.00  0.00    +0.000 C 
ATOM      8  C   UNL     1      28.797  23.344  27.062  0.00  0.00    +0.000 C 
ATOM      9  C   UNL     1      29.190  22.727  25.756  0.00  0.00    +0.000 C 
ATOM     10  C   UNL     1      28.680  23.405  24.556  0.00  0.00    +0.000 A 
ATOM     11  C   UNL     1      29.441  23.446  23.408  0.00  0.00    +0.000 A 
ATOM     12  C   UNL     1      28.914  24.103  22.285  0.00  0.00    +0.000 A 
ATOM     13  O   UNL     1      29.633  24.174  21.109  0.00  0.00    +0.000 OA
ATOM     14  C   UNL     1      27.666  24.695  22.324  0.00  0.00    +0.000 A 
ATOM     15  C   UNL     1      26.900  24.653  23.485  0.00  0.00    +0.000 A 
ATOM     16  C   UNL     1      27.434  24.031  24.499  0.00  0.00    +0.000 A 
ATOM     17  C   UNL     1      26.794  23.833  25.924  0.00  0.00    +0.000 C 
ATOM     18  C   UNL     1      25.825  25.135  25.938  0.00  0.00    +0.000 C 
ATOM     19  C   UNL     1      25.057  24.643  27.191  0.00  0.00    +0.000 C 
ENDROOT
TORSDOF 0
ENDMDL
