MODEL 1
REMARK VINA RESULT:      -8.3      0.000      0.000
REMARK  Name = 
REMARK  7 active torsions:
REMARK  status: ('A' for Active; 'I' for Inactive)
REMARK    1  A    between atoms: C_2  and  C_3
REMARK    2  A    between atoms: C_3  and  C_4
REMARK    3  A    between atoms: C_4  and  N_5
REMARK    4  A    between atoms: C_6  and  C_8
REMARK    5  A    between atoms: C_9  and  C_10
REMARK    6  A    between atoms: C_18  and  C_19
REMARK    7  A    between atoms: C_22  and  C_23
REMARK                            x       y       z     vdW  Elec       q    Type
REMARK                         _______ _______ _______ _____ _____    ______ ____
ROOT
ATOM      1  C   UNL     1      37.069   2.024  15.010  0.00  0.00    +0.000 C 
ATOM      2  C   UNL     1      36.190   1.872  15.947  0.00  0.00    +0.000 C 
ATOM      3  N   UNL     1      35.570   3.155  16.132  0.00  0.00    +0.000 NA
ATOM      4  O   UNL     1      35.690   3.858  15.025  0.00  0.00    +0.000 OA
ATOM      5  C   UNL     1      37.052   3.519  14.585  0.00  0.00    +0.000 C 
ENDROOT
BRANCH   2   6
ATOM      6  C   UNL     1      35.821   0.662  16.723  0.00  0.00    +0.000 A 
ATOM      7  C   UNL     1      35.300  -0.492  16.214  0.00  0.00    +0.000 A 
ATOM      8  C   UNL     1      34.966  -1.579  17.012  0.00  0.00    +0.000 A 
ATOM      9  C   UNL     1      35.161  -1.506  18.373  0.00  0.00    +0.000 A 
ATOM     10  C   UNL     1      35.682  -0.360  18.924  0.00  0.00    +0.000 A 
ATOM     11  C   UNL     1      35.996   0.688  18.083  0.00  0.00    +0.000 A 
ENDBRANCH   2   6
BRANCH   5  12
ATOM     12  C   UNL     1      37.958   4.165  15.684  0.00  0.00    +0.000 A 
ATOM     13  C   UNL     1      39.088   4.762  15.188  0.00  0.00    +0.000 A 
ATOM     14  C   UNL     1      40.011   5.403  16.037  0.00  0.00    +0.000 A 
ATOM     15  C   UNL     1      39.784   5.439  17.398  0.00  0.00    +0.000 A 
ATOM     16  C   UNL     1      38.649   4.835  17.861  0.00  0.00    +0.000 A 
ATOM     17  C   UNL     1      37.752   4.206  16.991  0.00  0.00    +0.000 A 
BRANCH  15  18
ATOM     18  C   UNL     1      40.748   6.109  18.293  0.00  0.00    +0.000 A 
ATOM     19  C   UNL     1      40.456   6.346  19.621  0.00  0.00    +0.000 A 
ATOM     20  C   UNL     1      41.367   6.976  20.473  0.00  0.00    +0.000 A 
ATOM     21  C   UNL     1      42.592   7.379  19.998  0.00  0.00    +0.000 A 
ATOM     22  C   UNL     1      42.915   7.154  18.667  0.00  0.00    +0.000 A 
ATOM     23  C   UNL     1      41.986   6.529  17.863  0.00  0.00    +0.000 A 
ENDBRANCH  15  18
ENDBRANCH   5  12
BRANCH   1  25
ATOM     24  N   UNL     1      39.055   0.538  15.121  0.00  0.00    +0.000 NA
ATOM     25  C   UNL     1      37.955   1.030  14.443  0.00  0.00    +0.000 C 
ATOM     26  O   UNL     1      37.708   0.607  13.294  0.00  0.00    +0.000 OA
BRANCH  24  27
ATOM     27  C   UNL     1      39.947  -0.420  14.629  0.00  0.00    +0.000 C 
BRANCH  27  28
ATOM     28  C   UNL     1      39.979  -1.778  15.157  0.00  0.00    +0.000 C 
BRANCH  28  30
ATOM     29  C   UNL     1      38.658  -2.380  17.104  0.00  0.00    +0.000 C 
ATOM     30  C   UNL     1      38.732  -2.441  15.583  0.00  0.00    +0.000 C 
ENDBRANCH  28  30
ENDBRANCH  27  28
ENDBRANCH  24  27
ENDBRANCH   1  25
TORSDOF 7
ENDMDL
MODEL 2
REMARK VINA RESULT:      -8.2      0.349      1.287
REMARK  Name = 
REMARK  7 active torsions:
REMARK  status: ('A' for Active; 'I' for Inactive)
REMARK    1  A    between atoms: C_2  and  C_3
REMARK    2  A    between atoms: C_3  and  C_4
REMARK    3  A    between atoms: C_4  and  N_5
REMARK    4  A    between atoms: C_6  and  C_8
REMARK    5  A    between atoms: C_9  and  C_10
REMARK    6  A    between atoms: C_18  and  C_19
REMARK    7  A    between atoms: C_22  and  C_23
REMARK                            x       y       z     vdW  Elec       q    Type
REMARK                         _______ _______ _______ _____ _____    ______ ____
ROOT
ATOM      1  C   UNL     1      37.118   1.999  15.095  0.00  0.00    +0.000 C 
ATOM      2  C   UNL     1      36.278   1.803  16.059  0.00  0.00    +0.000 C 
ATOM      3  N   UNL     1      35.623   3.062  16.288  0.00  0.00    +0.000 NA
ATOM      4  O   UNL     1      35.682   3.786  15.190  0.00  0.00    +0.000 OA
ATOM      5  C   UNL     1      37.039   3.500  14.698  0.00  0.00    +0.000 C 
ENDROOT
BRANCH   2   6
ATOM      6  C   UNL     1      35.975   0.568  16.825  0.00  0.00    +0.000 A 
ATOM      7  C   UNL     1      36.291   0.334  18.132  0.00  0.00    +0.000 A 
ATOM      8  C   UNL     1      35.984  -0.858  18.776  0.00  0.00    +0.000 A 
ATOM      9  C   UNL     1      35.334  -1.854  18.082  0.00  0.00    +0.000 A 
ATOM     10  C   UNL     1      34.999  -1.657  16.764  0.00  0.00    +0.000 A 
ATOM     11  C   UNL     1      35.329  -0.453  16.176  0.00  0.00    +0.000 A 
ENDBRANCH   2   6
BRANCH   5  12
ATOM     12  C   UNL     1      37.961   4.156  15.777  0.00  0.00    +0.000 A 
ATOM     13  C   UNL     1      39.079   4.756  15.258  0.00  0.00    +0.000 A 
ATOM     14  C   UNL     1      40.013   5.406  16.086  0.00  0.00    +0.000 A 
ATOM     15  C   UNL     1      39.811   5.449  17.451  0.00  0.00    +0.000 A 
ATOM     16  C   UNL     1      38.687   4.842  17.937  0.00  0.00    +0.000 A 
ATOM     17  C   UNL     1      37.778   4.204  17.088  0.00  0.00    +0.000 A 
BRANCH  15  18
ATOM     18  C   UNL     1      40.787   6.128  18.325  0.00  0.00    +0.000 A 
ATOM     19  C   UNL     1      42.019   6.534  17.854  0.00  0.00    +0.000 A 
ATOM     20  C   UNL     1      42.945   7.181  18.677  0.00  0.00    +0.000 A 
ATOM     21  C   UNL     1      42.642   7.431  19.994  0.00  0.00    +0.000 A 
ATOM     22  C   UNL     1      41.410   7.035  20.497  0.00  0.00    +0.000 A 
ATOM     23  C   UNL     1      40.528   6.399  19.649  0.00  0.00    +0.000 A 
ENDBRANCH  15  18
ENDBRANCH   5  12
BRANCH   1  25
ATOM     24  N   UNL     1      39.226   0.689  15.045  0.00  0.00    +0.000 NA
ATOM     25  C   UNL     1      38.016   1.045  14.480  0.00  0.00    +0.000 C 
ATOM     26  O   UNL     1      37.674   0.527  13.396  0.00  0.00    +0.000 OA
BRANCH  24  27
ATOM     27  C   UNL     1      40.136  -0.225  14.502  0.00  0.00    +0.000 C 
BRANCH  27  28
ATOM     28  C   UNL     1      40.241  -1.588  15.004  0.00  0.00    +0.000 C 
BRANCH  28  30
ATOM     29  C   UNL     1      38.153  -2.801  15.262  0.00  0.00    +0.000 C 
ATOM     30  C   UNL     1      39.281  -2.092  16.003  0.00  0.00    +0.000 C 
ENDBRANCH  28  30
ENDBRANCH  27  28
ENDBRANCH  24  27
ENDBRANCH   1  25
TORSDOF 7
ENDMDL
MODEL 3
REMARK VINA RESULT:      -8.2      1.291      1.609
REMARK  Name = 
REMARK  7 active torsions:
REMARK  status: ('A' for Active; 'I' for Inactive)
REMARK    1  A    between atoms: C_2  and  C_3
REMARK    2  A    between atoms: C_3  and  C_4
REMARK    3  A    between atoms: C_4  and  N_5
REMARK    4  A    between atoms: C_6  and  C_8
REMARK    5  A    between atoms: C_9  and  C_10
REMARK    6  A    between atoms: C_18  and  C_19
REMARK    7  A    between atoms: C_22  and  C_23
REMARK                            x       y       z     vdW  Elec       q    Type
REMARK                         _______ _______ _______ _____ _____    ______ ____
ROOT
ATOM      1  C   UNL     1      36.941   1.810  14.361  0.00  0.00    +0.000 C 
ATOM      2  C   UNL     1      35.939   1.461  15.101  0.00  0.00    +0.000 C 
ATOM      3  N   UNL     1      35.082   2.612  15.192  0.00  0.00    +0.000 NA
ATOM      4  O   UNL     1      35.289   3.389  14.150  0.00  0.00    +0.000 OA
ATOM      5  C   UNL     1      36.748   3.305  13.981  0.00  0.00    +0.000 C 
ENDROOT
BRANCH   2   6
ATOM      6  C   UNL     1      35.641   0.162  15.756  0.00  0.00    +0.000 A 
ATOM      7  C   UNL     1      35.772  -1.072  15.190  0.00  0.00    +0.000 A 
ATOM      8  C   UNL     1      35.458  -2.245  15.867  0.00  0.00    +0.000 A 
ATOM      9  C   UNL     1      34.996  -2.175  17.163  0.00  0.00    +0.000 A 
ATOM     10  C   UNL     1      34.851  -0.949  17.767  0.00  0.00    +0.000 A 
ATOM     11  C   UNL     1      35.178   0.181  17.047  0.00  0.00    +0.000 A 
ENDBRANCH   2   6
BRANCH   5  12
ATOM     12  C   UNL     1      37.302   4.023  15.254  0.00  0.00    +0.000 A 
ATOM     13  C   UNL     1      37.420   5.382  15.115  0.00  0.00    +0.000 A 
ATOM     14  C   UNL     1      37.892   6.189  16.168  0.00  0.00    +0.000 A 
ATOM     15  C   UNL     1      38.245   5.612  17.371  0.00  0.00    +0.000 A 
ATOM     16  C   UNL     1      38.116   4.256  17.478  0.00  0.00    +0.000 A 
ATOM     17  C   UNL     1      37.644   3.482  16.413  0.00  0.00    +0.000 A 
BRANCH  15  18
ATOM     18  C   UNL     1      38.741   6.452  18.479  0.00  0.00    +0.000 A 
ATOM     19  C   UNL     1      38.098   7.616  18.848  0.00  0.00    +0.000 A 
ATOM     20  C   UNL     1      38.562   8.411  19.899  0.00  0.00    +0.000 A 
ATOM     21  C   UNL     1      39.687   8.045  20.598  0.00  0.00    +0.000 A 
ATOM     22  C   UNL     1      40.356   6.880  20.251  0.00  0.00    +0.000 A 
ATOM     23  C   UNL     1      39.863   6.125  19.207  0.00  0.00    +0.000 A 
ENDBRANCH  15  18
ENDBRANCH   5  12
BRANCH   1  25
ATOM     24  N   UNL     1      39.091   0.659  14.827  0.00  0.00    +0.000 NA
ATOM     25  C   UNL     1      38.077   1.010  13.955  0.00  0.00    +0.000 C 
ATOM     26  O   UNL     1      38.134   0.627  12.768  0.00  0.00    +0.000 OA
BRANCH  24  27
ATOM     27  C   UNL     1      40.212  -0.109  14.497  0.00  0.00    +0.000 C 
BRANCH  27  28
ATOM     28  C   UNL     1      40.396  -1.457  15.020  0.00  0.00    +0.000 C 
BRANCH  28  30
ATOM     29  C   UNL     1      39.000  -2.531  16.693  0.00  0.00    +0.000 C 
ATOM     30  C   UNL     1      39.238  -2.352  15.197  0.00  0.00    +0.000 C 
ENDBRANCH  28  30
ENDBRANCH  27  28
ENDBRANCH  24  27
ENDBRANCH   1  25
TORSDOF 7
ENDMDL
MODEL 4
REMARK VINA RESULT:      -7.7      1.771      2.493
REMARK  Name = 
REMARK  7 active torsions:
REMARK  status: ('A' for Active; 'I' for Inactive)
REMARK    1  A    between atoms: C_2  and  C_3
REMARK    2  A    between atoms: C_3  and  C_4
REMARK    3  A    between atoms: C_4  and  N_5
REMARK    4  A    between atoms: C_6  and  C_8
REMARK    5  A    between atoms: C_9  and  C_10
REMARK    6  A    between atoms: C_18  and  C_19
REMARK    7  A    between atoms: C_22  and  C_23
REMARK                            x       y       z     vdW  Elec       q    Type
REMARK                         _______ _______ _______ _____ _____    ______ ____
ROOT
ATOM      1  C   UNL     1      37.143   0.978  14.058  0.00  0.00    +0.000 C 
ATOM      2  C   UNL     1      36.770   0.222  15.039  0.00  0.00    +0.000 C 
ATOM      3  N   UNL     1      35.721   0.930  15.720  0.00  0.00    +0.000 NA
ATOM      4  O   UNL     1      35.156   1.776  14.885  0.00  0.00    +0.000 OA
ATOM      5  C   UNL     1      36.311   2.289  14.132  0.00  0.00    +0.000 C 
ENDROOT
BRANCH   2   6
ATOM      6  C   UNL     1      37.257  -1.119  15.450  0.00  0.00    +0.000 A 
ATOM      7  C   UNL     1      38.172  -1.377  16.430  0.00  0.00    +0.000 A 
ATOM      8  C   UNL     1      38.588  -2.664  16.747  0.00  0.00    +0.000 A 
ATOM      9  C   UNL     1      38.068  -3.733  16.053  0.00  0.00    +0.000 A 
ATOM     10  C   UNL     1      37.145  -3.514  15.059  0.00  0.00    +0.000 A 
ATOM     11  C   UNL     1      36.768  -2.215  14.788  0.00  0.00    +0.000 A 
ENDBRANCH   2   6
BRANCH   5  12
ATOM     12  C   UNL     1      37.109   3.104  15.202  0.00  0.00    +0.000 A 
ATOM     13  C   UNL     1      38.260   3.671  14.720  0.00  0.00    +0.000 A 
ATOM     14  C   UNL     1      39.094   4.450  15.545  0.00  0.00    +0.000 A 
ATOM     15  C   UNL     1      38.758   4.654  16.868  0.00  0.00    +0.000 A 
ATOM     16  C   UNL     1      37.604   4.075  17.317  0.00  0.00    +0.000 A 
ATOM     17  C   UNL     1      36.796   3.307  16.472  0.00  0.00    +0.000 A 
BRANCH  15  18
ATOM     18  C   UNL     1      39.629   5.468  17.738  0.00  0.00    +0.000 A 
ATOM     19  C   UNL     1      39.283   5.752  19.043  0.00  0.00    +0.000 A 
ATOM     20  C   UNL     1      40.106   6.519  19.872  0.00  0.00    +0.000 A 
ATOM     21  C   UNL     1      41.297   7.014  19.396  0.00  0.00    +0.000 A 
ATOM     22  C   UNL     1      41.672   6.745  18.087  0.00  0.00    +0.000 A 
ATOM     23  C   UNL     1      40.829   5.985  17.305  0.00  0.00    +0.000 A 
ENDBRANCH  15  18
ENDBRANCH   5  12
BRANCH   1  25
ATOM     24  N   UNL     1      39.414   0.232  13.389  0.00  0.00    +0.000 NA
ATOM     25  C   UNL     1      38.162   0.720  13.064  0.00  0.00    +0.000 C 
ATOM     26  O   UNL     1      37.890   0.949  11.867  0.00  0.00    +0.000 OA
BRANCH  24  27
ATOM     27  C   UNL     1      40.440  -0.038  12.478  0.00  0.00    +0.000 C 
BRANCH  27  28
ATOM     28  C   UNL     1      40.742  -1.397  12.048  0.00  0.00    +0.000 C 
BRANCH  28  30
ATOM     29  C   UNL     1      41.226  -2.504  14.155  0.00  0.00    +0.000 C 
ATOM     30  C   UNL     1      40.371  -2.547  12.894  0.00  0.00    +0.000 C 
ENDBRANCH  28  30
ENDBRANCH  27  28
ENDBRANCH  24  27
ENDBRANCH   1  25
TORSDOF 7
ENDMDL
MODEL 5
REMARK VINA RESULT:      -7.5      2.560      8.414
REMARK  Name = 
REMARK  7 active torsions:
REMARK  status: ('A' for Active; 'I' for Inactive)
REMARK    1  A    between atoms: C_2  and  C_3
REMARK    2  A    between atoms: C_3  and  C_4
REMARK    3  A    between atoms: C_4  and  N_5
REMARK    4  A    between atoms: C_6  and  C_8
REMARK    5  A    between atoms: C_9  and  C_10
REMARK    6  A    between atoms: C_18  and  C_19
REMARK    7  A    between atoms: C_22  and  C_23
REMARK                            x       y       z     vdW  Elec       q    Type
REMARK                         _______ _______ _______ _____ _____    ______ ____
ROOT
ATOM      1  C   UNL     1      39.192   6.891  16.406  0.00  0.00    +0.000 C 
ATOM      2  C   UNL     1      40.308   6.313  16.713  0.00  0.00    +0.000 C 
ATOM      3  N   UNL     1      40.646   5.469  15.600  0.00  0.00    +0.000 NA
ATOM      4  O   UNL     1      40.066   5.933  14.513  0.00  0.00    +0.000 OA
ATOM      5  C   UNL     1      38.749   6.354  15.016  0.00  0.00    +0.000 C 
ENDROOT
BRANCH   2   6
ATOM      6  C   UNL     1      41.144   6.438  17.933  0.00  0.00    +0.000 A 
ATOM      7  C   UNL     1      40.761   6.129  19.206  0.00  0.00    +0.000 A 
ATOM      8  C   UNL     1      41.602   6.288  20.301  0.00  0.00    +0.000 A 
ATOM      9  C   UNL     1      42.875   6.777  20.111  0.00  0.00    +0.000 A 
ATOM     10  C   UNL     1      43.297   7.100  18.844  0.00  0.00    +0.000 A 
ATOM     11  C   UNL     1      42.420   6.921  17.794  0.00  0.00    +0.000 A 
ENDBRANCH   2   6
BRANCH   5  12
ATOM     12  C   UNL     1      38.063   5.005  15.409  0.00  0.00    +0.000 A 
ATOM     13  C   UNL     1      38.011   4.093  14.387  0.00  0.00    +0.000 A 
ATOM     14  C   UNL     1      37.438   2.820  14.569  0.00  0.00    +0.000 A 
ATOM     15  C   UNL     1      36.914   2.469  15.797  0.00  0.00    +0.000 A 
ATOM     16  C   UNL     1      36.982   3.401  16.795  0.00  0.00    +0.000 A 
ATOM     17  C   UNL     1      37.558   4.657  16.582  0.00  0.00    +0.000 A 
BRANCH  15  18
ATOM     18  C   UNL     1      36.311   1.137  15.994  0.00  0.00    +0.000 A 
ATOM     19  C   UNL     1      36.726   0.041  15.265  0.00  0.00    +0.000 A 
ATOM     20  C   UNL     1      36.160  -1.223  15.452  0.00  0.00    +0.000 A 
ATOM     21  C   UNL     1      35.162  -1.403  16.380  0.00  0.00    +0.000 A 
ATOM     22  C   UNL     1      34.724  -0.320  17.128  0.00  0.00    +0.000 A 
ATOM     23  C   UNL     1      35.310   0.909  16.911  0.00  0.00    +0.000 A 
ENDBRANCH  15  18
ENDBRANCH   5  12
BRANCH   1  25
ATOM     24  N   UNL     1      37.827   7.518  18.382  0.00  0.00    +0.000 NA
ATOM     25  C   UNL     1      38.433   7.847  17.185  0.00  0.00    +0.000 C 
ATOM     26  O   UNL     1      38.328   9.012  16.749  0.00  0.00    +0.000 OA
BRANCH  24  27
ATOM     27  C   UNL     1      37.082   8.392  19.180  0.00  0.00    +0.000 C 
BRANCH  27  28
ATOM     28  C   UNL     1      37.715   9.241  20.181  0.00  0.00    +0.000 C 
BRANCH  28  30
ATOM     29  C   UNL     1      40.101   9.685  20.260  0.00  0.00    +0.000 C 
ATOM     30  C   UNL     1      38.976   8.824  20.823  0.00  0.00    +0.000 C 
ENDBRANCH  28  30
ENDBRANCH  27  28
ENDBRANCH  24  27
ENDBRANCH   1  25
TORSDOF 7
ENDMDL
MODEL 6
REMARK VINA RESULT:      -7.4      1.427      2.038
REMARK  Name = 
REMARK  7 active torsions:
REMARK  status: ('A' for Active; 'I' for Inactive)
REMARK    1  A    between atoms: C_2  and  C_3
REMARK    2  A    between atoms: C_3  and  C_4
REMARK    3  A    between atoms: C_4  and  N_5
REMARK    4  A    between atoms: C_6  and  C_8
REMARK    5  A    between atoms: C_9  and  C_10
REMARK    6  A    between atoms: C_18  and  C_19
REMARK    7  A    between atoms: C_22  and  C_23
REMARK                            x       y       z     vdW  Elec       q    Type
REMARK                         _______ _______ _______ _____ _____    ______ ____
ROOT
ATOM      1  C   UNL     1      37.155   1.901  15.041  0.00  0.00    +0.000 C 
ATOM      2  C   UNL     1      36.224   1.805  15.935  0.00  0.00    +0.000 C 
ATOM      3  N   UNL     1      35.606   3.100  16.018  0.00  0.00    +0.000 NA
ATOM      4  O   UNL     1      35.794   3.743  14.884  0.00  0.00    +0.000 OA
ATOM      5  C   UNL     1      37.176   3.372  14.539  0.00  0.00    +0.000 C 
ENDROOT
BRANCH   2   6
ATOM      6  C   UNL     1      35.801   0.639  16.750  0.00  0.00    +0.000 A 
ATOM      7  C   UNL     1      35.190  -0.489  16.285  0.00  0.00    +0.000 A 
ATOM      8  C   UNL     1      34.810  -1.534  17.118  0.00  0.00    +0.000 A 
ATOM      9  C   UNL     1      35.052  -1.443  18.471  0.00  0.00    +0.000 A 
ATOM     10  C   UNL     1      35.665  -0.323  18.978  0.00  0.00    +0.000 A 
ATOM     11  C   UNL     1      36.020   0.684  18.103  0.00  0.00    +0.000 A 
ENDBRANCH   2   6
BRANCH   5  12
ATOM     12  C   UNL     1      38.025   4.069  15.652  0.00  0.00    +0.000 A 
ATOM     13  C   UNL     1      39.138   4.712  15.176  0.00  0.00    +0.000 A 
ATOM     14  C   UNL     1      40.011   5.403  16.039  0.00  0.00    +0.000 A 
ATOM     15  C   UNL     1      39.752   5.440  17.394  0.00  0.00    +0.000 A 
ATOM     16  C   UNL     1      38.634   4.789  17.837  0.00  0.00    +0.000 A 
ATOM     17  C   UNL     1      37.787   4.112  16.954  0.00  0.00    +0.000 A 
BRANCH  15  18
ATOM     18  C   UNL     1      40.663   6.161  18.305  0.00  0.00    +0.000 A 
ATOM     19  C   UNL     1      41.957   6.467  17.938  0.00  0.00    +0.000 A 
ATOM     20  C   UNL     1      42.822   7.153  18.795  0.00  0.00    +0.000 A 
ATOM     21  C   UNL     1      42.393   7.543  20.041  0.00  0.00    +0.000 A 
ATOM     22  C   UNL     1      41.096   7.250  20.439  0.00  0.00    +0.000 A 
ATOM     23  C   UNL     1      40.278   6.571  19.561  0.00  0.00    +0.000 A 
ENDBRANCH  15  18
ENDBRANCH   5  12
BRANCH   1  25
ATOM     24  N   UNL     1      37.718  -0.031  13.589  0.00  0.00    +0.000 NA
ATOM     25  C   UNL     1      38.061   0.874  14.576  0.00  0.00    +0.000 C 
ATOM     26  O   UNL     1      39.196   0.810  15.093  0.00  0.00    +0.000 OA
BRANCH  24  27
ATOM     27  C   UNL     1      38.546  -1.046  13.097  0.00  0.00    +0.000 C 
BRANCH  27  28
ATOM     28  C   UNL     1      39.242  -0.913  11.824  0.00  0.00    +0.000 C 
BRANCH  28  30
ATOM     29  C   UNL     1      40.361  -1.905   9.910  0.00  0.00    +0.000 C 
ATOM     30  C   UNL     1      40.273  -1.893  11.432  0.00  0.00    +0.000 C 
ENDBRANCH  28  30
ENDBRANCH  27  28
ENDBRANCH  24  27
ENDBRANCH   1  25
TORSDOF 7
ENDMDL
MODEL 7
REMARK VINA RESULT:      -7.2      2.629      3.689
REMARK  Name = 
REMARK  7 active torsions:
REMARK  status: ('A' for Active; 'I' for Inactive)
REMARK    1  A    between atoms: C_2  and  C_3
REMARK    2  A    between atoms: C_3  and  C_4
REMARK    3  A    between atoms: C_4  and  N_5
REMARK    4  A    between atoms: C_6  and  C_8
REMARK    5  A    between atoms: C_9  and  C_10
REMARK    6  A    between atoms: C_18  and  C_19
REMARK    7  A    between atoms: C_22  and  C_23
REMARK                            x       y       z     vdW  Elec       q    Type
REMARK                         _______ _______ _______ _____ _____    ______ ____
ROOT
ATOM      1  C   UNL     1      36.805   1.706  14.014  0.00  0.00    +0.000 C 
ATOM      2  C   UNL     1      36.627   0.782  14.902  0.00  0.00    +0.000 C 
ATOM      3  N   UNL     1      35.718   1.324  15.874  0.00  0.00    +0.000 NA
ATOM      4  O   UNL     1      35.001   2.275  15.313  0.00  0.00    +0.000 OA
ATOM      5  C   UNL     1      35.991   2.953  14.462  0.00  0.00    +0.000 C 
ENDROOT
BRANCH   2   6
ATOM      6  C   UNL     1      37.193  -0.588  14.980  0.00  0.00    +0.000 A 
ATOM      7  C   UNL     1      36.698  -1.700  14.362  0.00  0.00    +0.000 A 
ATOM      8  C   UNL     1      37.278  -2.954  14.498  0.00  0.00    +0.000 A 
ATOM      9  C   UNL     1      38.399  -3.100  15.284  0.00  0.00    +0.000 A 
ATOM     10  C   UNL     1      38.928  -2.004  15.924  0.00  0.00    +0.000 A 
ATOM     11  C   UNL     1      38.309  -0.783  15.753  0.00  0.00    +0.000 A 
ENDBRANCH   2   6
BRANCH   5  12
ATOM     12  C   UNL     1      36.968   3.607  15.493  0.00  0.00    +0.000 A 
ATOM     13  C   UNL     1      37.875   4.465  14.927  0.00  0.00    +0.000 A 
ATOM     14  C   UNL     1      38.823   5.151  15.711  0.00  0.00    +0.000 A 
ATOM     15  C   UNL     1      38.849   4.966  17.078  0.00  0.00    +0.000 A 
ATOM     16  C   UNL     1      37.931   4.105  17.611  0.00  0.00    +0.000 A 
ATOM     17  C   UNL     1      37.003   3.438  16.805  0.00  0.00    +0.000 A 
BRANCH  15  18
ATOM     18  C   UNL     1      39.840   5.681  17.905  0.00  0.00    +0.000 A 
ATOM     19  C   UNL     1      39.606   5.955  19.237  0.00  0.00    +0.000 A 
ATOM     20  C   UNL     1      40.544   6.628  20.025  0.00  0.00    +0.000 A 
ATOM     21  C   UNL     1      41.737   7.039  19.480  0.00  0.00    +0.000 A 
ATOM     22  C   UNL     1      42.001   6.778  18.143  0.00  0.00    +0.000 A 
ATOM     23  C   UNL     1      41.047   6.111  17.403  0.00  0.00    +0.000 A 
ENDBRANCH  15  18
ENDBRANCH   5  12
BRANCH   1  25
ATOM     24  N   UNL     1      37.116   1.307  11.584  0.00  0.00    +0.000 NA
ATOM     25  C   UNL     1      37.623   1.658  12.821  0.00  0.00    +0.000 C 
ATOM     26  O   UNL     1      38.834   1.946  12.923  0.00  0.00    +0.000 OA
BRANCH  24  27
ATOM     27  C   UNL     1      37.851   1.242  10.396  0.00  0.00    +0.000 C 
BRANCH  27  28
ATOM     28  C   UNL     1      37.276   1.641   9.118  0.00  0.00    +0.000 C 
BRANCH  28  30
ATOM     29  C   UNL     1      36.745   0.946   6.853  0.00  0.00    +0.000 C 
ATOM     30  C   UNL     1      37.873   1.174   7.853  0.00  0.00    +0.000 C 
ENDBRANCH  28  30
ENDBRANCH  27  28
ENDBRANCH  24  27
ENDBRANCH   1  25
TORSDOF 7
ENDMDL
MODEL 8
REMARK VINA RESULT:      -7.2      4.365      8.028
REMARK  Name = 
REMARK  7 active torsions:
REMARK  status: ('A' for Active; 'I' for Inactive)
REMARK    1  A    between atoms: C_2  and  C_3
REMARK    2  A    between atoms: C_3  and  C_4
REMARK    3  A    between atoms: C_4  and  N_5
REMARK    4  A    between atoms: C_6  and  C_8
REMARK    5  A    between atoms: C_9  and  C_10
REMARK    6  A    between atoms: C_18  and  C_19
REMARK    7  A    between atoms: C_22  and  C_23
REMARK                            x       y       z     vdW  Elec       q    Type
REMARK                         _______ _______ _______ _____ _____    ______ ____
ROOT
ATOM      1  C   UNL     1      38.695   0.930  13.973  0.00  0.00    +0.000 C 
ATOM      2  C   UNL     1      38.966  -0.308  13.714  0.00  0.00    +0.000 C 
ATOM      3  N   UNL     1      40.003  -0.296  12.720  0.00  0.00    +0.000 NA
ATOM      4  O   UNL     1      40.662   0.841  12.795  0.00  0.00    +0.000 OA
ATOM      5  C   UNL     1      39.585   1.810  13.051  0.00  0.00    +0.000 C 
ENDROOT
BRANCH   2   6
ATOM      6  C   UNL     1      38.386  -1.551  14.282  0.00  0.00    +0.000 A 
ATOM      7  C   UNL     1      37.299  -2.223  13.803  0.00  0.00    +0.000 A 
ATOM      8  C   UNL     1      36.808  -3.377  14.402  0.00  0.00    +0.000 A 
ATOM      9  C   UNL     1      37.431  -3.875  15.524  0.00  0.00    +0.000 A 
ATOM     10  C   UNL     1      38.529  -3.226  16.036  0.00  0.00    +0.000 A 
ATOM     11  C   UNL     1      38.973  -2.085  15.400  0.00  0.00    +0.000 A 
ENDBRANCH   2   6
BRANCH   5  12
ATOM     12  C   UNL     1      38.763   1.798  11.722  0.00  0.00    +0.000 A 
ATOM     13  C   UNL     1      39.531   1.946  10.596  0.00  0.00    +0.000 A 
ATOM     14  C   UNL     1      38.955   1.946   9.310  0.00  0.00    +0.000 A 
ATOM     15  C   UNL     1      37.591   1.794   9.167  0.00  0.00    +0.000 A 
ATOM     16  C   UNL     1      36.853   1.649  10.309  0.00  0.00    +0.000 A 
ATOM     17  C   UNL     1      37.455   1.653  11.571  0.00  0.00    +0.000 A 
BRANCH  15  18
ATOM     18  C   UNL     1      36.981   1.794   7.823  0.00  0.00    +0.000 A 
ATOM     19  C   UNL     1      36.265   2.877   7.355  0.00  0.00    +0.000 A 
ATOM     20  C   UNL     1      35.690   2.884   6.082  0.00  0.00    +0.000 A 
ATOM     21  C   UNL     1      35.826   1.793   5.256  0.00  0.00    +0.000 A 
ATOM     22  C   UNL     1      36.540   0.688   5.700  0.00  0.00    +0.000 A 
ATOM     23  C   UNL     1      37.091   0.726   6.963  0.00  0.00    +0.000 A 
ENDBRANCH  15  18
ENDBRANCH   5  12
BRANCH   1  25
ATOM     24  N   UNL     1      36.396   1.095  14.896  0.00  0.00    +0.000 NA
ATOM     25  C   UNL     1      37.730   1.459  14.913  0.00  0.00    +0.000 C 
ATOM     26  O   UNL     1      38.127   2.277  15.769  0.00  0.00    +0.000 OA
BRANCH  24  27
ATOM     27  C   UNL     1      35.416   1.569  15.774  0.00  0.00    +0.000 C 
BRANCH  27  28
ATOM     28  C   UNL     1      34.830   0.714  16.798  0.00  0.00    +0.000 C 
BRANCH  28  30
ATOM     29  C   UNL     1      36.145  -1.032  17.856  0.00  0.00    +0.000 C 
ATOM     30  C   UNL     1      35.089  -0.737  16.796  0.00  0.00    +0.000 C 
ENDBRANCH  28  30
ENDBRANCH  27  28
ENDBRANCH  24  27
ENDBRANCH   1  25
TORSDOF 7
ENDMDL
MODEL 9
REMARK VINA RESULT:      -7.1      3.784      6.048
REMARK  Name = 
REMARK  7 active torsions:
REMARK  status: ('A' for Active; 'I' for Inactive)
REMARK    1  A    between atoms: C_2  and  C_3
REMARK    2  A    between atoms: C_3  and  C_4
REMARK    3  A    between atoms: C_4  and  N_5
REMARK    4  A    between atoms: C_6  and  C_8
REMARK    5  A    between atoms: C_9  and  C_10
REMARK    6  A    between atoms: C_18  and  C_19
REMARK    7  A    between atoms: C_22  and  C_23
REMARK                            x       y       z     vdW  Elec       q    Type
REMARK                         _______ _______ _______ _____ _____    ______ ____
ROOT
ATOM      1  C   UNL     1      38.203  -1.015  14.395  0.00  0.00    +0.000 C 
ATOM      2  C   UNL     1      37.922   0.196  14.034  0.00  0.00    +0.000 C 
ATOM      3  N   UNL     1      38.479   0.366  12.720  0.00  0.00    +0.000 NA
ATOM      4  O   UNL     1      38.594  -0.811  12.143  0.00  0.00    +0.000 OA
ATOM      5  C   UNL     1      39.038  -1.664  13.256  0.00  0.00    +0.000 C 
ENDROOT
BRANCH   2   6
ATOM      6  C   UNL     1      37.177   1.258  14.755  0.00  0.00    +0.000 A 
ATOM      7  C   UNL     1      37.726   2.312  15.426  0.00  0.00    +0.000 A 
ATOM      8  C   UNL     1      36.958   3.260  16.090  0.00  0.00    +0.000 A 
ATOM      9  C   UNL     1      35.586   3.147  16.081  0.00  0.00    +0.000 A 
ATOM     10  C   UNL     1      34.995   2.099  15.417  0.00  0.00    +0.000 A 
ATOM     11  C   UNL     1      35.807   1.187  14.775  0.00  0.00    +0.000 A 
ENDBRANCH   2   6
BRANCH   5  12
ATOM     12  C   UNL     1      40.471  -1.124  13.576  0.00  0.00    +0.000 A 
ATOM     13  C   UNL     1      41.255  -2.013  14.266  0.00  0.00    +0.000 A 
ATOM     14  C   UNL     1      42.578  -1.695  14.627  0.00  0.00    +0.000 A 
ATOM     15  C   UNL     1      43.110  -0.469  14.284  0.00  0.00    +0.000 A 
ATOM     16  C   UNL     1      42.303   0.394  13.597  0.00  0.00    +0.000 A 
ATOM     17  C   UNL     1      40.992   0.049  13.253  0.00  0.00    +0.000 A 
BRANCH  15  18
ATOM     18  C   UNL     1      44.497  -0.129  14.660  0.00  0.00    +0.000 A 
ATOM     19  C   UNL     1      44.946  -0.261  15.958  0.00  0.00    +0.000 A 
ATOM     20  C   UNL     1      46.259   0.055  16.317  0.00  0.00    +0.000 A 
ATOM     21  C   UNL     1      47.144   0.511  15.369  0.00  0.00    +0.000 A 
ATOM     22  C   UNL     1      46.721   0.654  14.055  0.00  0.00    +0.000 A 
ATOM     23  C   UNL     1      45.417   0.331  13.746  0.00  0.00    +0.000 A 
ENDBRANCH  15  18
ENDBRANCH   5  12
BRANCH   1  25
ATOM     24  N   UNL     1      38.548  -1.479  16.809  0.00  0.00    +0.000 NA
ATOM     25  C   UNL     1      37.856  -1.686  15.630  0.00  0.00    +0.000 C 
ATOM     26  O   UNL     1      36.894  -2.481  15.619  0.00  0.00    +0.000 OA
BRANCH  24  27
ATOM     27  C   UNL     1      38.264  -2.094  18.033  0.00  0.00    +0.000 C 
BRANCH  27  28
ATOM     28  C   UNL     1      37.611  -1.374  19.117  0.00  0.00    +0.000 C 
BRANCH  28  30
ATOM     29  C   UNL     1      36.070   0.432  18.605  0.00  0.00    +0.000 C 
ATOM     30  C   UNL     1      36.180  -1.029  19.028  0.00  0.00    +0.000 C 
ENDBRANCH  28  30
ENDBRANCH  27  28
ENDBRANCH  24  27
ENDBRANCH   1  25
TORSDOF 7
ENDMDL
MODEL 10
REMARK VINA RESULT:      -7.1      4.322      8.493
REMARK  Name = 
REMARK  7 active torsions:
REMARK  status: ('A' for Active; 'I' for Inactive)
REMARK    1  A    between atoms: C_2  and  C_3
REMARK    2  A    between atoms: C_3  and  C_4
REMARK    3  A    between atoms: C_4  and  N_5
REMARK    4  A    between atoms: C_6  and  C_8
REMARK    5  A    between atoms: C_9  and  C_10
REMARK    6  A    between atoms: C_18  and  C_19
REMARK    7  A    between atoms: C_22  and  C_23
REMARK                            x       y       z     vdW  Elec       q    Type
REMARK                         _______ _______ _______ _____ _____    ______ ____
ROOT
ATOM      1  C   UNL     1      37.932  -1.685  15.763  0.00  0.00    +0.000 C 
ATOM      2  C   UNL     1      37.388  -2.858  15.798  0.00  0.00    +0.000 C 
ATOM      3  N   UNL     1      38.457  -3.795  16.005  0.00  0.00    +0.000 NA
ATOM      4  O   UNL     1      39.465  -3.180  16.589  0.00  0.00    +0.000 OA
ATOM      5  C   UNL     1      39.468  -1.873  15.913  0.00  0.00    +0.000 C 
ENDROOT
BRANCH   2   6
ATOM      6  C   UNL     1      35.963  -3.254  15.670  0.00  0.00    +0.000 A 
ATOM      7  C   UNL     1      35.451  -4.132  14.760  0.00  0.00    +0.000 A 
ATOM      8  C   UNL     1      34.097  -4.440  14.694  0.00  0.00    +0.000 A 
ATOM      9  C   UNL     1      33.224  -3.844  15.576  0.00  0.00    +0.000 A 
ATOM     10  C   UNL     1      33.702  -2.954  16.508  0.00  0.00    +0.000 A 
ATOM     11  C   UNL     1      35.055  -2.686  16.527  0.00  0.00    +0.000 A 
ENDBRANCH   2   6
BRANCH   5  12
ATOM     12  C   UNL     1      39.882  -2.225  14.447  0.00  0.00    +0.000 A 
ATOM     13  C   UNL     1      41.170  -2.680  14.331  0.00  0.00    +0.000 A 
ATOM     14  C   UNL     1      41.705  -3.054  13.083  0.00  0.00    +0.000 A 
ATOM     15  C   UNL     1      40.928  -2.967  11.946  0.00  0.00    +0.000 A 
ATOM     16  C   UNL     1      39.648  -2.510  12.096  0.00  0.00    +0.000 A 
ATOM     17  C   UNL     1      39.146  -2.146  13.349  0.00  0.00    +0.000 A 
BRANCH  15  18
ATOM     18  C   UNL     1      41.483  -3.357  10.635  0.00  0.00    +0.000 A 
ATOM     19  C   UNL     1      42.764  -3.855  10.512  0.00  0.00    +0.000 A 
ATOM     20  C   UNL     1      43.292  -4.229   9.274  0.00  0.00    +0.000 A 
ATOM     21  C   UNL     1      42.534  -4.106   8.134  0.00  0.00    +0.000 A 
ATOM     22  C   UNL     1      41.242  -3.608   8.225  0.00  0.00    +0.000 A 
ATOM     23  C   UNL     1      40.761  -3.251   9.468  0.00  0.00    +0.000 A 
ENDBRANCH  15  18
ENDBRANCH   5  12
BRANCH   1  25
ATOM     24  N   UNL     1      36.991   0.434  16.649  0.00  0.00    +0.000 NA
ATOM     25  C   UNL     1      37.286  -0.402  15.588  0.00  0.00    +0.000 C 
ATOM     26  O   UNL     1      36.988  -0.044  14.430  0.00  0.00    +0.000 OA
BRANCH  24  27
ATOM     27  C   UNL     1      36.370   1.683  16.547  0.00  0.00    +0.000 C 
BRANCH  27  28
ATOM     28  C   UNL     1      34.928   1.809  16.382  0.00  0.00    +0.000 C 
BRANCH  28  30
ATOM     29  C   UNL     1      35.264   3.287  14.484  0.00  0.00    +0.000 C 
ATOM     30  C   UNL     1      34.358   2.967  15.667  0.00  0.00    +0.000 C 
ENDBRANCH  28  30
ENDBRANCH  27  28
ENDBRANCH  24  27
ENDBRANCH   1  25
TORSDOF 7
ENDMDL
