REMARK  Name = 
REMARK  5 active torsions:
REMARK  status: ('A' for Active; 'I' for Inactive)
REMARK    1  A    between atoms: C_2  and  C_3
REMARK    2  A    between atoms: C_3  and  C_15
REMARK    3  A    between atoms: C_4  and  C_5
REMARK    4  A    between atoms: C_4  and  C_7
REMARK    5  A    between atoms: C_10  and  O_11
REMARK                            x       y       z     vdW  Elec       q    Type
REMARK                         _______ _______ _______ _____ _____    ______ ____
ROOT
ATOM      1  C   UNL     1       0.806   0.278   0.170  0.00  0.00    +0.000 C 
ATOM      2  C   UNL     1      -0.167  -0.349  -0.448  0.00  0.00    +0.000 C 
ENDROOT
BRANCH   1   3
ATOM      3  C   UNL     1       2.216  -0.019  -0.020  0.00  0.00    +0.000 A 
ATOM      4  C   UNL     1       3.109   1.026  -0.003  0.00  0.00    +0.000 A 
ATOM      5  C   UNL     1       4.473   0.820  -0.178  0.00  0.00    +0.000 A 
ATOM      6  C   UNL     1       4.944  -0.445  -0.372  0.00  0.00    +0.000 A 
ATOM      7  O   UNL     1       6.315  -0.686  -0.552  0.00  0.00    +0.000 OA
ATOM      8  C   UNL     1       4.051  -1.489  -0.389  0.00  0.00    +0.000 A 
ATOM      9  C   UNL     1       2.677  -1.278  -0.212  0.00  0.00    +0.000 A 
ENDBRANCH   1   3
BRANCH   2  10
ATOM     10  C   UNL     1      -1.570   0.004  -0.210  0.00  0.00    +0.000 A 
ATOM     11  C   UNL     1      -2.481  -0.028  -1.237  0.00  0.00    +0.000 A 
ATOM     12  C   UNL     1      -3.799   0.296  -1.040  0.00  0.00    +0.000 A 
ATOM     13  C   UNL     1      -4.231   0.663   0.207  0.00  0.00    +0.000 A 
ATOM     14  C   UNL     1      -3.343   0.703   1.253  0.00  0.00    +0.000 A 
ATOM     15  C   UNL     1      -2.006   0.375   1.057  0.00  0.00    +0.000 A 
BRANCH  13  16
ATOM     16  O   UNL     1      -5.564   0.987   0.390  0.00  0.00    +0.000 OA
ATOM     17  C   UNL     1      -6.488   0.954  -0.657  0.00  0.00    +0.000 C 
ENDBRANCH  13  16
ENDBRANCH   2  10
BRANCH   1  19
ATOM     18  C   UNL     1       0.952   0.997   2.513  0.00  0.00    +0.000 C 
ATOM     19  C   UNL     1       0.425   1.367   1.127  0.00  0.00    +0.000 C 
ENDBRANCH   1  19
BRANCH   2  20
ATOM     20  C   UNL     1       0.141  -1.421  -1.395  0.00  0.00    +0.000 C 
ATOM     21  C   UNL     1      -0.460  -2.758  -1.012  0.00  0.00    +0.000 C 
ENDBRANCH   2  20
TORSDOF 5
