REMARK  Name = 
REMARK  3 active torsions:
REMARK  status: ('A' for Active; 'I' for Inactive)
REMARK    1  A    between atoms: C_2  and  C_3
REMARK    2  A    between atoms: C_2  and  C_13
REMARK    3  A    between atoms: C_3  and  C_5
REMARK                            x       y       z     vdW  Elec       q    Type
REMARK                         _______ _______ _______ _____ _____    ______ ____
ROOT
ATOM      1  O   UNL     1       0.218   1.659  -0.619  0.00  0.00    +0.000 OA
ATOM      2  C   UNL     1       0.529   0.459  -0.272  0.00  0.00    +0.000 C 
ENDROOT
BRANCH   2   3
ATOM      3  C   UNL     1       1.964   0.273  -0.104  0.00  0.00    +0.000 A 
ATOM      4  C   UNL     1       2.803   1.400  -0.338  0.00  0.00    +0.000 A 
ATOM      5  C   UNL     1       4.157   1.338  -0.210  0.00  0.00    +0.000 A 
ATOM      6  C   UNL     1       4.749   0.153   0.156  0.00  0.00    +0.000 A 
ATOM      7  O   UNL     1       6.139   0.082   0.289  0.00  0.00    +0.000 OA
ATOM      8  C   UNL     1       3.952  -0.914   0.377  0.00  0.00    +0.000 A 
ATOM      9  C   UNL     1       2.548  -0.898   0.258  0.00  0.00    +0.000 A 
ATOM     10  O   UNL     1       1.901  -2.084   0.523  0.00  0.00    +0.000 OA
ENDBRANCH   2   3
BRANCH   2  11
ATOM     11  C   UNL     1      -0.532  -0.473  -0.108  0.00  0.00    +0.000 C 
ATOM     12  O   UNL     1      -0.258  -1.694   0.242  0.00  0.00    +0.000 OA
BRANCH  11  13
ATOM     13  C   UNL     1      -1.967  -0.285  -0.276  0.00  0.00    +0.000 A 
ATOM     14  C   UNL     1      -2.805  -1.398  -0.046  0.00  0.00    +0.000 A 
ATOM     15  C   UNL     1      -4.147  -1.308  -0.180  0.00  0.00    +0.000 A 
ATOM     16  C   UNL     1      -4.722  -0.123  -0.545  0.00  0.00    +0.000 A 
ATOM     17  O   UNL     1      -6.099  -0.070  -0.672  0.00  0.00    +0.000 OA
ATOM     18  C   UNL     1      -3.959   0.966  -0.775  0.00  0.00    +0.000 A 
ATOM     19  C   UNL     1      -2.562   0.867  -0.634  0.00  0.00    +0.000 A 
ATOM     20  O   UNL     1      -1.908   2.051  -0.898  0.00  0.00    +0.000 OA
ENDBRANCH  11  13
ENDBRANCH   2  11
TORSDOF 3
