REMARK  Name = 
REMARK  0 active torsions:
REMARK  status: ('A' for Active; 'I' for Inactive)
REMARK                            x       y       z     vdW  Elec       q    Type
REMARK                         _______ _______ _______ _____ _____    ______ ____
ROOT
ATOM      1  C   UNL     1       2.207   0.164  -1.565  0.00  0.00    +0.000 C 
ATOM      2  C   UNL     1       2.279  -0.394  -0.297  0.00  0.00    +0.000 C 
ATOM      3  C   UNL     1       1.870  -1.711   0.113  0.00  0.00    +0.000 C 
ATOM      4  C   UNL     1       0.394  -1.849  -0.202  0.00  0.00    +0.000 C 
ATOM      5  C   UNL     1      -0.387  -0.871   0.858  0.00  0.00    +0.000 C 
ATOM      6  C   UNL     1      -1.776  -0.872   0.138  0.00  0.00    +0.000 A 
ATOM      7  C   UNL     1      -2.250  -1.764  -0.714  0.00  0.00    +0.000 A 
ATOM      8  C   UNL     1      -3.498  -1.645  -1.288  0.00  0.00    +0.000 A 
ATOM      9  C   UNL     1      -4.270  -0.560  -0.958  0.00  0.00    +0.000 A 
ATOM     10  O   UNL     1      -5.562  -0.389  -1.519  0.00  0.00    +0.000 OA
ATOM     11  C   UNL     1      -3.779   0.371  -0.069  0.00  0.00    +0.000 A 
ATOM     12  C   UNL     1      -2.503   0.228   0.502  0.00  0.00    +0.000 A 
ATOM     13  C   UNL     1      -1.949   1.209   1.465  0.00  0.00    +0.000 C 
ATOM     14  C   UNL     1      -0.554   1.545   1.153  0.00  0.00    +0.000 C 
ATOM     15  C   UNL     1       0.093   0.578   0.065  0.00  0.00    +0.000 C 
ATOM     16  C   UNL     1       1.603   0.586   0.841  0.00  0.00    +0.000 C 
ATOM     17  C   UNL     1       2.070   1.945   0.110  0.00  0.00    +0.000 C 
ATOM     18  C   UNL     1       3.617   1.593  -0.288  0.00  0.00    +0.000 C 
ATOM     19  O   UNL     1       4.185   2.329   0.924  0.00  0.00    +0.000 OA
ATOM     20  C   UNL     1       3.628   0.054   0.525  0.00  0.00    +0.000 C 
ATOM     21  O   UNL     1       4.581  -0.547  -0.529  0.00  0.00    +0.000 OA
ENDROOT
TORSDOF 0
