REMARK  Name = 
REMARK  1 active torsions:
REMARK  status: ('A' for Active; 'I' for Inactive)
REMARK    1  A    between atoms: C_2  and  C_3
REMARK                            x       y       z     vdW  Elec       q    Type
REMARK                         _______ _______ _______ _____ _____    ______ ____
ROOT
ATOM      1  C   UNL     1      -3.285   0.032  -0.650  0.00  0.00    +0.000 C 
ATOM      2  O   UNL     1      -3.735   0.642  -1.818  0.00  0.00    +0.000 OA
ATOM      3  C   UNL     1      -2.785  -1.402  -0.905  0.00  0.00    +0.000 C 
ATOM      4  C   UNL     1      -2.243  -1.716   0.442  0.00  0.00    +0.000 C 
ATOM      5  C   UNL     1      -1.540  -0.350   0.925  0.00  0.00    +0.000 C 
ATOM      6  C   UNL     1      -0.063  -0.663   0.226  0.00  0.00    +0.000 C 
ATOM      7  C   UNL     1       0.437  -1.632   1.428  0.00  0.00    +0.000 C 
ATOM      8  C   UNL     1       1.863  -1.685   1.046  0.00  0.00    +0.000 C 
ATOM      9  C   UNL     1       2.533  -0.805   0.395  0.00  0.00    +0.000 C 
ATOM     10  C   UNL     1       3.951  -1.056   0.117  0.00  0.00    +0.000 C 
ATOM     11  C   UNL     1       4.538   0.165  -0.490  0.00  0.00    +0.000 C 
ATOM     12  O   UNL     1       5.148   0.166  -1.540  0.00  0.00    +0.000 OA
ATOM     13  C   UNL     1       4.309   1.398   0.313  0.00  0.00    +0.000 C 
ATOM     14  C   UNL     1       2.908   1.506   0.816  0.00  0.00    +0.000 C 
ATOM     15  C   UNL     1       2.003   0.539  -0.161  0.00  0.00    +0.000 C 
ATOM     16  C   UNL     1       0.662   0.699   0.859  0.00  0.00    +0.000 C 
ATOM     17  C   UNL     1      -0.008   1.830  -0.055  0.00  0.00    +0.000 C 
ATOM     18  C   UNL     1      -1.517   1.831   0.101  0.00  0.00    +0.000 C 
ATOM     19  C   UNL     1      -2.081   0.574  -0.264  0.00  0.00    +0.000 C 
ATOM     20  C   UNL     1      -1.319   0.340  -1.563  0.00  0.00    +0.000 C 
ENDROOT
BRANCH   1  22
ATOM     21  C   UNL     1      -5.352  -0.267   0.955  0.00  0.00    +0.000 C 
ATOM     22  C   UNL     1      -4.423  -0.145   0.226  0.00  0.00    +0.000 C 
ENDBRANCH   1  22
TORSDOF 1
