REMARK  Name = 
REMARK  0 active torsions:
REMARK  status: ('A' for Active; 'I' for Inactive)
REMARK                            x       y       z     vdW  Elec       q    Type
REMARK                         _______ _______ _______ _____ _____    ______ ____
ROOT
ATOM      1  C   UNL     1       2.347  -1.485   0.168  0.00  0.00    +0.000 C 
ATOM      2  C   UNL     1       2.341  -0.206   0.922  0.00  0.00    +0.000 C 
ATOM      3  C   UNL     1       1.451  -0.094   2.063  0.00  0.00    +0.000 C 
ATOM      4  C   UNL     1       0.041  -0.503   1.604  0.00  0.00    +0.000 C 
ATOM      5  C   UNL     1      -0.344   0.749   0.623  0.00  0.00    +0.000 C 
ATOM      6  C   UNL     1      -1.714   0.208   0.151  0.00  0.00    +0.000 A 
ATOM      7  C   UNL     1      -2.549  -0.269   1.117  0.00  0.00    +0.000 A 
ATOM      8  C   UNL     1      -3.824  -0.777   0.786  0.00  0.00    +0.000 A 
ATOM      9  C   UNL     1      -4.218  -0.787  -0.515  0.00  0.00    +0.000 A 
ATOM     10  O   UNL     1      -5.466  -1.273  -0.927  0.00  0.00    +0.000 OA
ATOM     11  C   UNL     1      -3.390  -0.313  -1.480  0.00  0.00    +0.000 A 
ATOM     12  C   UNL     1      -2.107   0.198  -1.144  0.00  0.00    +0.000 A 
ATOM     13  C   UNL     1      -1.230   0.712  -2.218  0.00  0.00    +0.000 C 
ATOM     14  C   UNL     1       0.059   1.264  -1.670  0.00  0.00    +0.000 C 
ATOM     15  C   UNL     1       0.563   0.092  -0.670  0.00  0.00    +0.000 C 
ATOM     16  C   UNL     1       1.918   0.973  -0.158  0.00  0.00    +0.000 C 
ATOM     17  C   UNL     1       2.950   0.328  -1.259  0.00  0.00    +0.000 C 
ATOM     18  C   UNL     1       4.141   0.388  -0.367  0.00  0.00    +0.000 C 
ATOM     19  O   UNL     1       5.293   0.490  -0.726  0.00  0.00    +0.000 OA
ATOM     20  C   UNL     1       3.737   0.305   1.065  0.00  0.00    +0.000 C 
ENDROOT
TORSDOF 0
