REMARK  Name = 
REMARK  2 active torsions:
REMARK  status: ('A' for Active; 'I' for Inactive)
REMARK    1  A    between atoms: C_2  and  C_3
REMARK    2  A    between atoms: C_13  and  O_14
REMARK                            x       y       z     vdW  Elec       q    Type
REMARK                         _______ _______ _______ _____ _____    ______ ____
ROOT
ATOM      1  C   UNL     1       3.796  -0.415  -0.049  0.00  0.00    +0.000 C 
ATOM      2  O   UNL     1       4.690  -1.436  -0.172  0.00  0.00    +0.000 OA
ATOM      3  C   UNL     1       3.910   0.631  -1.152  0.00  0.00    +0.000 C 
ATOM      4  C   UNL     1       2.526   1.296  -1.226  0.00  0.00    +0.000 C 
ATOM      5  C   UNL     1       1.894   0.784   0.172  0.00  0.00    +0.000 C 
ATOM      6  C   UNL     1       0.364   0.490  -0.445  0.00  0.00    +0.000 C 
ATOM      7  C   UNL     1      -0.178   1.965  -0.169  0.00  0.00    +0.000 C 
ATOM      8  C   UNL     1      -1.528   1.824  -0.897  0.00  0.00    +0.000 C 
ATOM      9  C   UNL     1      -2.222   0.735  -0.162  0.00  0.00    +0.000 A 
ATOM     10  C   UNL     1      -3.600   0.643  -0.442  0.00  0.00    +0.000 A 
ATOM     11  C   UNL     1      -4.379  -0.305   0.151  0.00  0.00    +0.000 A 
ATOM     12  C   UNL     1      -3.792  -1.178   1.037  0.00  0.00    +0.000 A 
ATOM     13  C   UNL     1      -2.408  -1.081   1.313  0.00  0.00    +0.000 A 
ATOM     14  C   UNL     1      -1.646  -0.124   0.708  0.00  0.00    +0.000 A 
ATOM     15  C   UNL     1      -0.143  -0.101   1.078  0.00  0.00    +0.000 C 
ATOM     16  C   UNL     1       0.223  -1.625   0.656  0.00  0.00    +0.000 C 
ATOM     17  C   UNL     1       1.749  -1.601   0.849  0.00  0.00    +0.000 C 
ATOM     18  C   UNL     1       2.374  -0.754  -0.143  0.00  0.00    +0.000 C 
ATOM     19  C   UNL     1       2.020  -1.026  -1.580  0.00  0.00    +0.000 C 
ENDROOT
BRANCH   1  21
ATOM     20  C   UNL     1       4.357   0.893   2.226  0.00  0.00    +0.000 C 
ATOM     21  C   UNL     1       4.107   0.313   1.194  0.00  0.00    +0.000 C 
ENDBRANCH   1  21
BRANCH  11  22
ATOM     22  O   UNL     1      -5.757  -0.417  -0.112  0.00  0.00    +0.000 OA
ATOM     23  C   UNL     1      -6.359   0.487  -1.026  0.00  0.00    +0.000 C 
ENDBRANCH  11  22
TORSDOF 2
