REMARK  Name = 
REMARK  2 active torsions:
REMARK  status: ('A' for Active; 'I' for Inactive)
REMARK    1  A    between atoms: C_2  and  C_3
REMARK    2  A    between atoms: C_19  and  O_20
REMARK                            x       y       z     vdW  Elec       q    Type
REMARK                         _______ _______ _______ _____ _____    ______ ____
ROOT
ATOM      1  C   UNL     1      -3.374   0.824   0.179  0.00  0.00    +0.000 C 
ATOM      2  O   UNL     1      -3.876   2.110   0.119  0.00  0.00    +0.000 OA
ATOM      3  C   UNL     1      -3.847  -0.063  -0.950  0.00  0.00    +0.000 C 
ATOM      4  C   UNL     1      -2.671  -0.934  -1.352  0.00  0.00    +0.000 C 
ATOM      5  C   UNL     1      -1.822  -0.759   0.025  0.00  0.00    +0.000 C 
ATOM      6  C   UNL     1      -0.287  -0.708  -0.694  0.00  0.00    +0.000 C 
ATOM      7  C   UNL     1      -0.058  -2.291  -0.595  0.00  0.00    +0.000 C 
ATOM      8  C   UNL     1       1.304  -2.443  -1.230  0.00  0.00    +0.000 C 
ATOM      9  C   UNL     1       2.242  -1.498  -0.578  0.00  0.00    +0.000 A 
ATOM     10  C   UNL     1       3.605  -1.533  -0.890  0.00  0.00    +0.000 A 
ATOM     11  C   UNL     1       4.527  -0.689  -0.309  0.00  0.00    +0.000 A 
ATOM     12  O   UNL     1       5.855  -0.779  -0.664  0.00  0.00    +0.000 OA
ATOM     13  C   UNL     1       4.140   0.247   0.623  0.00  0.00    +0.000 A 
ATOM     14  C   UNL     1       2.803   0.275   0.922  0.00  0.00    +0.000 A 
ATOM     15  C   UNL     1       1.891  -0.570   0.339  0.00  0.00    +0.000 A 
ATOM     16  C   UNL     1       0.393  -0.434   0.805  0.00  0.00    +0.000 C 
ATOM     17  C   UNL     1       0.410   1.262   0.826  0.00  0.00    +0.000 C 
ATOM     18  C   UNL     1      -1.210   1.498   0.943  0.00  0.00    +0.000 C 
ATOM     19  C   UNL     1      -1.917   0.880  -0.096  0.00  0.00    +0.000 C 
ATOM     20  C   UNL     1      -1.710   1.234  -1.515  0.00  0.00    +0.000 C 
ENDROOT
BRANCH   1  22
ATOM     21  C   UNL     1      -3.823  -0.280   2.566  0.00  0.00    +0.000 C 
ATOM     22  C   UNL     1      -3.618   0.212   1.479  0.00  0.00    +0.000 C 
ENDBRANCH   1  22
BRANCH  17  23
ATOM     23  O   UNL     1       0.515   1.530  -0.659  0.00  0.00    +0.000 OA
ATOM     24  C   UNL     1       0.528   2.908  -0.639  0.00  0.00    +0.000 C 
ENDBRANCH  17  23
TORSDOF 2
