REMARK  Name = 
REMARK  5 active torsions:
REMARK  status: ('A' for Active; 'I' for Inactive)
REMARK    1  A    between atoms: O_2  and  C_3
REMARK    2  A    between atoms: C_6  and  C_7
REMARK    3  A    between atoms: C_7  and  C_8
REMARK    4  A    between atoms: C_7  and  C_16
REMARK    5  A    between atoms: C_11  and  O_12
REMARK                            x       y       z     vdW  Elec       q    Type
REMARK                         _______ _______ _______ _____ _____    ______ ____
ROOT
ATOM      1  C   UNL     1      -0.217  -1.212   0.598  0.00  0.00    +0.000 C 
ENDROOT
BRANCH   1   5
ATOM      2  C   UNL     1      -3.271   1.740   0.690  0.00  0.00    +0.000 A 
ATOM      3  C   UNL     1      -2.662   1.331   1.860  0.00  0.00    +0.000 A 
ATOM      4  C   UNL     1      -1.678   0.371   1.779  0.00  0.00    +0.000 A 
ATOM      5  C   UNL     1      -1.273  -0.198   0.590  0.00  0.00    +0.000 A 
ATOM      6  C   UNL     1      -1.894   0.225  -0.565  0.00  0.00    +0.000 A 
ATOM      7  C   UNL     1      -2.881   1.186  -0.493  0.00  0.00    +0.000 A 
BRANCH   2   9
ATOM      8  C   UNL     1      -4.658   3.271   1.995  0.00  0.00    +0.000 C 
ATOM      9  O   UNL     1      -4.280   2.720   0.750  0.00  0.00    +0.000 OA
ENDBRANCH   2   9
ENDBRANCH   1   5
BRANCH   1  10
ATOM     10  C   UNL     1       1.145  -0.653   0.455  0.00  0.00    +0.000 A 
ATOM     11  C   UNL     1       1.904  -0.280   1.547  0.00  0.00    +0.000 A 
ATOM     12  C   UNL     1       3.175   0.242   1.422  0.00  0.00    +0.000 A 
ATOM     13  C   UNL     1       3.751   0.416   0.183  0.00  0.00    +0.000 A 
ATOM     14  C   UNL     1       3.002   0.047  -0.914  0.00  0.00    +0.000 A 
ATOM     15  C   UNL     1       1.731  -0.475  -0.782  0.00  0.00    +0.000 A 
BRANCH  13  16
ATOM     16  O   UNL     1       5.035   0.943   0.031  0.00  0.00    +0.000 OA
ATOM     17  C   UNL     1       5.603   1.111  -1.252  0.00  0.00    +0.000 C 
ENDBRANCH  13  16
ENDBRANCH   1  10
BRANCH   1  18
ATOM     18  C   UNL     1      -0.516  -2.326  -0.345  0.00  0.00    +0.000 C 
ATOM     19 CL   UNL     1      -0.681  -1.804  -2.021  0.00  0.00    +0.000 Cl
ATOM     20 CL   UNL     1      -2.069  -3.064   0.169  0.00  0.00    +0.000 Cl
ATOM     21 CL   UNL     1       0.733  -3.593  -0.224  0.00  0.00    +0.000 Cl
ENDBRANCH   1  18
TORSDOF 5
