REMARK  Name = 
REMARK  4 active torsions:
REMARK  status: ('A' for Active; 'I' for Inactive)
REMARK    1  A    between atoms: O_2  and  C_3
REMARK    2  A    between atoms: C_6  and  C_7
REMARK    3  A    between atoms: C_7  and  C_8
REMARK    4  A    between atoms: C_7  and  C_15
REMARK                            x       y       z     vdW  Elec       q    Type
REMARK                         _______ _______ _______ _____ _____    ______ ____
ROOT
ATOM      1  C   UNL     1       0.483   1.012   1.237  0.00  0.00    +0.000 C 
ENDROOT
BRANCH   1   2
ATOM      2  C   UNL     1       1.522   0.199   0.379  0.00  0.00    +0.000 A 
ATOM      3  C   UNL     1       2.128   0.605  -0.710  0.00  0.00    +0.000 A 
ATOM      4  C   UNL     1       3.018  -0.181  -1.387  0.00  0.00    +0.000 A 
ATOM      5  C   UNL     1       3.307  -1.442  -0.934  0.00  0.00    +0.000 A 
ATOM      6  O   UNL     1       4.229  -2.272  -1.623  0.00  0.00    +0.000 OA
ATOM      7  C   UNL     1       2.689  -1.903   0.208  0.00  0.00    +0.000 A 
ATOM      8  C   UNL     1       1.796  -1.076   0.861  0.00  0.00    +0.000 A 
ENDBRANCH   1   2
BRANCH   1  12
ATOM      9  C   UNL     1      -3.120  -0.924  -0.207  0.00  0.00    +0.000 A 
ATOM     10  C   UNL     1      -2.503  -1.349   0.949  0.00  0.00    +0.000 A 
ATOM     11  C   UNL     1      -1.340  -0.703   1.395  0.00  0.00    +0.000 A 
ATOM     12  C   UNL     1      -0.835   0.341   0.671  0.00  0.00    +0.000 A 
ATOM     13  C   UNL     1      -1.406   0.789  -0.464  0.00  0.00    +0.000 A 
ATOM     14  C   UNL     1      -2.568   0.128  -0.890  0.00  0.00    +0.000 A 
BRANCH   9  16
ATOM     15  C   UNL     1      -4.806  -2.665   0.113  0.00  0.00    +0.000 C 
ATOM     16  O   UNL     1      -4.269  -1.583  -0.622  0.00  0.00    +0.000 OA
ENDBRANCH   9  16
ENDBRANCH   1  12
BRANCH   1  17
ATOM     17  C   UNL     1       0.444   2.395   0.384  0.00  0.00    +0.000 C 
ATOM     18 CL   UNL     1       0.463   2.162  -1.309  0.00  0.00    +0.000 Cl
ATOM     19 CL   UNL     1      -1.073   3.126   0.962  0.00  0.00    +0.000 Cl
ATOM     20 CL   UNL     1       1.839   3.343   0.987  0.00  0.00    +0.000 Cl
ENDBRANCH   1  17
TORSDOF 4
