REMARK  Name = 
REMARK  5 active torsions:
REMARK  status: ('A' for Active; 'I' for Inactive)
REMARK    1  A    between atoms: C_2  and  C_3
REMARK    2  A    between atoms: C_3  and  C_4
REMARK    3  A    between atoms: C_3  and  C_11
REMARK    4  A    between atoms: C_11  and  C_12
REMARK    5  A    between atoms: C_11  and  C_14
REMARK                            x       y       z     vdW  Elec       q    Type
REMARK                         _______ _______ _______ _____ _____    ______ ____
ROOT
ATOM      1  C   UNL     1      -0.255   0.929  -0.264  0.00  0.00    +0.000 C 
ENDROOT
BRANCH   1   2
ATOM      2  C   UNL     1      -1.766   0.634  -0.095  0.00  0.00    +0.000 A 
ATOM      3  C   UNL     1      -2.267  -0.324  -0.942  0.00  0.00    +0.000 A 
ATOM      4  C   UNL     1      -3.627  -0.686  -0.890  0.00  0.00    +0.000 A 
ATOM      5  C   UNL     1      -4.463  -0.071   0.018  0.00  0.00    +0.000 A 
ATOM      6  C   UNL     1      -5.927  -0.443   0.092  0.00  0.00    +0.000 C 
ATOM      7  C   UNL     1      -3.939   0.888   0.859  0.00  0.00    +0.000 A 
ATOM      8  C   UNL     1      -2.578   1.230   0.786  0.00  0.00    +0.000 A 
ENDBRANCH   1   2
BRANCH   1  10
ATOM      9  C   UNL     1      -0.219   0.401   2.217  0.00  0.00    +0.000 C 
ATOM     10  C   UNL     1       0.079   1.439   1.222  0.00  0.00    +0.000 C 
ENDBRANCH   1  10
BRANCH   1  11
ATOM     11  C   UNL     1       0.249  -0.649   0.042  0.00  0.00    +0.000 C 
BRANCH  11  12
ATOM     12  C   UNL     1       1.763  -0.311  -0.146  0.00  0.00    +0.000 A 
ATOM     13  C   UNL     1       2.386  -0.111  -1.296  0.00  0.00    +0.000 A 
ATOM     14  C   UNL     1       3.724   0.180  -1.331  0.00  0.00    +0.000 A 
ATOM     15  C   UNL     1       4.457   0.273  -0.174  0.00  0.00    +0.000 A 
ATOM     16  O   UNL     1       5.839   0.574  -0.227  0.00  0.00    +0.000 OA
ATOM     17  C   UNL     1       3.834   0.069   1.034  0.00  0.00    +0.000 A 
ATOM     18  C   UNL     1       2.465  -0.227   1.037  0.00  0.00    +0.000 A 
ENDBRANCH  11  12
BRANCH  11  19
ATOM     19  C   UNL     1      -0.085  -1.166  -1.451  0.00  0.00    +0.000 C 
ATOM     20  C   UNL     1       0.330  -2.628  -1.334  0.00  0.00    +0.000 C 
ENDBRANCH  11  19
ENDBRANCH   1  11
TORSDOF 5
