REMARK  Name = 
REMARK  2 active torsions:
REMARK  status: ('A' for Active; 'I' for Inactive)
REMARK    1  A    between atoms: C_5  and  C_6
REMARK    2  A    between atoms: C_15  and  C_16
REMARK                            x       y       z     vdW  Elec       q    Type
REMARK                         _______ _______ _______ _____ _____    ______ ____
ROOT
ATOM      1  C   UNL     1      -1.163   0.229   0.052  0.00  0.00    +0.000 A 
ATOM      2  O   UNL     1      -1.945   1.278   0.071  0.00  0.00    +0.000 OA
ATOM      3  C   UNL     1      -1.269   2.405   0.058  0.00  0.00    +0.000 A 
ATOM      4  C   UNL     1      -1.625   3.743   0.068  0.00  0.00    +0.000 A 
ATOM      5  C   UNL     1      -0.693   4.744   0.050  0.00  0.00    +0.000 A 
ATOM      6  O   UNL     1      -1.071   6.100   0.060  0.00  0.00    +0.000 OA
ATOM      7  C   UNL     1       0.642   4.397   0.019  0.00  0.00    +0.000 A 
ATOM      8  C   UNL     1       1.046   3.062   0.008  0.00  0.00    +0.000 A 
ATOM      9  C   UNL     1       0.068   2.089   0.028  0.00  0.00    +0.000 A 
ATOM     10  C   UNL     1       0.139   0.711   0.024  0.00  0.00    +0.000 A 
ENDROOT
BRANCH   1  15
ATOM     11  O   UNL     1      -2.553  -5.276   0.035  0.00  0.00    +0.000 OA
ATOM     12  C   UNL     1      -2.219  -3.917   0.024  0.00  0.00    +0.000 A 
ATOM     13  C   UNL     1      -2.621  -3.078  -0.993  0.00  0.00    +0.000 A 
ATOM     14  C   UNL     1      -2.267  -1.724  -0.968  0.00  0.00    +0.000 A 
ATOM     15  C   UNL     1      -1.516  -1.187   0.057  0.00  0.00    +0.000 A 
ATOM     16  C   UNL     1      -1.129  -2.050   1.059  0.00  0.00    +0.000 A 
ATOM     17  C   UNL     1      -1.473  -3.393   1.046  0.00  0.00    +0.000 A 
ENDBRANCH   1  15
BRANCH  10  18
ATOM     18  C   UNL     1       1.323  -0.138  -0.005  0.00  0.00    +0.000 A 
ATOM     19  C   UNL     1       2.187  -0.056  -1.075  0.00  0.00    +0.000 A 
ATOM     20  C   UNL     1       3.332  -0.829  -1.173  0.00  0.00    +0.000 A 
ATOM     21  C   UNL     1       3.616  -1.721  -0.149  0.00  0.00    +0.000 A 
ATOM     22  O   UNL     1       4.768  -2.527  -0.207  0.00  0.00    +0.000 OA
ATOM     23  C   UNL     1       2.774  -1.824   0.928  0.00  0.00    +0.000 A 
ATOM     24  C   UNL     1       1.648  -1.036   0.984  0.00  0.00    +0.000 A 
ENDBRANCH  10  18
TORSDOF 2
