REMARK  Name = 
REMARK  0 active torsions:
REMARK  status: ('A' for Active; 'I' for Inactive)
REMARK                            x       y       z     vdW  Elec       q    Type
REMARK                         _______ _______ _______ _____ _____    ______ ____
ROOT
ATOM      1  C   UNL     1      -2.633  -1.740   1.677  0.00  0.00    +0.000 C 
ATOM      2  C   UNL     1      -2.466  -0.592   0.776  0.00  0.00    +0.000 C 
ATOM      3  C   UNL     1      -1.759   0.578   1.194  0.00  0.00    +0.000 C 
ATOM      4  C   UNL     1      -0.367   0.252   1.522  0.00  0.00    +0.000 C 
ATOM      5  C   UNL     1       0.121  -0.944   0.509  0.00  0.00    +0.000 C 
ATOM      6  C   UNL     1      -0.593  -0.204  -0.835  0.00  0.00    +0.000 C 
ATOM      7  C   UNL     1       0.075  -1.187  -1.899  0.00  0.00    +0.000 C 
ATOM      8  C   UNL     1       1.530  -0.924  -2.018  0.00  0.00    +0.000 C 
ATOM      9  C   UNL     1       1.714   0.403  -1.054  0.00  0.00    +0.000 C 
ATOM     10  C   UNL     1       3.360   0.336  -1.115  0.00  0.00    +0.000 C 
ATOM     11  C   UNL     1       3.656   1.426  -0.164  0.00  0.00    +0.000 C 
ATOM     12  O   UNL     1       4.532   2.196  -0.436  0.00  0.00    +0.000 OA
ATOM     13  C   UNL     1       2.915   1.597   1.100  0.00  0.00    +0.000 C 
ATOM     14  C   UNL     1       2.079   0.393   1.454  0.00  0.00    +0.000 C 
ATOM     15  C   UNL     1       1.635  -0.427   0.338  0.00  0.00    +0.000 C 
ATOM     16  C   UNL     1       2.514  -1.626   0.195  0.00  0.00    +0.000 C 
ATOM     17  C   UNL     1      -1.999  -1.137  -0.684  0.00  0.00    +0.000 C 
ATOM     18  C   UNL     1      -2.865  -0.089  -1.586  0.00  0.00    +0.000 C 
ATOM     19  C   UNL     1      -3.279   0.974  -0.713  0.00  0.00    +0.000 C 
ATOM     20  C   UNL     1      -3.998  -0.153   0.300  0.00  0.00    +0.000 C 
ATOM     21  O   UNL     1      -4.174   0.867   1.440  0.00  0.00    +0.000 OA
ENDROOT
TORSDOF 0
