REMARK  Name = 
REMARK  2 active torsions:
REMARK  status: ('A' for Active; 'I' for Inactive)
REMARK    1  A    between atoms: C_5  and  C_6
REMARK    2  A    between atoms: N_16  and  C_17
REMARK                            x       y       z     vdW  Elec       q    Type
REMARK                         _______ _______ _______ _____ _____    ______ ____
ROOT
ATOM      1  C   UNL     1      -0.458   0.126   0.084  0.00  0.00    +0.000 A 
ATOM      2  C   UNL     1       0.212   0.842   1.035  0.00  0.00    +0.000 A 
ATOM      3  C   UNL     1       1.571   0.752   0.772  0.00  0.00    +0.000 A 
ATOM      4  C   UNL     1       2.685   1.273   1.401  0.00  0.00    +0.000 A 
ATOM      5  C   UNL     1       3.951   1.014   0.907  0.00  0.00    +0.000 A 
ATOM      6 CL   UNL     1       5.388   1.662   1.685  0.00  0.00    +0.000 Cl
ATOM      7  C   UNL     1       4.051   0.227  -0.222  0.00  0.00    +0.000 A 
ATOM      8  O   UNL     1       5.328  -0.040  -0.729  0.00  0.00    +0.000 OA
ATOM      9  C   UNL     1       2.926  -0.289  -0.843  0.00  0.00    +0.000 A 
ATOM     10  C   UNL     1       1.660  -0.035  -0.356  0.00  0.00    +0.000 A 
ATOM     11  N   UNL     1       0.442  -0.408  -0.764  0.00  0.00    +0.000 N 
ENDROOT
BRANCH   1  16
ATOM     12  O   UNL     1      -6.018  -0.692  -0.524  0.00  0.00    +0.000 OA
ATOM     13  C   UNL     1      -4.651  -0.474  -0.351  0.00  0.00    +0.000 A 
ATOM     14  C   UNL     1      -3.783  -1.045  -1.250  0.00  0.00    +0.000 A 
ATOM     15  C   UNL     1      -2.433  -0.839  -1.091  0.00  0.00    +0.000 A 
ATOM     16  C   UNL     1      -1.908  -0.081  -0.066  0.00  0.00    +0.000 A 
ATOM     17  C   UNL     1      -2.804   0.480   0.821  0.00  0.00    +0.000 A 
ATOM     18 CL   UNL     1      -2.229   1.467   2.167  0.00  0.00    +0.000 Cl
ATOM     19  C   UNL     1      -4.162   0.290   0.687  0.00  0.00    +0.000 A 
ENDBRANCH   1  16
BRANCH  11  20
ATOM     20  C   UNL     1       0.131  -1.250  -1.931  0.00  0.00    +0.000 C 
ATOM     21 CL   UNL     1       0.101  -2.979  -1.438  0.00  0.00    +0.000 Cl
ENDBRANCH  11  20
TORSDOF 2
