REMARK  Name = 
REMARK  0 active torsions:
REMARK  status: ('A' for Active; 'I' for Inactive)
REMARK                            x       y       z     vdW  Elec       q    Type
REMARK                         _______ _______ _______ _____ _____    ______ ____
ROOT
ATOM      1  C   UNL     1       0.435  -1.850  -1.395  0.00  0.00    +0.000 C 
ATOM      2  C   UNL     1       0.375  -0.494  -0.681  0.00  0.00    +0.000 C 
ATOM      3  C   UNL     1      -0.377   0.465  -1.457  0.00  0.00    +0.000 C 
ATOM      4  C   UNL     1      -1.728   0.901  -1.091  0.00  0.00    +0.000 C 
ATOM      5  C   UNL     1      -2.489   0.206  -0.130  0.00  0.00    +0.000 C 
ATOM      6  C   UNL     1      -2.866   0.732   1.164  0.00  0.00    +0.000 C 
ATOM      7  C   UNL     1      -3.788  -0.567  -0.745  0.00  0.00    +0.000 C 
ATOM      8  O   UNL     1      -4.738   0.563  -0.439  0.00  0.00    +0.000 OA
ATOM      9  C   UNL     1      -4.061  -1.320   0.681  0.00  0.00    +0.000 C 
ATOM     10  C   UNL     1      -2.695  -1.638   1.195  0.00  0.00    +0.000 C 
ATOM     11  C   UNL     1      -1.781  -1.225  -0.058  0.00  0.00    +0.000 C 
ATOM     12  C   UNL     1      -0.332  -0.890   0.710  0.00  0.00    +0.000 C 
ATOM     13  C   UNL     1      -0.508   0.599   1.231  0.00  0.00    +0.000 C 
ATOM     14  C   UNL     1       0.692   1.372   1.235  0.00  0.00    +0.000 C 
ATOM     15  C   UNL     1       1.918   0.849   0.637  0.00  0.00    +0.000 A 
ATOM     16  C   UNL     1       3.191   1.284   1.029  0.00  0.00    +0.000 A 
ATOM     17  C   UNL     1       4.327   0.771   0.444  0.00  0.00    +0.000 A 
ATOM     18  O   UNL     1       5.602   1.149   0.776  0.00  0.00    +0.000 OA
ATOM     19  C   UNL     1       4.161  -0.191  -0.546  0.00  0.00    +0.000 A 
ATOM     20  C   UNL     1       2.899  -0.608  -0.920  0.00  0.00    +0.000 A 
ATOM     21  C   UNL     1       1.765  -0.106  -0.346  0.00  0.00    +0.000 A 
ENDROOT
TORSDOF 0
