REMARK  Name = 
REMARK  4 active torsions:
REMARK  status: ('A' for Active; 'I' for Inactive)
REMARK    1  A    between atoms: C_2  and  C_3
REMARK    2  A    between atoms: C_3  and  C_4
REMARK    3  A    between atoms: C_3  and  C_15
REMARK    4  A    between atoms: C_15  and  C_18
REMARK                            x       y       z     vdW  Elec       q    Type
REMARK                         _______ _______ _______ _____ _____    ______ ____
ROOT
ATOM      1  C   UNL     1      -0.553   0.276   0.329  0.00  0.00    +0.000 A 
ATOM      2  C   UNL     1      -0.355  -0.459  -0.756  0.00  0.00    +0.000 A 
ATOM      3  C   UNL     1       0.880  -0.572  -1.332  0.00  0.00    +0.000 A 
ATOM      4  C   UNL     1       1.926   0.104  -0.751  0.00  0.00    +0.000 A 
ATOM      5  C   UNL     1       3.207   0.019  -1.304  0.00  0.00    +0.000 A 
ATOM      6  C   UNL     1       4.249   0.699  -0.717  0.00  0.00    +0.000 A 
ATOM      7  O   UNL     1       5.537   0.629  -1.252  0.00  0.00    +0.000 OA
ATOM      8  C   UNL     1       4.038   1.452   0.397  0.00  0.00    +0.000 A 
ATOM      9  C   UNL     1       2.787   1.559   0.969  0.00  0.00    +0.000 A 
ATOM     10  C   UNL     1       1.753   0.881   0.383  0.00  0.00    +0.000 A 
ATOM     11  C   UNL     1       0.471   0.962   0.930  0.00  0.00    +0.000 A 
ENDROOT
BRANCH   1  12
ATOM     12  C   UNL     1      -1.980   0.427   1.016  0.00  0.00    +0.000 C 
BRANCH  12  13
ATOM     13  C   UNL     1      -2.636  -0.981   0.535  0.00  0.00    +0.000 C 
ATOM     14  C   UNL     1      -1.641  -2.033   0.458  0.00  0.00    +0.000 C 
ATOM     15  C   UNL     1      -3.874  -1.242   1.298  0.00  0.00    +0.000 C 
BRANCH  13  16
ATOM     16  C   UNL     1      -3.060  -0.634  -0.850  0.00  0.00    +0.000 C 
ATOM     17  O   UNL     1      -2.697  -1.275  -1.866  0.00  0.00    +0.000 OA
ATOM     18  O   UNL     1      -3.905   0.448  -1.097  0.00  0.00    +0.000 OA
ENDBRANCH  13  16
ENDBRANCH  12  13
BRANCH  12  20
ATOM     19  C   UNL     1      -2.696  -0.102   3.322  0.00  0.00    +0.000 C 
ATOM     20  C   UNL     1      -1.452  -0.160   2.484  0.00  0.00    +0.000 C 
ENDBRANCH  12  20
ENDBRANCH   1  12
TORSDOF 4
