REMARK  Name = 
REMARK  0 active torsions:
REMARK  status: ('A' for Active; 'I' for Inactive)
REMARK                            x       y       z     vdW  Elec       q    Type
REMARK                         _______ _______ _______ _____ _____    ______ ____
ROOT
ATOM      1  C   UNL     1      -2.568   1.433   1.985  0.00  0.00    +0.000 C 
ATOM      2  C   UNL     1      -2.285   0.462   0.812  0.00  0.00    +0.000 C 
ATOM      3  C   UNL     1      -1.556   1.142  -0.111  0.00  0.00    +0.000 C 
ATOM      4  C   UNL     1      -0.193   1.471   0.251  0.00  0.00    +0.000 C 
ATOM      5  C   UNL     1       0.319   0.555   1.469  0.00  0.00    +0.000 C 
ATOM      6  C   UNL     1       1.778   0.338   0.905  0.00  0.00    +0.000 A 
ATOM      7  C   UNL     1       2.826   0.677   1.714  0.00  0.00    +0.000 A 
ATOM      8  C   UNL     1       4.096   0.485   1.217  0.00  0.00    +0.000 A 
ATOM      9  C   UNL     1       4.342  -0.024  -0.038  0.00  0.00    +0.000 A 
ATOM     10  O   UNL     1       5.664  -0.204  -0.508  0.00  0.00    +0.000 OA
ATOM     11  C   UNL     1       3.255  -0.349  -0.814  0.00  0.00    +0.000 A 
ATOM     12  C   UNL     1       1.987  -0.158  -0.317  0.00  0.00    +0.000 A 
ATOM     13  C   UNL     1       0.859  -0.528  -1.202  0.00  0.00    +0.000 C 
ATOM     14  C   UNL     1      -0.389  -0.863  -0.545  0.00  0.00    +0.000 C 
ATOM     15  C   UNL     1      -0.183  -0.981   1.012  0.00  0.00    +0.000 C 
ATOM     16  C   UNL     1      -1.755  -0.806   1.592  0.00  0.00    +0.000 C 
ATOM     17  C   UNL     1      -2.400  -1.979   0.704  0.00  0.00    +0.000 C 
ATOM     18  C   UNL     1      -2.582  -1.714  -0.668  0.00  0.00    +0.000 C 
ATOM     19  C   UNL     1      -3.388  -0.554  -1.057  0.00  0.00    +0.000 C 
ATOM     20  C   UNL     1      -3.807   0.118   0.380  0.00  0.00    +0.000 C 
ATOM     21  O   UNL     1      -4.021   1.479  -0.245  0.00  0.00    +0.000 OA
ENDROOT
TORSDOF 0
