REMARK  Name = 
REMARK  2 active torsions:
REMARK  status: ('A' for Active; 'I' for Inactive)
REMARK    1  A    between atoms: C_2  and  C_4
REMARK    2  A    between atoms: C_2  and  C_11
REMARK                            x       y       z     vdW  Elec       q    Type
REMARK                         _______ _______ _______ _____ _____    ______ ____
ROOT
ATOM      1  C   UNL     1       0.113  -1.635   2.159  0.00  0.00    +0.000 C 
ATOM      2  C   UNL     1      -0.106  -1.290   0.684  0.00  0.00    +0.000 C 
ATOM      3  C   UNL     1      -0.486  -2.592   0.011  0.00  0.00    +0.000 C 
ENDROOT
BRANCH   2   4
ATOM      4  C   UNL     1      -1.206  -0.329   0.616  0.00  0.00    +0.000 A 
ATOM      5  C   UNL     1      -1.133   0.853   1.322  0.00  0.00    +0.000 A 
ATOM      6  C   UNL     1      -2.201   1.725   1.220  0.00  0.00    +0.000 A 
ATOM      7  C   UNL     1      -3.322   1.476   0.458  0.00  0.00    +0.000 A 
ATOM      8  O   UNL     1      -4.398   2.342   0.349  0.00  0.00    +0.000 OA
ATOM      9  C   UNL     1      -3.378   0.292  -0.240  0.00  0.00    +0.000 A 
ATOM     10  C   UNL     1      -2.310  -0.586  -0.141  0.00  0.00    +0.000 A 
ENDBRANCH   2   4
BRANCH   2  11
ATOM     11  C   UNL     1       1.130  -0.726   0.102  0.00  0.00    +0.000 A 
ATOM     12  C   UNL     1       1.222  -0.388  -1.222  0.00  0.00    +0.000 A 
ATOM     13  C   UNL     1       2.359   0.144  -1.815  0.00  0.00    +0.000 A 
ATOM     14  C   UNL     1       3.464   0.343  -1.009  0.00  0.00    +0.000 A 
ATOM     15  O   UNL     1       4.599   0.876  -1.609  0.00  0.00    +0.000 OA
ATOM     16  C   UNL     1       3.402   0.014   0.322  0.00  0.00    +0.000 A 
ATOM     17  C   UNL     1       2.252  -0.519   0.899  0.00  0.00    +0.000 A 
ENDBRANCH   2  11
TORSDOF 2
