REMARK  Name = 
REMARK  0 active torsions:
REMARK  status: ('A' for Active; 'I' for Inactive)
REMARK                            x       y       z     vdW  Elec       q    Type
REMARK                         _______ _______ _______ _____ _____    ______ ____
ROOT
ATOM      1  C   UNL     1       2.276   0.477  -1.309  0.00  0.00    +0.000 C 
ATOM      2  C   UNL     1       2.333  -0.858  -0.721  0.00  0.00    +0.000 C 
ATOM      3  C   UNL     1       3.797  -1.226  -0.595  0.00  0.00    +0.000 C 
ATOM      4  C   UNL     1       4.290  -0.046   0.255  0.00  0.00    +0.000 C 
ATOM      5  C   UNL     1       3.114   0.454   1.038  0.00  0.00    +0.000 C 
ATOM      6  C   UNL     1       2.075  -0.776   0.867  0.00  0.00    +0.000 C 
ATOM      7  C   UNL     1       0.608   0.004   0.975  0.00  0.00    +0.000 C 
ATOM      8  C   UNL     1       0.933   1.516   0.600  0.00  0.00    +0.000 C 
ATOM      9  C   UNL     1      -0.423   2.119   0.405  0.00  0.00    +0.000 C 
ATOM     10  C   UNL     1      -1.546   1.171   0.422  0.00  0.00    +0.000 A 
ATOM     11  C   UNL     1      -2.762   1.548   0.950  0.00  0.00    +0.000 A 
ATOM     12  C   UNL     1      -3.807   0.611   0.945  0.00  0.00    +0.000 A 
ATOM     13  O   UNL     1      -5.046   0.935   1.461  0.00  0.00    +0.000 OA
ATOM     14  C   UNL     1      -3.628  -0.657   0.427  0.00  0.00    +0.000 A 
ATOM     15  C   UNL     1      -2.398  -1.036  -0.105  0.00  0.00    +0.000 A 
ATOM     16  C   UNL     1      -1.461  -0.129  -0.077  0.00  0.00    +0.000 A 
ATOM     17  C   UNL     1       0.013  -0.285  -0.607  0.00  0.00    +0.000 C 
ATOM     18  C   UNL     1       0.162  -1.893  -0.443  0.00  0.00    +0.000 C 
ATOM     19  C   UNL     1       1.469  -1.932  -1.274  0.00  0.00    +0.000 C 
ENDROOT
TORSDOF 0
