REMARK  Name = 
REMARK  3 active torsions:
REMARK  status: ('A' for Active; 'I' for Inactive)
REMARK    1  A    between atoms: O_2  and  C_3
REMARK    2  A    between atoms: C_6  and  C_7
REMARK    3  A    between atoms: C_7  and  C_11
REMARK                            x       y       z     vdW  Elec       q    Type
REMARK                         _______ _______ _______ _____ _____    ______ ____
ROOT
ATOM      1  C   UNL     1       0.115   0.176   1.025  0.00  0.00    +0.000 C 
ATOM      2  C   UNL     1      -0.021   0.386   2.321  0.00  0.00    +0.000 C 
ATOM      3 CL   UNL     1       1.130   1.329   3.243  0.00  0.00    +0.000 Cl
ATOM      4 CL   UNL     1      -1.401  -0.307   3.136  0.00  0.00    +0.000 Cl
ENDROOT
BRANCH   1   5
ATOM      5  C   UNL     1       1.254   0.743   0.336  0.00  0.00    +0.000 A 
ATOM      6  C   UNL     1       1.902   0.065  -0.702  0.00  0.00    +0.000 A 
ATOM      7  C   UNL     1       2.981   0.675  -1.308  0.00  0.00    +0.000 A 
ATOM      8  C   UNL     1       3.460   1.919  -0.953  0.00  0.00    +0.000 A 
ATOM      9  O   UNL     1       4.546   2.525  -1.569  0.00  0.00    +0.000 OA
ATOM     10  C   UNL     1       2.791   2.561   0.082  0.00  0.00    +0.000 A 
ATOM     11  C   UNL     1       1.710   1.977   0.708  0.00  0.00    +0.000 A 
ENDBRANCH   1   5
BRANCH   1  15
ATOM     12  C   UNL     1      -2.691  -2.107  -1.221  0.00  0.00    +0.000 A 
ATOM     13  C   UNL     1      -2.371  -2.469   0.064  0.00  0.00    +0.000 A 
ATOM     14  C   UNL     1      -1.462  -1.733   0.797  0.00  0.00    +0.000 A 
ATOM     15  C   UNL     1      -0.841  -0.606   0.264  0.00  0.00    +0.000 A 
ATOM     16  C   UNL     1      -1.176  -0.262  -1.024  0.00  0.00    +0.000 A 
ATOM     17  C   UNL     1      -2.085  -0.992  -1.767  0.00  0.00    +0.000 A 
BRANCH  12  19
ATOM     18  C   UNL     1      -4.243  -3.977  -1.459  0.00  0.00    +0.000 C 
ATOM     19  O   UNL     1      -3.598  -2.829  -1.974  0.00  0.00    +0.000 OA
ENDBRANCH  12  19
ENDBRANCH   1  15
TORSDOF 3
