REMARK  Name = 
REMARK  5 active torsions:
REMARK  status: ('A' for Active; 'I' for Inactive)
REMARK    1  A    between atoms: C_2  and  C_3
REMARK    2  A    between atoms: C_3  and  C_4
REMARK    3  A    between atoms: C_3  and  C_13
REMARK    4  A    between atoms: C_13  and  C_14
REMARK    5  A    between atoms: C_13  and  C_16
REMARK                            x       y       z     vdW  Elec       q    Type
REMARK                         _______ _______ _______ _____ _____    ______ ____
ROOT
ATOM      1  C   UNL     1       0.062  -0.859  -0.483  0.00  0.00    +0.000 C 
ENDROOT
BRANCH   1   2
ATOM      2  C   UNL     1      -1.435  -0.322  -0.423  0.00  0.00    +0.000 A 
ATOM      3  C   UNL     1      -2.406  -1.224  -0.100  0.00  0.00    +0.000 A 
ATOM      4  C   UNL     1      -3.711  -0.790  -0.040  0.00  0.00    +0.000 A 
ATOM      5  C   UNL     1      -4.792  -1.749   0.310  0.00  0.00    +0.000 C 
ATOM      6  C   UNL     1      -4.040   0.531  -0.301  0.00  0.00    +0.000 A 
ATOM      7  O   UNL     1      -5.381   0.889  -0.219  0.00  0.00    +0.000 OA
ATOM      8  C   UNL     1      -3.042   1.392  -0.618  0.00  0.00    +0.000 A 
ATOM      9  C   UNL     1      -3.386   2.805  -0.898  0.00  0.00    +0.000 C 
ATOM     10  C   UNL     1      -1.729   0.967  -0.681  0.00  0.00    +0.000 A 
ENDBRANCH   1   2
BRANCH   1  12
ATOM     11  C   UNL     1      -0.732  -0.980  -2.795  0.00  0.00    +0.000 C 
ATOM     12  C   UNL     1       0.319  -0.265  -1.980  0.00  0.00    +0.000 C 
ENDBRANCH   1  12
BRANCH   1  13
ATOM     13  C   UNL     1       0.767   0.480   0.333  0.00  0.00    +0.000 C 
BRANCH  13  14
ATOM     14  C   UNL     1       2.254   0.038   0.198  0.00  0.00    +0.000 A 
ATOM     15  C   UNL     1       3.076   1.075  -0.174  0.00  0.00    +0.000 A 
ATOM     16  C   UNL     1       4.461   0.864  -0.346  0.00  0.00    +0.000 A 
ATOM     17  C   UNL     1       4.967  -0.372  -0.141  0.00  0.00    +0.000 A 
ATOM     18  O   UNL     1       6.338  -0.540  -0.321  0.00  0.00    +0.000 OA
ATOM     19  C   UNL     1       4.142  -1.403   0.231  0.00  0.00    +0.000 A 
ATOM     20  C   UNL     1       2.790  -1.155   0.389  0.00  0.00    +0.000 A 
ENDBRANCH  13  14
BRANCH  13  21
ATOM     21  C   UNL     1       0.463  -0.203   1.804  0.00  0.00    +0.000 C 
ATOM     22  C   UNL     1       1.013   0.820   2.779  0.00  0.00    +0.000 C 
ENDBRANCH  13  21
ENDBRANCH   1  13
TORSDOF 5
