REMARK  Name = 
REMARK  2 active torsions:
REMARK  status: ('A' for Active; 'I' for Inactive)
REMARK    1  A    between atoms: C_2  and  C_3
REMARK    2  A    between atoms: C_4  and  C_5
REMARK                            x       y       z     vdW  Elec       q    Type
REMARK                         _______ _______ _______ _____ _____    ______ ____
ROOT
ATOM      1  C   UNL     1       0.595  -0.320   0.850  0.00  0.00    +0.000 A 
ATOM      2  C   UNL     1      -0.377   0.233   0.072  0.00  0.00    +0.000 A 
ATOM      3  S   UNL     1       0.490   0.869  -1.242  0.00  0.00    +0.000 S 
ATOM      4  C   UNL     1       2.073   0.421  -0.779  0.00  0.00    +0.000 A 
ATOM      5  C   UNL     1       3.344   0.595  -1.358  0.00  0.00    +0.000 A 
ATOM      6  C   UNL     1       4.478   0.108  -0.731  0.00  0.00    +0.000 A 
ATOM      7  O   UNL     1       5.710   0.288  -1.312  0.00  0.00    +0.000 OA
ATOM      8  C   UNL     1       4.266  -0.535   0.457  0.00  0.00    +0.000 A 
ATOM      9  C   UNL     1       3.044  -0.722   1.047  0.00  0.00    +0.000 A 
ATOM     10  C   UNL     1       1.876  -0.224   0.409  0.00  0.00    +0.000 A 
ENDROOT
BRANCH   2  11
ATOM     11  C   UNL     1      -1.824   0.290   0.275  0.00  0.00    +0.000 A 
ATOM     12  C   UNL     1      -2.608   0.915  -0.671  0.00  0.00    +0.000 A 
ATOM     13  C   UNL     1      -3.988   0.983  -0.500  0.00  0.00    +0.000 A 
ATOM     14  C   UNL     1      -4.610   0.442   0.591  0.00  0.00    +0.000 A 
ATOM     15  O   UNL     1      -5.982   0.479   0.814  0.00  0.00    +0.000 OA
ATOM     16  C   UNL     1      -3.830  -0.186   1.542  0.00  0.00    +0.000 A 
ATOM     17  C   UNL     1      -2.447  -0.254   1.373  0.00  0.00    +0.000 A 
ENDBRANCH   2  11
BRANCH   1  19
ATOM     18  C   UNL     1      -0.409  -2.373   1.848  0.00  0.00    +0.000 C 
ATOM     19  C   UNL     1       0.201  -1.007   2.155  0.00  0.00    +0.000 C 
ENDBRANCH   1  19
TORSDOF 2
