REMARK  Name = 
REMARK  2 active torsions:
REMARK  status: ('A' for Active; 'I' for Inactive)
REMARK    1  A    between atoms: C_2  and  C_3
REMARK    2  A    between atoms: C_19  and  O_20
REMARK                            x       y       z     vdW  Elec       q    Type
REMARK                         _______ _______ _______ _____ _____    ______ ____
ROOT
ATOM      1  C   UNL     1       2.329   0.024   1.148  0.00  0.00    +0.000 C 
ATOM      2  O   UNL     1       1.614  -0.294   2.302  0.00  0.00    +0.000 OA
ATOM      3  C   UNL     1       2.861  -1.178   0.443  0.00  0.00    +0.000 C 
ATOM      4  C   UNL     1       3.126  -0.672  -0.882  0.00  0.00    +0.000 C 
ATOM      5  C   UNL     1       1.926   0.350  -1.248  0.00  0.00    +0.000 C 
ATOM      6  C   UNL     1       0.785  -0.882  -1.478  0.00  0.00    +0.000 C 
ATOM      7  C   UNL     1       0.599  -1.414   0.002  0.00  0.00    +0.000 C 
ATOM      8  C   UNL     1      -0.493  -2.467  -0.232  0.00  0.00    +0.000 C 
ATOM      9  C   UNL     1      -1.660  -1.553  -0.105  0.00  0.00    +0.000 A 
ATOM     10  C   UNL     1      -2.675  -1.902   0.738  0.00  0.00    +0.000 A 
ATOM     11  C   UNL     1      -3.756  -1.037   0.887  0.00  0.00    +0.000 A 
ATOM     12  O   UNL     1      -4.819  -1.361   1.746  0.00  0.00    +0.000 OA
ATOM     13  C   UNL     1      -3.754   0.134   0.176  0.00  0.00    +0.000 A 
ATOM     14  C   UNL     1      -2.688   0.413  -0.658  0.00  0.00    +0.000 A 
ATOM     15  C   UNL     1      -1.623  -0.411  -0.822  0.00  0.00    +0.000 A 
ATOM     16  C   UNL     1      -0.563   0.034  -1.801  0.00  0.00    +0.000 C 
ATOM     17  C   UNL     1      -0.046   1.540  -1.213  0.00  0.00    +0.000 C 
ATOM     18  C   UNL     1       0.146   1.109   0.355  0.00  0.00    +0.000 C 
ATOM     19  C   UNL     1       1.605   0.829   0.263  0.00  0.00    +0.000 C 
ATOM     20  C   UNL     1       2.229   2.242   0.182  0.00  0.00    +0.000 C 
ENDROOT
BRANCH   1  22
ATOM     21  C   UNL     1       4.507   1.335   2.063  0.00  0.00    +0.000 C 
ATOM     22  C   UNL     1       3.534   0.740   1.662  0.00  0.00    +0.000 C 
ENDBRANCH   1  22
BRANCH  17  23
ATOM     23  O   UNL     1      -1.380   2.175  -1.085  0.00  0.00    +0.000 OA
ATOM     24  C   UNL     1      -1.806   2.245  -2.446  0.00  0.00    +0.000 C 
ENDBRANCH  17  23
TORSDOF 2
