REMARK  Name = 
REMARK  3 active torsions:
REMARK  status: ('A' for Active; 'I' for Inactive)
REMARK    1  A    between atoms: C_5  and  C_6
REMARK    2  A    between atoms: C_6  and  C_7
REMARK    3  A    between atoms: C_6  and  C_14
REMARK                            x       y       z     vdW  Elec       q    Type
REMARK                         _______ _______ _______ _____ _____    ______ ____
ROOT
ATOM      1  C   UNL     1       0.085   1.023  -0.416  0.00  0.00    +0.000 C 
ENDROOT
BRANCH   1   6
ATOM      2  O   UNL     1      -4.715  -2.031  -0.612  0.00  0.00    +0.000 OA
ATOM      3  C   UNL     1      -3.538  -1.280  -0.557  0.00  0.00    +0.000 A 
ATOM      4  C   UNL     1      -3.104  -0.686   0.611  0.00  0.00    +0.000 A 
ATOM      5  C   UNL     1      -1.947   0.060   0.694  0.00  0.00    +0.000 A 
ATOM      6  C   UNL     1      -1.166   0.238  -0.425  0.00  0.00    +0.000 A 
ATOM      7  C   UNL     1      -1.591  -0.352  -1.598  0.00  0.00    +0.000 A 
ATOM      8  C   UNL     1      -2.751  -1.098  -1.676  0.00  0.00    +0.000 A 
ENDBRANCH   1   6
BRANCH   1   9
ATOM      9  C   UNL     1       1.246   0.158  -0.097  0.00  0.00    +0.000 A 
ATOM     10  C   UNL     1       1.693  -0.064   1.193  0.00  0.00    +0.000 A 
ATOM     11  C   UNL     1       2.788  -0.892   1.368  0.00  0.00    +0.000 A 
ATOM     12  C   UNL     1       3.442  -1.498   0.314  0.00  0.00    +0.000 A 
ATOM     13  O   UNL     1       4.550  -2.333   0.511  0.00  0.00    +0.000 OA
ATOM     14  C   UNL     1       2.984  -1.266  -0.966  0.00  0.00    +0.000 A 
ATOM     15  C   UNL     1       1.893  -0.443  -1.158  0.00  0.00    +0.000 A 
ENDBRANCH   1   9
BRANCH   1  16
ATOM     16  C   UNL     1       0.017   2.234   0.466  0.00  0.00    +0.000 C 
ATOM     17 CL   UNL     1      -0.309   1.842   2.159  0.00  0.00    +0.000 Cl
ATOM     18 CL   UNL     1       1.606   3.046   0.397  0.00  0.00    +0.000 Cl
ATOM     19 CL   UNL     1      -1.183   3.344  -0.208  0.00  0.00    +0.000 Cl
ENDBRANCH   1  16
TORSDOF 3
