REMARK  Name = 
REMARK  1 active torsions:
REMARK  status: ('A' for Active; 'I' for Inactive)
REMARK    1  A    between atoms: C_2  and  C_3
REMARK                            x       y       z     vdW  Elec       q    Type
REMARK                         _______ _______ _______ _____ _____    ______ ____
ROOT
ATOM      1  C   UNL     1      -3.360   0.894   0.395  0.00  0.00    +0.000 C 
ATOM      2  O   UNL     1      -3.691   2.258   0.254  0.00  0.00    +0.000 OA
ATOM      3  C   UNL     1      -3.700   0.270  -0.947  0.00  0.00    +0.000 C 
ATOM      4  C   UNL     1      -2.357   0.221  -1.677  0.00  0.00    +0.000 C 
ATOM      5  C   UNL     1      -1.616  -0.530  -0.461  0.00  0.00    +0.000 C 
ATOM      6  C   UNL     1      -0.070  -0.043  -0.838  0.00  0.00    +0.000 C 
ATOM      7  C   UNL     1       0.199  -1.256  -1.869  0.00  0.00    +0.000 C 
ATOM      8  C   UNL     1       1.650  -0.931  -2.261  0.00  0.00    +0.000 C 
ATOM      9  C   UNL     1       2.424  -0.506  -1.071  0.00  0.00    +0.000 A 
ATOM     10  C   UNL     1       3.740  -0.108  -1.323  0.00  0.00    +0.000 A 
ATOM     11  C   UNL     1       4.582   0.309  -0.316  0.00  0.00    +0.000 A 
ATOM     12  O   UNL     1       5.907   0.710  -0.569  0.00  0.00    +0.000 OA
ATOM     13  C   UNL     1       4.116   0.337   0.983  0.00  0.00    +0.000 A 
ATOM     14  C   UNL     1       2.804  -0.061   1.224  0.00  0.00    +0.000 A 
ATOM     15  C   UNL     1       2.013  -0.464   0.202  0.00  0.00    +0.000 A 
ATOM     16  C   UNL     1       0.540  -0.918   0.484  0.00  0.00    +0.000 C 
ATOM     17  C   UNL     1       0.202   0.254   1.538  0.00  0.00    +0.000 C 
ATOM     18  C   UNL     1      -1.320   0.211   1.767  0.00  0.00    +0.000 C 
ATOM     19  C   UNL     1      -1.903   0.717   0.523  0.00  0.00    +0.000 C 
ATOM     20  C   UNL     1      -1.226   1.947   0.084  0.00  0.00    +0.000 C 
ENDROOT
BRANCH   1  22
ATOM     21  C   UNL     1      -4.791  -0.056   2.395  0.00  0.00    +0.000 C 
ATOM     22  C   UNL     1      -4.144   0.365   1.482  0.00  0.00    +0.000 C 
ENDBRANCH   1  22
TORSDOF 1
