REMARK  Name = 
REMARK  6 active torsions:
REMARK  status: ('A' for Active; 'I' for Inactive)
REMARK    1  A    between atoms: C_2  and  C_3
REMARK    2  A    between atoms: C_3  and  C_4
REMARK    3  A    between atoms: C_3  and  C_12
REMARK    4  A    between atoms: C_7  and  O_8
REMARK    5  A    between atoms: C_12  and  C_13
REMARK    6  A    between atoms: C_12  and  C_15
REMARK                            x       y       z     vdW  Elec       q    Type
REMARK                         _______ _______ _______ _____ _____    ______ ____
ROOT
ATOM      1  C   UNL     1       0.161  -0.042  -0.861  0.00  0.00    +0.000 C 
ENDROOT
BRANCH   1   2
ATOM      2  C   UNL     1       1.643  -0.018  -0.369  0.00  0.00    +0.000 A 
ATOM      3  C   UNL     1       2.524  -0.648  -1.209  0.00  0.00    +0.000 A 
ATOM      4  C   UNL     1       3.896  -0.701  -0.889  0.00  0.00    +0.000 A 
ATOM      5  C   UNL     1       4.339  -0.112   0.275  0.00  0.00    +0.000 A 
ATOM      6  C   UNL     1       3.423   0.506   1.083  0.00  0.00    +0.000 A 
ATOM      7  C   UNL     1       2.068   0.550   0.754  0.00  0.00    +0.000 A 
BRANCH   5   8
ATOM      8  O   UNL     1       5.706  -0.153   0.612  0.00  0.00    +0.000 OA
ATOM      9  C   UNL     1       6.200   0.434   1.789  0.00  0.00    +0.000 C 
ENDBRANCH   5   8
ENDBRANCH   1   2
BRANCH   1  11
ATOM     10  C   UNL     1      -1.325  -2.044  -1.310  0.00  0.00    +0.000 C 
ATOM     11  C   UNL     1       0.039  -1.667  -0.863  0.00  0.00    +0.000 C 
ENDBRANCH   1  11
BRANCH   1  12
ATOM     12  C   UNL     1      -0.567   0.098   0.688  0.00  0.00    +0.000 C 
BRANCH  12  13
ATOM     13  C   UNL     1      -2.077   0.071   0.201  0.00  0.00    +0.000 A 
ATOM     14  C   UNL     1      -2.506   0.523  -0.961  0.00  0.00    +0.000 A 
ATOM     15  C   UNL     1      -3.843   0.448  -1.277  0.00  0.00    +0.000 A 
ATOM     16  C   UNL     1      -4.745  -0.096  -0.393  0.00  0.00    +0.000 A 
ATOM     17  O   UNL     1      -6.100  -0.165  -0.730  0.00  0.00    +0.000 OA
ATOM     18  C   UNL     1      -4.265  -0.558   0.810  0.00  0.00    +0.000 A 
ATOM     19  C   UNL     1      -2.927  -0.481   1.122  0.00  0.00    +0.000 A 
ENDBRANCH  12  13
BRANCH  12  20
ATOM     20  C   UNL     1      -0.457   1.720   0.765  0.00  0.00    +0.000 C 
ATOM     21  C   UNL     1      -1.187   2.337  -0.343  0.00  0.00    +0.000 C 
ENDBRANCH  12  20
ENDBRANCH   1  12
TORSDOF 6
