REMARK  Name = 
REMARK  0 active torsions:
REMARK  status: ('A' for Active; 'I' for Inactive)
REMARK                            x       y       z     vdW  Elec       q    Type
REMARK                         _______ _______ _______ _____ _____    ______ ____
ROOT
ATOM      1  C   UNL     1      -1.482   0.437   1.717  0.00  0.00    +0.000 C 
ATOM      2  C   UNL     1      -2.030  -0.416   0.726  0.00  0.00    +0.000 C 
ATOM      3  C   UNL     1      -1.548  -1.792   0.546  0.00  0.00    +0.000 C 
ATOM      4  C   UNL     1      -0.034  -1.633   0.537  0.00  0.00    +0.000 C 
ATOM      5  C   UNL     1       0.345  -0.950  -0.898  0.00  0.00    +0.000 C 
ATOM      6  C   UNL     1       1.851  -0.617  -0.510  0.00  0.00    +0.000 A 
ATOM      7  C   UNL     1       2.587  -1.552   0.139  0.00  0.00    +0.000 A 
ATOM      8  C   UNL     1       3.906  -1.280   0.479  0.00  0.00    +0.000 A 
ATOM      9  C   UNL     1       4.424  -0.043   0.135  0.00  0.00    +0.000 A 
ATOM     10  C   UNL     1       3.658   0.897  -0.527  0.00  0.00    +0.000 A 
ATOM     11  C   UNL     1       2.341   0.601  -0.856  0.00  0.00    +0.000 A 
ATOM     12  C   UNL     1       1.606   1.678  -1.569  0.00  0.00    +0.000 C 
ATOM     13  C   UNL     1       0.143   1.280  -1.795  0.00  0.00    +0.000 C 
ATOM     14  C   UNL     1      -0.195   0.604  -0.387  0.00  0.00    +0.000 C 
ATOM     15  C   UNL     1      -1.776   0.168  -0.791  0.00  0.00    +0.000 C 
ATOM     16  C   UNL     1      -2.473   1.558  -0.283  0.00  0.00    +0.000 C 
ATOM     17  C   UNL     1      -3.767   0.875  -0.443  0.00  0.00    +0.000 C 
ATOM     18  C   UNL     1      -3.673  -0.387   0.653  0.00  0.00    +0.000 C 
ATOM     19  O   UNL     1      -3.884   0.572   1.843  0.00  0.00    +0.000 OA
ENDROOT
TORSDOF 0
