REMARK  Name = 
REMARK  0 active torsions:
REMARK  status: ('A' for Active; 'I' for Inactive)
REMARK                            x       y       z     vdW  Elec       q    Type
REMARK                         _______ _______ _______ _____ _____    ______ ____
ROOT
ATOM      1  C   UNL     1       1.009  -1.584   0.000  0.00  0.00    +0.000 C 
ATOM      2  C   UNL     1       1.725  -0.266   0.000  0.00  0.00    +0.000 C 
ATOM      3  C   UNL     1       2.508  -1.545   0.000  0.00  0.00    +0.000 C 
ATOM      4  C   UNL     1       4.008  -1.506   0.000  0.00  0.00    +0.000 C 
ATOM      5  C   UNL     1       4.724  -0.187   0.000  0.00  0.00    +0.000 C 
ATOM      6  O   UNL     1       6.223  -0.148   0.000  0.00  0.00    +0.000 OA
ATOM      7  C   UNL     1       3.940   1.092   0.000  0.00  0.00    +0.000 C 
ATOM      8  C   UNL     1       2.441   1.052   0.000  0.00  0.00    +0.000 C 
ATOM      9  C   UNL     1       1.657   2.332   0.000  0.00  0.00    +0.000 C 
ATOM     10  C   UNL     1       0.157   2.292   0.000  0.00  0.00    +0.000 C 
ATOM     11  C   UNL     1      -0.558   0.974   0.000  0.00  0.00    +0.000 C 
ATOM     12  C   UNL     1       0.225  -0.305   0.000  0.00  0.00    +0.000 C 
ATOM     13  C   UNL     1      -0.491  -1.623   0.000  0.00  0.00    +0.000 C 
ATOM     14  C   UNL     1      -1.990  -1.662   0.000  0.00  0.00    +0.000 C 
ATOM     15  C   UNL     1      -2.774  -0.383   0.000  0.00  0.00    +0.000 C 
ATOM     16  C   UNL     1      -3.624  -1.619   0.000  0.00  0.00    +0.000 C 
ATOM     17  C   UNL     1      -4.249  -0.110   0.000  0.00  0.00    +0.000 C 
ATOM     18  O   UNL     1      -5.337  -1.142   0.000  0.00  0.00    +0.000 OA
ATOM     19  C   UNL     1      -4.444   1.378   0.000  0.00  0.00    +0.000 C 
ATOM     20  C   UNL     1      -3.090   2.023   0.000  0.00  0.00    +0.000 C 
ATOM     21  C   UNL     1      -2.058   0.935   0.000  0.00  0.00    +0.000 C 
ENDROOT
TORSDOF 0
