REMARK  Name = 
REMARK  3 active torsions:
REMARK  status: ('A' for Active; 'I' for Inactive)
REMARK    1  A    between atoms: C_2  and  C_3
REMARK    2  A    between atoms: C_4  and  C_5
REMARK    3  A    between atoms: C_8  and  O_9
REMARK                            x       y       z     vdW  Elec       q    Type
REMARK                         _______ _______ _______ _____ _____    ______ ____
ROOT
ATOM      1  C   UNL     1      -0.867  -0.360  -0.213  0.00  0.00    +0.000 A 
ATOM      2  C   UNL     1       0.218   0.319   0.317  0.00  0.00    +0.000 A 
ATOM      3  C   UNL     1      -0.085   1.491   1.011  0.00  0.00    +0.000 A 
ATOM      4  O   UNL     1       0.854   2.156   1.517  0.00  0.00    +0.000 OA
ATOM      5  O   UNL     1      -1.313   1.927   1.157  0.00  0.00    +0.000 OA
ATOM      6  C   UNL     1      -2.366   1.309   0.669  0.00  0.00    +0.000 A 
ATOM      7  C   UNL     1      -3.651   1.804   0.846  0.00  0.00    +0.000 A 
ATOM      8  C   UNL     1      -4.737   1.135   0.323  0.00  0.00    +0.000 A 
ATOM      9  O   UNL     1      -6.048   1.620   0.492  0.00  0.00    +0.000 OA
ATOM     10  C   UNL     1      -4.491  -0.032  -0.373  0.00  0.00    +0.000 A 
ATOM     11  C   UNL     1      -3.225  -0.548  -0.566  0.00  0.00    +0.000 A 
ATOM     12  C   UNL     1      -2.136   0.144  -0.029  0.00  0.00    +0.000 A 
ENDROOT
BRANCH   2  13
ATOM     13  C   UNL     1       1.565  -0.177   0.147  0.00  0.00    +0.000 A 
ATOM     14  C   UNL     1       2.255   0.080  -1.020  0.00  0.00    +0.000 A 
ATOM     15  C   UNL     1       3.528  -0.349  -1.269  0.00  0.00    +0.000 A 
ATOM     16  C   UNL     1       4.174  -1.095  -0.282  0.00  0.00    +0.000 A 
ATOM     17  C   UNL     1       3.507  -1.364   0.889  0.00  0.00    +0.000 A 
ATOM     18  C   UNL     1       2.221  -0.917   1.112  0.00  0.00    +0.000 A 
BRANCH  16  19
ATOM     19  O   UNL     1       5.469  -1.533  -0.529  0.00  0.00    +0.000 OA
ATOM     20  C   UNL     1       6.116  -1.232  -1.749  0.00  0.00    +0.000 C 
ENDBRANCH  16  19
ENDBRANCH   2  13
BRANCH   1  22
ATOM     21  C   UNL     1      -0.347  -2.744   0.024  0.00  0.00    +0.000 C 
ATOM     22  C   UNL     1      -0.641  -1.631  -0.975  0.00  0.00    +0.000 C 
ENDBRANCH   1  22
TORSDOF 3
