REMARK  Name = 
REMARK  0 active torsions:
REMARK  status: ('A' for Active; 'I' for Inactive)
REMARK                            x       y       z     vdW  Elec       q    Type
REMARK                         _______ _______ _______ _____ _____    ______ ____
ROOT
ATOM      1  C   UNL     1      -2.939   1.088  -0.213  0.00  0.00    +0.000 C 
ATOM      2  C   UNL     1      -2.689  -0.048   0.596  0.00  0.00    +0.000 C 
ATOM      3  C   UNL     1      -2.122   0.004   1.919  0.00  0.00    +0.000 C 
ATOM      4  C   UNL     1      -0.647   0.432   1.775  0.00  0.00    +0.000 C 
ATOM      5  C   UNL     1       0.051  -0.789   0.953  0.00  0.00    +0.000 C 
ATOM      6  C   UNL     1       1.448  -0.139   0.743  0.00  0.00    +0.000 A 
ATOM      7  C   UNL     1       2.072   0.247   1.884  0.00  0.00    +0.000 A 
ATOM      8  C   UNL     1       3.353   0.853   1.839  0.00  0.00    +0.000 A 
ATOM      9  C   UNL     1       3.935   1.036   0.624  0.00  0.00    +0.000 A 
ATOM     10  O   UNL     1       5.215   1.637   0.519  0.00  0.00    +0.000 OA
ATOM     11  C   UNL     1       3.280   0.635  -0.519  0.00  0.00    +0.000 A 
ATOM     12  O   UNL     1       3.876   0.821  -1.771  0.00  0.00    +0.000 OA
ATOM     13  C   UNL     1       2.018   0.039  -0.455  0.00  0.00    +0.000 A 
ATOM     14  C   UNL     1       1.400  -0.357  -1.771  0.00  0.00    +0.000 C 
ATOM     15  C   UNL     1       0.220  -1.272  -1.394  0.00  0.00    +0.000 C 
ATOM     16  C   UNL     1      -0.609  -0.214  -0.536  0.00  0.00    +0.000 C 
ATOM     17  C   UNL     1      -1.925  -1.231  -0.264  0.00  0.00    +0.000 C 
ATOM     18  C   UNL     1      -2.785  -0.843  -1.581  0.00  0.00    +0.000 C 
ATOM     19  C   UNL     1      -4.178  -0.863  -1.086  0.00  0.00    +0.000 C 
ATOM     20  C   UNL     1      -3.982  -1.071   0.555  0.00  0.00    +0.000 C 
ATOM     21  O   UNL     1      -4.991   0.036   0.887  0.00  0.00    +0.000 OA
ENDROOT
TORSDOF 0
