REMARK  Name = 
REMARK  1 active torsions:
REMARK  status: ('A' for Active; 'I' for Inactive)
REMARK    1  A    between atoms: C_2  and  C_3
REMARK                            x       y       z     vdW  Elec       q    Type
REMARK                         _______ _______ _______ _____ _____    ______ ____
ROOT
ATOM      1  C   UNL     1      -3.121   0.850  -0.131  0.00  0.00    +0.000 C 
ATOM      2  O   UNL     1      -3.101   2.191  -0.418  0.00  0.00    +0.000 OA
ATOM      3  C   UNL     1      -3.006   0.055  -1.374  0.00  0.00    +0.000 C 
ATOM      4  C   UNL     1      -2.287  -1.158  -1.132  0.00  0.00    +0.000 C 
ATOM      5  C   UNL     1      -1.686  -1.071   0.367  0.00  0.00    +0.000 C 
ATOM      6  C   UNL     1      -0.096  -1.114  -0.221  0.00  0.00    +0.000 C 
ATOM      7  C   UNL     1      -0.056   0.213  -1.077  0.00  0.00    +0.000 C 
ATOM      8  C   UNL     1       1.260   0.845  -1.117  0.00  0.00    +0.000 C 
ATOM      9  C   UNL     1       2.354   0.091  -0.481  0.00  0.00    +0.000 A 
ATOM     10  C   UNL     1       3.615   0.160  -1.039  0.00  0.00    +0.000 A 
ATOM     11  C   UNL     1       4.631  -0.550  -0.440  0.00  0.00    +0.000 A 
ATOM     12  O   UNL     1       5.944  -0.517  -0.968  0.00  0.00    +0.000 OA
ATOM     13  C   UNL     1       4.349  -1.290   0.679  0.00  0.00    +0.000 A 
ATOM     14  C   UNL     1       3.084  -1.341   1.214  0.00  0.00    +0.000 A 
ATOM     15  C   UNL     1       2.087  -0.639   0.619  0.00  0.00    +0.000 A 
ATOM     16  C   UNL     1       0.638  -0.696   1.236  0.00  0.00    +0.000 C 
ATOM     17  C   UNL     1       0.410   0.892   1.283  0.00  0.00    +0.000 C 
ATOM     18  C   UNL     1      -0.855   1.323   0.847  0.00  0.00    +0.000 C 
ATOM     19  C   UNL     1      -1.924   0.475   0.643  0.00  0.00    +0.000 C 
ATOM     20  C   UNL     1      -2.438   0.471   2.111  0.00  0.00    +0.000 C 
ENDROOT
BRANCH   1  22
ATOM     21  C   UNL     1      -5.421   0.271   1.135  0.00  0.00    +0.000 C 
ATOM     22  C   UNL     1      -4.384   0.538   0.552  0.00  0.00    +0.000 C 
ENDBRANCH   1  22
TORSDOF 1
