MODEL 1
REMARK VINA RESULT:      -7.5      0.000      0.000
REMARK  Name = 
REMARK  8 active torsions:
REMARK  status: ('A' for Active; 'I' for Inactive)
REMARK    1  A    between atoms: C_2  and  C_3
REMARK    2  A    between atoms: C_3  and  O_4
REMARK    3  A    between atoms: O_4  and  C_5
REMARK    4  A    between atoms: C_5  and  C_7
REMARK    5  A    between atoms: N_10  and  C_11
REMARK    6  A    between atoms: C_14  and  C_15
REMARK    7  A    between atoms: C_15  and  C_16
REMARK    8  A    between atoms: C_16  and  C_17
REMARK                            x       y       z     vdW  Elec       q    Type
REMARK                         _______ _______ _______ _____ _____    ______ ____
ROOT
ATOM      1  C   UNL     1      36.067  -0.539  16.684  0.00  0.00    +0.000 A 
ATOM      2  C   UNL     1      35.272  -1.663  16.641  0.00  0.00    +0.000 A 
ATOM      3  N   UNL     1      34.019  -1.729  17.335  0.00  0.00    +0.000 NA
ATOM      4  N   UNL     1      35.848  -2.613  15.885  0.00  0.00    +0.000 N 
ATOM      5  C   UNL     1      37.029  -2.136  15.417  0.00  0.00    +0.000 A 
ATOM      6  N   UNL     1      37.993  -2.644  14.633  0.00  0.00    +0.000 NA
ATOM      7  C   UNL     1      39.076  -1.891  14.345  0.00  0.00    +0.000 A 
ATOM      8  C   UNL     1      40.066  -2.430  13.533  0.00  0.00    +0.000 A 
ATOM      9  C   UNL     1      41.192  -1.710  13.206  0.00  0.00    +0.000 A 
ATOM     10  C   UNL     1      41.331  -0.429  13.696  0.00  0.00    +0.000 A 
ATOM     11  C   UNL     1      40.366   0.133  14.504  0.00  0.00    +0.000 A 
ATOM     12  C   UNL     1      39.249  -0.608  14.818  0.00  0.00    +0.000 A 
ATOM     13  N   UNL     1      38.263  -0.107  15.611  0.00  0.00    +0.000 NA
ATOM     14  C   UNL     1      37.179  -0.855  15.902  0.00  0.00    +0.000 A 
ENDROOT
BRANCH   4  15
ATOM     15  C   UNL     1      35.295  -3.896  15.632  0.00  0.00    +0.000 A 
ATOM     16  C   UNL     1      34.235  -4.051  14.750  0.00  0.00    +0.000 A 
ATOM     17  C   UNL     1      33.689  -5.292  14.497  0.00  0.00    +0.000 A 
ATOM     18  C   UNL     1      34.153  -6.445  15.095  0.00  0.00    +0.000 A 
ATOM     19  C   UNL     1      35.223  -6.271  15.984  0.00  0.00    +0.000 A 
ATOM     20  C   UNL     1      35.763  -5.029  16.231  0.00  0.00    +0.000 A 
BRANCH  18  21
ATOM     21  C   UNL     1      33.589  -7.785  14.843  0.00  0.00    +0.000 C 
BRANCH  21  22
ATOM     22  C   UNL     1      34.293  -8.650  13.881  0.00  0.00    +0.000 C 
BRANCH  22  23
ATOM     23  C   UNL     1      33.893  -8.380  12.470  0.00  0.00    +0.000 C 
ATOM     24  C   UNL     1      32.601  -9.003  12.063  0.00  0.00    +0.000 C 
ENDBRANCH  22  23
ENDBRANCH  21  22
ENDBRANCH  18  21
ENDBRANCH   4  15
BRANCH   1  25
ATOM     25  C   UNL     1      35.830   0.718  17.382  0.00  0.00    +0.000 C 
ATOM     26  O   UNL     1      36.558   1.006  18.364  0.00  0.00    +0.000 OA
BRANCH  25  27
ATOM     27  O   UNL     1      34.831   1.583  16.984  0.00  0.00    +0.000 OA
BRANCH  27  28
ATOM     28  C   UNL     1      35.067   2.692  16.128  0.00  0.00    +0.000 C 
BRANCH  28  30
ATOM     29  C   UNL     1      36.308   2.552  14.065  0.00  0.00    +0.000 C 
ATOM     30  C   UNL     1      35.155   2.318  14.709  0.00  0.00    +0.000 C 
ENDBRANCH  28  30
ENDBRANCH  27  28
ENDBRANCH  25  27
ENDBRANCH   1  25
TORSDOF 8
ENDMDL
MODEL 2
REMARK VINA RESULT:      -7.3      1.153      2.273
REMARK  Name = 
REMARK  8 active torsions:
REMARK  status: ('A' for Active; 'I' for Inactive)
REMARK    1  A    between atoms: C_2  and  C_3
REMARK    2  A    between atoms: C_3  and  O_4
REMARK    3  A    between atoms: O_4  and  C_5
REMARK    4  A    between atoms: C_5  and  C_7
REMARK    5  A    between atoms: N_10  and  C_11
REMARK    6  A    between atoms: C_14  and  C_15
REMARK    7  A    between atoms: C_15  and  C_16
REMARK    8  A    between atoms: C_16  and  C_17
REMARK                            x       y       z     vdW  Elec       q    Type
REMARK                         _______ _______ _______ _____ _____    ______ ____
ROOT
ATOM      1  C   UNL     1      35.562  -0.737  16.576  0.00  0.00    +0.000 A 
ATOM      2  C   UNL     1      34.840  -1.903  16.450  0.00  0.00    +0.000 A 
ATOM      3  N   UNL     1      33.572  -2.080  17.096  0.00  0.00    +0.000 NA
ATOM      4  N   UNL     1      35.496  -2.776  15.668  0.00  0.00    +0.000 N 
ATOM      5  C   UNL     1      36.660  -2.205  15.265  0.00  0.00    +0.000 A 
ATOM      6  N   UNL     1      37.677  -2.613  14.490  0.00  0.00    +0.000 NA
ATOM      7  C   UNL     1      38.720  -1.784  14.278  0.00  0.00    +0.000 A 
ATOM      8  C   UNL     1      39.766  -2.219  13.474  0.00  0.00    +0.000 A 
ATOM      9  C   UNL     1      40.855  -1.417  13.222  0.00  0.00    +0.000 A 
ATOM     10  C   UNL     1      40.900  -0.158  13.780  0.00  0.00    +0.000 A 
ATOM     11  C   UNL     1      39.878   0.303  14.582  0.00  0.00    +0.000 A 
ATOM     12  C   UNL     1      38.800  -0.519  14.819  0.00  0.00    +0.000 A 
ATOM     13  N   UNL     1      37.761  -0.119  15.602  0.00  0.00    +0.000 NA
ATOM     14  C   UNL     1      36.715  -0.945  15.818  0.00  0.00    +0.000 A 
ENDROOT
BRANCH   4  15
ATOM     15  C   UNL     1      35.030  -4.074  15.331  0.00  0.00    +0.000 A 
ATOM     16  C   UNL     1      35.485  -5.192  16.016  0.00  0.00    +0.000 A 
ATOM     17  C   UNL     1      35.040  -6.458  15.699  0.00  0.00    +0.000 A 
ATOM     18  C   UNL     1      34.126  -6.694  14.693  0.00  0.00    +0.000 A 
ATOM     19  C   UNL     1      33.677  -5.556  14.010  0.00  0.00    +0.000 A 
ATOM     20  C   UNL     1      34.126  -4.295  14.334  0.00  0.00    +0.000 A 
BRANCH  18  21
ATOM     21  C   UNL     1      33.632  -8.037  14.331  0.00  0.00    +0.000 C 
BRANCH  21  22
ATOM     22  C   UNL     1      33.704  -8.429  12.913  0.00  0.00    +0.000 C 
BRANCH  22  23
ATOM     23  C   UNL     1      32.501  -9.190  12.468  0.00  0.00    +0.000 C 
ATOM     24  C   UNL     1      32.418  -9.411  10.996  0.00  0.00    +0.000 C 
ENDBRANCH  22  23
ENDBRANCH  21  22
ENDBRANCH  18  21
ENDBRANCH   4  15
BRANCH   1  25
ATOM     25  C   UNL     1      35.227   0.466  17.328  0.00  0.00    +0.000 C 
ATOM     26  O   UNL     1      34.451   1.303  16.806  0.00  0.00    +0.000 OA
BRANCH  25  27
ATOM     27  O   UNL     1      35.745   0.694  18.586  0.00  0.00    +0.000 OA
BRANCH  27  28
ATOM     28  C   UNL     1      35.999  -0.350  19.517  0.00  0.00    +0.000 C 
BRANCH  28  30
ATOM     29  C   UNL     1      37.516  -2.220  19.394  0.00  0.00    +0.000 C 
ATOM     30  C   UNL     1      37.364  -0.888  19.423  0.00  0.00    +0.000 C 
ENDBRANCH  28  30
ENDBRANCH  27  28
ENDBRANCH  25  27
ENDBRANCH   1  25
TORSDOF 8
ENDMDL
MODEL 3
REMARK VINA RESULT:      -7.0      3.790      7.940
REMARK  Name = 
REMARK  8 active torsions:
REMARK  status: ('A' for Active; 'I' for Inactive)
REMARK    1  A    between atoms: C_2  and  C_3
REMARK    2  A    between atoms: C_3  and  O_4
REMARK    3  A    between atoms: O_4  and  C_5
REMARK    4  A    between atoms: C_5  and  C_7
REMARK    5  A    between atoms: N_10  and  C_11
REMARK    6  A    between atoms: C_14  and  C_15
REMARK    7  A    between atoms: C_15  and  C_16
REMARK    8  A    between atoms: C_16  and  C_17
REMARK                            x       y       z     vdW  Elec       q    Type
REMARK                         _______ _______ _______ _____ _____    ______ ____
ROOT
ATOM      1  C   UNL     1      36.281  -0.544  16.355  0.00  0.00    +0.000 A 
ATOM      2  C   UNL     1      35.823   0.742  16.172  0.00  0.00    +0.000 A 
ATOM      3  N   UNL     1      34.523   1.152  16.619  0.00  0.00    +0.000 NA
ATOM      4  N   UNL     1      36.751   1.483  15.545  0.00  0.00    +0.000 N 
ATOM      5  C   UNL     1      37.835   0.704  15.303  0.00  0.00    +0.000 A 
ATOM      6  N   UNL     1      39.024   0.919  14.719  0.00  0.00    +0.000 NA
ATOM      7  C   UNL     1      39.911  -0.095  14.631  0.00  0.00    +0.000 A 
ATOM      8  C   UNL     1      41.138   0.143  14.024  0.00  0.00    +0.000 A 
ATOM      9  C   UNL     1      42.082  -0.852  13.907  0.00  0.00    +0.000 A 
ATOM     10  C   UNL     1      41.796  -2.105  14.406  0.00  0.00    +0.000 A 
ATOM     11  C   UNL     1      40.587  -2.371  15.014  0.00  0.00    +0.000 A 
ATOM     12  C   UNL     1      39.660  -1.359  15.118  0.00  0.00    +0.000 A 
ATOM     13  N   UNL     1      38.451  -1.562  15.708  0.00  0.00    +0.000 NA
ATOM     14  C   UNL     1      37.560  -0.552  15.797  0.00  0.00    +0.000 A 
ENDROOT
BRANCH   4  15
ATOM     15  C   UNL     1      36.601   2.853  15.203  0.00  0.00    +0.000 A 
ATOM     16  C   UNL     1      35.696   3.248  14.229  0.00  0.00    +0.000 A 
ATOM     17  C   UNL     1      35.541   4.575  13.889  0.00  0.00    +0.000 A 
ATOM     18  C   UNL     1      36.267   5.585  14.485  0.00  0.00    +0.000 A 
ATOM     19  C   UNL     1      37.178   5.171  15.467  0.00  0.00    +0.000 A 
ATOM     20  C   UNL     1      37.325   3.843  15.801  0.00  0.00    +0.000 A 
BRANCH  18  21
ATOM     21  C   UNL     1      36.124   7.013  14.141  0.00  0.00    +0.000 C 
BRANCH  21  22
ATOM     22  C   UNL     1      34.925   7.413  13.385  0.00  0.00    +0.000 C 
BRANCH  22  23
ATOM     23  C   UNL     1      33.711   7.512  14.246  0.00  0.00    +0.000 C 
ATOM     24  C   UNL     1      33.729   8.644  15.215  0.00  0.00    +0.000 C 
ENDBRANCH  22  23
ENDBRANCH  21  22
ENDBRANCH  18  21
ENDBRANCH   4  15
BRANCH   1  25
ATOM     25  C   UNL     1      35.606  -1.671  16.986  0.00  0.00    +0.000 C 
ATOM     26  O   UNL     1      34.673  -2.237  16.364  0.00  0.00    +0.000 OA
BRANCH  25  27
ATOM     27  O   UNL     1      35.972  -2.118  18.239  0.00  0.00    +0.000 OA
BRANCH  27  28
ATOM     28  C   UNL     1      36.722  -1.327  19.151  0.00  0.00    +0.000 C 
BRANCH  28  30
ATOM     29  C   UNL     1      38.391  -3.057  18.963  0.00  0.00    +0.000 C 
ATOM     30  C   UNL     1      38.105  -1.796  19.319  0.00  0.00    +0.000 C 
ENDBRANCH  28  30
ENDBRANCH  27  28
ENDBRANCH  25  27
ENDBRANCH   1  25
TORSDOF 8
ENDMDL
MODEL 4
REMARK VINA RESULT:      -7.0      2.674      8.112
REMARK  Name = 
REMARK  8 active torsions:
REMARK  status: ('A' for Active; 'I' for Inactive)
REMARK    1  A    between atoms: C_2  and  C_3
REMARK    2  A    between atoms: C_3  and  O_4
REMARK    3  A    between atoms: O_4  and  C_5
REMARK    4  A    between atoms: C_5  and  C_7
REMARK    5  A    between atoms: N_10  and  C_11
REMARK    6  A    between atoms: C_14  and  C_15
REMARK    7  A    between atoms: C_15  and  C_16
REMARK    8  A    between atoms: C_16  and  C_17
REMARK                            x       y       z     vdW  Elec       q    Type
REMARK                         _______ _______ _______ _____ _____    ______ ____
ROOT
ATOM      1  C   UNL     1      36.036  -0.206  16.558  0.00  0.00    +0.000 A 
ATOM      2  C   UNL     1      35.688   1.096  16.275  0.00  0.00    +0.000 A 
ATOM      3  N   UNL     1      34.439   1.654  16.706  0.00  0.00    +0.000 NA
ATOM      4  N   UNL     1      36.663   1.698  15.573  0.00  0.00    +0.000 N 
ATOM      5  C   UNL     1      37.668   0.808  15.380  0.00  0.00    +0.000 A 
ATOM      6  N   UNL     1      38.859   0.868  14.762  0.00  0.00    +0.000 NA
ATOM      7  C   UNL     1      39.652  -0.224  14.746  0.00  0.00    +0.000 A 
ATOM      8  C   UNL     1      40.880  -0.147  14.102  0.00  0.00    +0.000 A 
ATOM      9  C   UNL     1      41.731  -1.228  14.054  0.00  0.00    +0.000 A 
ATOM     10  C   UNL     1      41.348  -2.405  14.661  0.00  0.00    +0.000 A 
ATOM     11  C   UNL     1      40.136  -2.512  15.308  0.00  0.00    +0.000 A 
ATOM     12  C   UNL     1      39.303  -1.417  15.341  0.00  0.00    +0.000 A 
ATOM     13  N   UNL     1      38.094  -1.463  15.964  0.00  0.00    +0.000 NA
ATOM     14  C   UNL     1      37.297  -0.374  15.983  0.00  0.00    +0.000 A 
ENDROOT
BRANCH   4  15
ATOM     15  C   UNL     1      36.624   3.043  15.119  0.00  0.00    +0.000 A 
ATOM     16  C   UNL     1      37.335   4.035  15.779  0.00  0.00    +0.000 A 
ATOM     17  C   UNL     1      37.305   5.345  15.347  0.00  0.00    +0.000 A 
ATOM     18  C   UNL     1      36.577   5.749  14.248  0.00  0.00    +0.000 A 
ATOM     19  C   UNL     1      35.865   4.735  13.593  0.00  0.00    +0.000 A 
ATOM     20  C   UNL     1      35.901   3.430  14.030  0.00  0.00    +0.000 A 
BRANCH  18  21
ATOM     21  C   UNL     1      36.527   7.142  13.764  0.00  0.00    +0.000 C 
BRANCH  21  22
ATOM     22  C   UNL     1      35.779   8.118  14.575  0.00  0.00    +0.000 C 
BRANCH  22  23
ATOM     23  C   UNL     1      34.304   7.914  14.502  0.00  0.00    +0.000 C 
ATOM     24  C   UNL     1      33.516   8.745  15.456  0.00  0.00    +0.000 C 
ENDBRANCH  22  23
ENDBRANCH  21  22
ENDBRANCH  18  21
ENDBRANCH   4  15
BRANCH   1  25
ATOM     25  C   UNL     1      35.280  -1.214  17.291  0.00  0.00    +0.000 C 
ATOM     26  O   UNL     1      35.445  -1.302  18.533  0.00  0.00    +0.000 OA
BRANCH  25  27
ATOM     27  O   UNL     1      34.399  -2.059  16.649  0.00  0.00    +0.000 OA
BRANCH  27  28
ATOM     28  C   UNL     1      34.824  -3.173  15.876  0.00  0.00    +0.000 C 
BRANCH  28  30
ATOM     29  C   UNL     1      33.877  -4.725  14.292  0.00  0.00    +0.000 C 
ATOM     30  C   UNL     1      33.709  -4.015  15.417  0.00  0.00    +0.000 C 
ENDBRANCH  28  30
ENDBRANCH  27  28
ENDBRANCH  25  27
ENDBRANCH   1  25
TORSDOF 8
ENDMDL
MODEL 5
REMARK VINA RESULT:      -6.8      5.229     10.844
REMARK  Name = 
REMARK  8 active torsions:
REMARK  status: ('A' for Active; 'I' for Inactive)
REMARK    1  A    between atoms: C_2  and  C_3
REMARK    2  A    between atoms: C_3  and  O_4
REMARK    3  A    between atoms: O_4  and  C_5
REMARK    4  A    between atoms: C_5  and  C_7
REMARK    5  A    between atoms: N_10  and  C_11
REMARK    6  A    between atoms: C_14  and  C_15
REMARK    7  A    between atoms: C_15  and  C_16
REMARK    8  A    between atoms: C_16  and  C_17
REMARK                            x       y       z     vdW  Elec       q    Type
REMARK                         _______ _______ _______ _____ _____    ______ ____
ROOT
ATOM      1  C   UNL     1      39.106   3.667  14.353  0.00  0.00    +0.000 A 
ATOM      2  C   UNL     1      39.376   4.743  15.169  0.00  0.00    +0.000 A 
ATOM      3  N   UNL     1      40.279   5.785  14.772  0.00  0.00    +0.000 NA
ATOM      4  N   UNL     1      38.687   4.641  16.318  0.00  0.00    +0.000 N 
ATOM      5  C   UNL     1      37.954   3.500  16.282  0.00  0.00    +0.000 A 
ATOM      6  N   UNL     1      37.102   2.914  17.139  0.00  0.00    +0.000 NA
ATOM      7  C   UNL     1      36.518   1.747  16.795  0.00  0.00    +0.000 A 
ATOM      8  C   UNL     1      35.639   1.152  17.691  0.00  0.00    +0.000 A 
ATOM      9  C   UNL     1      35.014  -0.038  17.396  0.00  0.00    +0.000 A 
ATOM     10  C   UNL     1      35.269  -0.643  16.183  0.00  0.00    +0.000 A 
ATOM     11  C   UNL     1      36.136  -0.076  15.273  0.00  0.00    +0.000 A 
ATOM     12  C   UNL     1      36.749   1.113  15.593  0.00  0.00    +0.000 A 
ATOM     13  N   UNL     1      37.614   1.720  14.735  0.00  0.00    +0.000 NA
ATOM     14  C   UNL     1      38.201   2.887  15.074  0.00  0.00    +0.000 A 
ENDROOT
BRANCH   4  15
ATOM     15  C   UNL     1      38.735   5.583  17.380  0.00  0.00    +0.000 A 
ATOM     16  C   UNL     1      37.998   6.757  17.322  0.00  0.00    +0.000 A 
ATOM     17  C   UNL     1      38.037   7.679  18.347  0.00  0.00    +0.000 A 
ATOM     18  C   UNL     1      38.801   7.498  19.481  0.00  0.00    +0.000 A 
ATOM     19  C   UNL     1      39.539   6.308  19.524  0.00  0.00    +0.000 A 
ATOM     20  C   UNL     1      39.495   5.392  18.497  0.00  0.00    +0.000 A 
BRANCH  18  21
ATOM     21  C   UNL     1      38.862   8.467  20.593  0.00  0.00    +0.000 C 
BRANCH  21  22
ATOM     22  C   UNL     1      37.887   9.571  20.588  0.00  0.00    +0.000 C 
BRANCH  22  23
ATOM     23  C   UNL     1      38.501  10.876  20.209  0.00  0.00    +0.000 C 
ATOM     24  C   UNL     1      38.857  11.751  21.362  0.00  0.00    +0.000 C 
ENDBRANCH  22  23
ENDBRANCH  21  22
ENDBRANCH  18  21
ENDBRANCH   4  15
BRANCH   1  25
ATOM     25  C   UNL     1      39.632   3.376  13.025  0.00  0.00    +0.000 C 
ATOM     26  O   UNL     1      39.081   3.907  12.030  0.00  0.00    +0.000 OA
BRANCH  25  27
ATOM     27  O   UNL     1      40.712   2.535  12.849  0.00  0.00    +0.000 OA
BRANCH  27  28
ATOM     28  C   UNL     1      40.586   1.121  12.783  0.00  0.00    +0.000 C 
BRANCH  28  30
ATOM     29  C   UNL     1      40.245  -0.573  14.464  0.00  0.00    +0.000 C 
ATOM     30  C   UNL     1      40.996   0.446  14.023  0.00  0.00    +0.000 C 
ENDBRANCH  28  30
ENDBRANCH  27  28
ENDBRANCH  25  27
ENDBRANCH   1  25
TORSDOF 8
ENDMDL
MODEL 6
REMARK VINA RESULT:      -6.7      4.280      7.378
REMARK  Name = 
REMARK  8 active torsions:
REMARK  status: ('A' for Active; 'I' for Inactive)
REMARK    1  A    between atoms: C_2  and  C_3
REMARK    2  A    between atoms: C_3  and  O_4
REMARK    3  A    between atoms: O_4  and  C_5
REMARK    4  A    between atoms: C_5  and  C_7
REMARK    5  A    between atoms: N_10  and  C_11
REMARK    6  A    between atoms: C_14  and  C_15
REMARK    7  A    between atoms: C_15  and  C_16
REMARK    8  A    between atoms: C_16  and  C_17
REMARK                            x       y       z     vdW  Elec       q    Type
REMARK                         _______ _______ _______ _____ _____    ______ ____
ROOT
ATOM      1  C   UNL     1      37.181   5.061  13.727  0.00  0.00    +0.000 A 
ATOM      2  C   UNL     1      37.423   3.719  13.531  0.00  0.00    +0.000 A 
ATOM      3  N   UNL     1      37.062   3.057  12.311  0.00  0.00    +0.000 NA
ATOM      4  N   UNL     1      38.016   3.188  14.614  0.00  0.00    +0.000 N 
ATOM      5  C   UNL     1      38.175   4.165  15.542  0.00  0.00    +0.000 A 
ATOM      6  N   UNL     1      38.697   4.199  16.778  0.00  0.00    +0.000 NA
ATOM      7  C   UNL     1      38.705   5.363  17.461  0.00  0.00    +0.000 A 
ATOM      8  C   UNL     1      39.248   5.382  18.740  0.00  0.00    +0.000 A 
ATOM      9  C   UNL     1      39.284   6.540  19.483  0.00  0.00    +0.000 A 
ATOM     10  C   UNL     1      38.771   7.698  18.940  0.00  0.00    +0.000 A 
ATOM     11  C   UNL     1      38.225   7.710  17.674  0.00  0.00    +0.000 A 
ATOM     12  C   UNL     1      38.201   6.540  16.951  0.00  0.00    +0.000 A 
ATOM     13  N   UNL     1      37.676   6.490  15.696  0.00  0.00    +0.000 NA
ATOM     14  C   UNL     1      37.664   5.328  15.009  0.00  0.00    +0.000 A 
ENDROOT
BRANCH   4  15
ATOM     15  C   UNL     1      38.402   1.828  14.743  0.00  0.00    +0.000 A 
ATOM     16  C   UNL     1      37.512   0.879  15.224  0.00  0.00    +0.000 A 
ATOM     17  C   UNL     1      37.876  -0.445  15.354  0.00  0.00    +0.000 A 
ATOM     18  C   UNL     1      39.132  -0.907  15.020  0.00  0.00    +0.000 A 
ATOM     19  C   UNL     1      40.020   0.064  14.536  0.00  0.00    +0.000 A 
ATOM     20  C   UNL     1      39.648   1.383  14.409  0.00  0.00    +0.000 A 
BRANCH  18  21
ATOM     21  C   UNL     1      39.550  -2.316  15.148  0.00  0.00    +0.000 C 
BRANCH  21  22
ATOM     22  C   UNL     1      38.904  -3.124  16.197  0.00  0.00    +0.000 C 
BRANCH  22  23
ATOM     23  C   UNL     1      37.735  -3.897  15.686  0.00  0.00    +0.000 C 
ATOM     24  C   UNL     1      36.588  -3.984  16.635  0.00  0.00    +0.000 C 
ENDBRANCH  22  23
ENDBRANCH  21  22
ENDBRANCH  18  21
ENDBRANCH   4  15
BRANCH   1  25
ATOM     25  C   UNL     1      36.560   6.017  12.821  0.00  0.00    +0.000 C 
ATOM     26  O   UNL     1      37.261   6.952  12.361  0.00  0.00    +0.000 OA
BRANCH  25  27
ATOM     27  O   UNL     1      35.231   5.911  12.465  0.00  0.00    +0.000 OA
BRANCH  27  28
ATOM     28  C   UNL     1      34.302   6.973  12.629  0.00  0.00    +0.000 C 
BRANCH  28  30
ATOM     29  C   UNL     1      33.739   8.052  14.711  0.00  0.00    +0.000 C 
ATOM     30  C   UNL     1      33.635   6.960  13.940  0.00  0.00    +0.000 C 
ENDBRANCH  28  30
ENDBRANCH  27  28
ENDBRANCH  25  27
ENDBRANCH   1  25
TORSDOF 8
ENDMDL
MODEL 7
REMARK VINA RESULT:      -6.7      5.225      7.978
REMARK  Name = 
REMARK  8 active torsions:
REMARK  status: ('A' for Active; 'I' for Inactive)
REMARK    1  A    between atoms: C_2  and  C_3
REMARK    2  A    between atoms: C_3  and  O_4
REMARK    3  A    between atoms: O_4  and  C_5
REMARK    4  A    between atoms: C_5  and  C_7
REMARK    5  A    between atoms: N_10  and  C_11
REMARK    6  A    between atoms: C_14  and  C_15
REMARK    7  A    between atoms: C_15  and  C_16
REMARK    8  A    between atoms: C_16  and  C_17
REMARK                            x       y       z     vdW  Elec       q    Type
REMARK                         _______ _______ _______ _____ _____    ______ ____
ROOT
ATOM      1  C   UNL     1      37.258   6.263  14.299  0.00  0.00    +0.000 A 
ATOM      2  C   UNL     1      36.723   4.996  14.232  0.00  0.00    +0.000 A 
ATOM      3  N   UNL     1      35.982   4.549  13.088  0.00  0.00    +0.000 NA
ATOM      4  N   UNL     1      37.004   4.310  15.352  0.00  0.00    +0.000 N 
ATOM      5  C   UNL     1      37.726   5.109  16.178  0.00  0.00    +0.000 A 
ATOM      6  N   UNL     1      38.263   4.944  17.397  0.00  0.00    +0.000 NA
ATOM      7  C   UNL     1      38.944   5.963  17.963  0.00  0.00    +0.000 A 
ATOM      8  C   UNL     1      39.494   5.778  19.225  0.00  0.00    +0.000 A 
ATOM      9  C   UNL     1      40.199   6.781  19.851  0.00  0.00    +0.000 A 
ATOM     10  C   UNL     1      40.359   7.988  19.205  0.00  0.00    +0.000 A 
ATOM     11  C   UNL     1      39.825   8.201  17.952  0.00  0.00    +0.000 A 
ATOM     12  C   UNL     1      39.124   7.183  17.347  0.00  0.00    +0.000 A 
ATOM     13  N   UNL     1      38.575   7.335  16.112  0.00  0.00    +0.000 NA
ATOM     14  C   UNL     1      37.892   6.319  15.541  0.00  0.00    +0.000 A 
ENDROOT
BRANCH   4  15
ATOM     15  C   UNL     1      36.601   2.973  15.608  0.00  0.00    +0.000 A 
ATOM     16  C   UNL     1      35.436   2.704  16.311  0.00  0.00    +0.000 A 
ATOM     17  C   UNL     1      35.034   1.410  16.566  0.00  0.00    +0.000 A 
ATOM     18  C   UNL     1      35.755   0.312  16.145  0.00  0.00    +0.000 A 
ATOM     19  C   UNL     1      36.930   0.599  15.437  0.00  0.00    +0.000 A 
ATOM     20  C   UNL     1      37.323   1.895  15.187  0.00  0.00    +0.000 A 
BRANCH  18  21
ATOM     21  C   UNL     1      35.351  -1.084  16.403  0.00  0.00    +0.000 C 
BRANCH  21  22
ATOM     22  C   UNL     1      35.559  -1.613  17.761  0.00  0.00    +0.000 C 
BRANCH  22  23
ATOM     23  C   UNL     1      36.943  -2.130  17.969  0.00  0.00    +0.000 C 
ATOM     24  C   UNL     1      37.559  -1.745  19.270  0.00  0.00    +0.000 C 
ENDBRANCH  22  23
ENDBRANCH  21  22
ENDBRANCH  18  21
ENDBRANCH   4  15
BRANCH   1  25
ATOM     25  C   UNL     1      37.195   7.334  13.312  0.00  0.00    +0.000 C 
ATOM     26  O   UNL     1      38.128   7.438  12.479  0.00  0.00    +0.000 OA
BRANCH  25  27
ATOM     27  O   UNL     1      36.139   8.221  13.283  0.00  0.00    +0.000 OA
BRANCH  27  28
ATOM     28  C   UNL     1      35.000   8.037  12.454  0.00  0.00    +0.000 C 
BRANCH  28  30
ATOM     29  C   UNL     1      33.701   7.521  14.419  0.00  0.00    +0.000 C 
ATOM     30  C   UNL     1      33.919   7.292  13.116  0.00  0.00    +0.000 C 
ENDBRANCH  28  30
ENDBRANCH  27  28
ENDBRANCH  25  27
ENDBRANCH   1  25
TORSDOF 8
ENDMDL
MODEL 8
REMARK VINA RESULT:      -6.7      6.207     11.487
REMARK  Name = 
REMARK  8 active torsions:
REMARK  status: ('A' for Active; 'I' for Inactive)
REMARK    1  A    between atoms: C_2  and  C_3
REMARK    2  A    between atoms: C_3  and  O_4
REMARK    3  A    between atoms: O_4  and  C_5
REMARK    4  A    between atoms: C_5  and  C_7
REMARK    5  A    between atoms: N_10  and  C_11
REMARK    6  A    between atoms: C_14  and  C_15
REMARK    7  A    between atoms: C_15  and  C_16
REMARK    8  A    between atoms: C_16  and  C_17
REMARK                            x       y       z     vdW  Elec       q    Type
REMARK                         _______ _______ _______ _____ _____    ______ ____
ROOT
ATOM      1  C   UNL     1      37.088   4.646  14.592  0.00  0.00    +0.000 A 
ATOM      2  C   UNL     1      38.092   4.529  15.528  0.00  0.00    +0.000 A 
ATOM      3  N   UNL     1      38.754   3.281  15.774  0.00  0.00    +0.000 NA
ATOM      4  N   UNL     1      38.317   5.713  16.121  0.00  0.00    +0.000 N 
ATOM      5  C   UNL     1      37.469   6.630  15.591  0.00  0.00    +0.000 A 
ATOM      6  N   UNL     1      37.262   7.939  15.805  0.00  0.00    +0.000 NA
ATOM      7  C   UNL     1      36.314   8.584  15.092  0.00  0.00    +0.000 A 
ATOM      8  C   UNL     1      36.110   9.938  15.324  0.00  0.00    +0.000 A 
ATOM      9  C   UNL     1      35.159  10.647  14.627  0.00  0.00    +0.000 A 
ATOM     10  C   UNL     1      34.398   9.992  13.682  0.00  0.00    +0.000 A 
ATOM     11  C   UNL     1      34.577   8.649  13.429  0.00  0.00    +0.000 A 
ATOM     12  C   UNL     1      35.535   7.962  14.139  0.00  0.00    +0.000 A 
ATOM     13  N   UNL     1      35.757   6.635  13.934  0.00  0.00    +0.000 NA
ATOM     14  C   UNL     1      36.703   5.986  14.645  0.00  0.00    +0.000 A 
ENDROOT
BRANCH   4  15
ATOM     15  C   UNL     1      39.286   5.943  17.133  0.00  0.00    +0.000 A 
ATOM     16  C   UNL     1      38.937   5.901  18.475  0.00  0.00    +0.000 A 
ATOM     17  C   UNL     1      39.869   6.123  19.466  0.00  0.00    +0.000 A 
ATOM     18  C   UNL     1      41.193   6.398  19.194  0.00  0.00    +0.000 A 
ATOM     19  C   UNL     1      41.531   6.438  17.834  0.00  0.00    +0.000 A 
ATOM     20  C   UNL     1      40.593   6.215  16.850  0.00  0.00    +0.000 A 
BRANCH  18  21
ATOM     21  C   UNL     1      42.213   6.640  20.233  0.00  0.00    +0.000 C 
BRANCH  21  22
ATOM     22  C   UNL     1      43.613   6.770  19.796  0.00  0.00    +0.000 C 
BRANCH  22  23
ATOM     23  C   UNL     1      44.584   6.497  20.894  0.00  0.00    +0.000 C 
ATOM     24  C   UNL     1      44.204   5.369  21.791  0.00  0.00    +0.000 C 
ENDBRANCH  22  23
ENDBRANCH  21  22
ENDBRANCH  18  21
ENDBRANCH   4  15
BRANCH   1  25
ATOM     25  C   UNL     1      36.528   3.619  13.724  0.00  0.00    +0.000 C 
ATOM     26  O   UNL     1      36.897   3.579  12.524  0.00  0.00    +0.000 OA
BRANCH  25  27
ATOM     27  O   UNL     1      35.610   2.703  14.195  0.00  0.00    +0.000 OA
BRANCH  27  28
ATOM     28  C   UNL     1      34.716   2.985  15.263  0.00  0.00    +0.000 C 
BRANCH  28  30
ATOM     29  C   UNL     1      35.786   1.094  16.309  0.00  0.00    +0.000 C 
ATOM     30  C   UNL     1      34.841   2.043  16.384  0.00  0.00    +0.000 C 
ENDBRANCH  28  30
ENDBRANCH  27  28
ENDBRANCH  25  27
ENDBRANCH   1  25
TORSDOF 8
ENDMDL
MODEL 9
REMARK VINA RESULT:      -6.7      4.132      9.933
REMARK  Name = 
REMARK  8 active torsions:
REMARK  status: ('A' for Active; 'I' for Inactive)
REMARK    1  A    between atoms: C_2  and  C_3
REMARK    2  A    between atoms: C_3  and  O_4
REMARK    3  A    between atoms: O_4  and  C_5
REMARK    4  A    between atoms: C_5  and  C_7
REMARK    5  A    between atoms: N_10  and  C_11
REMARK    6  A    between atoms: C_14  and  C_15
REMARK    7  A    between atoms: C_15  and  C_16
REMARK    8  A    between atoms: C_16  and  C_17
REMARK                            x       y       z     vdW  Elec       q    Type
REMARK                         _______ _______ _______ _____ _____    ______ ____
ROOT
ATOM      1  C   UNL     1      39.174   1.593  13.943  0.00  0.00    +0.000 A 
ATOM      2  C   UNL     1      39.346   2.894  14.362  0.00  0.00    +0.000 A 
ATOM      3  N   UNL     1      40.345   3.747  13.787  0.00  0.00    +0.000 NA
ATOM      4  N   UNL     1      38.468   3.190  15.335  0.00  0.00    +0.000 N 
ATOM      5  C   UNL     1      37.705   2.095  15.576  0.00  0.00    +0.000 A 
ATOM      6  N   UNL     1      36.696   1.831  16.423  0.00  0.00    +0.000 NA
ATOM      7  C   UNL     1      36.131   0.606  16.417  0.00  0.00    +0.000 A 
ATOM      8  C   UNL     1      35.089   0.348  17.298  0.00  0.00    +0.000 A 
ATOM      9  C   UNL     1      34.474  -0.883  17.337  0.00  0.00    +0.000 A 
ATOM     10  C   UNL     1      34.906  -1.872  16.479  0.00  0.00    +0.000 A 
ATOM     11  C   UNL     1      35.938  -1.646  15.593  0.00  0.00    +0.000 A 
ATOM     12  C   UNL     1      36.536  -0.407  15.574  0.00  0.00    +0.000 A 
ATOM     13  N   UNL     1      37.559  -0.124  14.721  0.00  0.00    +0.000 NA
ATOM     14  C   UNL     1      38.128   1.100  14.724  0.00  0.00    +0.000 A 
ENDROOT
BRANCH   4  15
ATOM     15  C   UNL     1      38.375   4.448  15.988  0.00  0.00    +0.000 A 
ATOM     16  C   UNL     1      37.924   5.570  15.309  0.00  0.00    +0.000 A 
ATOM     17  C   UNL     1      37.829   6.796  15.933  0.00  0.00    +0.000 A 
ATOM     18  C   UNL     1      38.171   6.985  17.255  0.00  0.00    +0.000 A 
ATOM     19  C   UNL     1      38.625   5.843  17.928  0.00  0.00    +0.000 A 
ATOM     20  C   UNL     1      38.716   4.622  17.298  0.00  0.00    +0.000 A 
BRANCH  18  21
ATOM     21  C   UNL     1      38.080   8.285  17.949  0.00  0.00    +0.000 C 
BRANCH  21  22
ATOM     22  C   UNL     1      37.106   8.403  19.047  0.00  0.00    +0.000 C 
BRANCH  22  23
ATOM     23  C   UNL     1      37.734   8.844  20.325  0.00  0.00    +0.000 C 
ATOM     24  C   UNL     1      38.956   8.082  20.710  0.00  0.00    +0.000 C 
ENDBRANCH  22  23
ENDBRANCH  21  22
ENDBRANCH  18  21
ENDBRANCH   4  15
BRANCH   1  25
ATOM     25  C   UNL     1      39.904   0.863  12.915  0.00  0.00    +0.000 C 
ATOM     26  O   UNL     1      39.600   1.051  11.712  0.00  0.00    +0.000 OA
BRANCH  25  27
ATOM     27  O   UNL     1      40.912  -0.022  13.242  0.00  0.00    +0.000 OA
BRANCH  27  28
ATOM     28  C   UNL     1      40.760  -1.432  13.152  0.00  0.00    +0.000 C 
BRANCH  28  30
ATOM     29  C   UNL     1      40.204  -2.384  15.296  0.00  0.00    +0.000 C 
ATOM     30  C   UNL     1      41.153  -2.135  14.382  0.00  0.00    +0.000 C 
ENDBRANCH  28  30
ENDBRANCH  27  28
ENDBRANCH  25  27
ENDBRANCH   1  25
TORSDOF 8
ENDMDL
MODEL 10
REMARK VINA RESULT:      -6.7      5.356     10.797
REMARK  Name = 
REMARK  8 active torsions:
REMARK  status: ('A' for Active; 'I' for Inactive)
REMARK    1  A    between atoms: C_2  and  C_3
REMARK    2  A    between atoms: C_3  and  O_4
REMARK    3  A    between atoms: O_4  and  C_5
REMARK    4  A    between atoms: C_5  and  C_7
REMARK    5  A    between atoms: N_10  and  C_11
REMARK    6  A    between atoms: C_14  and  C_15
REMARK    7  A    between atoms: C_15  and  C_16
REMARK    8  A    between atoms: C_16  and  C_17
REMARK                            x       y       z     vdW  Elec       q    Type
REMARK                         _______ _______ _______ _____ _____    ______ ____
ROOT
ATOM      1  C   UNL     1      39.117   3.771  14.350  0.00  0.00    +0.000 A 
ATOM      2  C   UNL     1      39.381   4.838  15.180  0.00  0.00    +0.000 A 
ATOM      3  N   UNL     1      40.279   5.889  14.797  0.00  0.00    +0.000 NA
ATOM      4  N   UNL     1      38.692   4.718  16.327  0.00  0.00    +0.000 N 
ATOM      5  C   UNL     1      37.964   3.574  16.277  0.00  0.00    +0.000 A 
ATOM      6  N   UNL     1      37.115   2.973  17.126  0.00  0.00    +0.000 NA
ATOM      7  C   UNL     1      36.536   1.807  16.767  0.00  0.00    +0.000 A 
ATOM      8  C   UNL     1      35.661   1.197  17.656  0.00  0.00    +0.000 A 
ATOM      9  C   UNL     1      35.041   0.008  17.345  0.00  0.00    +0.000 A 
ATOM     10  C   UNL     1      35.300  -0.580  16.125  0.00  0.00    +0.000 A 
ATOM     11  C   UNL     1      36.164   0.001  15.223  0.00  0.00    +0.000 A 
ATOM     12  C   UNL     1      36.771   1.190  15.557  0.00  0.00    +0.000 A 
ATOM     13  N   UNL     1      37.634   1.812  14.708  0.00  0.00    +0.000 NA
ATOM     14  C   UNL     1      38.216   2.977  15.061  0.00  0.00    +0.000 A 
ENDROOT
BRANCH   4  15
ATOM     15  C   UNL     1      38.735   5.647  17.400  0.00  0.00    +0.000 A 
ATOM     16  C   UNL     1      39.527   5.410  18.515  0.00  0.00    +0.000 A 
ATOM     17  C   UNL     1      39.576   6.304  19.563  0.00  0.00    +0.000 A 
ATOM     18  C   UNL     1      38.852   7.478  19.574  0.00  0.00    +0.000 A 
ATOM     19  C   UNL     1      38.057   7.703  18.442  0.00  0.00    +0.000 A 
ATOM     20  C   UNL     1      38.013   6.805  17.399  0.00  0.00    +0.000 A 
BRANCH  18  21
ATOM     21  C   UNL     1      38.885   8.453  20.681  0.00  0.00    +0.000 C 
BRANCH  21  22
ATOM     22  C   UNL     1      37.989   9.619  20.588  0.00  0.00    +0.000 C 
BRANCH  22  23
ATOM     23  C   UNL     1      38.672  10.896  20.942  0.00  0.00    +0.000 C 
ATOM     24  C   UNL     1      40.161  10.821  20.948  0.00  0.00    +0.000 C 
ENDBRANCH  22  23
ENDBRANCH  21  22
ENDBRANCH  18  21
ENDBRANCH   4  15
BRANCH   1  25
ATOM     25  C   UNL     1      39.645   3.498  13.019  0.00  0.00    +0.000 C 
ATOM     26  O   UNL     1      40.749   2.909  12.920  0.00  0.00    +0.000 OA
BRANCH  25  27
ATOM     27  O   UNL     1      38.957   3.875  11.883  0.00  0.00    +0.000 OA
BRANCH  27  28
ATOM     28  C   UNL     1      38.228   5.090  11.790  0.00  0.00    +0.000 C 
BRANCH  28  30
ATOM     29  C   UNL     1      36.059   5.175  12.839  0.00  0.00    +0.000 C 
ATOM     30  C   UNL     1      36.773   4.888  11.741  0.00  0.00    +0.000 C 
ENDBRANCH  28  30
ENDBRANCH  27  28
ENDBRANCH  25  27
ENDBRANCH   1  25
TORSDOF 8
ENDMDL
