MODEL 1
REMARK VINA RESULT:      -7.8      0.000      0.000
REMARK  Name = 
REMARK  4 active torsions:
REMARK  status: ('A' for Active; 'I' for Inactive)
REMARK    1  A    between atoms: C_2  and  C_3
REMARK    2  A    between atoms: C_9  and  N_10
REMARK    3  A    between atoms: C_11  and  C_13
REMARK    4  A    between atoms: C_16  and  N_17
REMARK                            x       y       z     vdW  Elec       q    Type
REMARK                         _______ _______ _______ _____ _____    ______ ____
ROOT
ATOM      1  N   UNL     1      15.192  11.579  34.287  0.00  0.00    +0.000 NA
ATOM      2  C   UNL     1      16.531  11.595  34.754  0.00  0.00    +0.000 C 
ATOM      3  O   UNL     1      17.394  12.180  34.052  0.00  0.00    +0.000 OA
ENDROOT
BRANCH   1  10
ATOM      4  C   UNL     1      14.084  13.367  33.113  0.00  0.00    +0.000 A 
ATOM      5  C   UNL     1      13.642  14.009  31.944  0.00  0.00    +0.000 A 
ATOM      6  C   UNL     1      13.911  13.436  30.729  0.00  0.00    +0.000 A 
ATOM      7  C   UNL     1      14.602  12.253  30.677  0.00  0.00    +0.000 A 
ATOM      8  C   UNL     1      15.036  11.624  31.839  0.00  0.00    +0.000 A 
ATOM      9  C   UNL     1      15.786  10.342  31.807  0.00  0.00    +0.000 C 
ATOM     10  C   UNL     1      14.777  12.182  33.074  0.00  0.00    +0.000 A 
BRANCH   4  12
ATOM     11  C   UNL     1      12.949  15.201  34.387  0.00  0.00    +0.000 C 
ATOM     12  C   UNL     1      13.805  13.982  34.436  0.00  0.00    +0.000 C 
ENDBRANCH   4  12
ENDBRANCH   1  10
BRANCH   2  13
ATOM     13  C   UNL     1      16.851  10.941  36.015  0.00  0.00    +0.000 A 
ATOM     14  C   UNL     1      16.097  11.159  37.141  0.00  0.00    +0.000 A 
ATOM     15  C   UNL     1      16.424  10.527  38.322  0.00  0.00    +0.000 A 
ATOM     16  C   UNL     1      17.511   9.672  38.375  0.00  0.00    +0.000 A 
ATOM     17  C   UNL     1      18.275   9.440  37.263  0.00  0.00    +0.000 A 
ATOM     18  C   UNL     1      17.927  10.089  36.081  0.00  0.00    +0.000 A 
BRANCH  16  19
ATOM     19  N   UNL     1      17.865   9.013  39.584  0.00  0.00    +0.000 N 
ATOM     20  O   UNL     1      17.401   9.454  40.653  0.00  0.00    +0.000 OA
ATOM     21  O   UNL     1      18.694   7.922  39.574  0.00  0.00    +0.000 OA
ENDBRANCH  16  19
ENDBRANCH   2  13
TORSDOF 4
ENDMDL
MODEL 2
REMARK VINA RESULT:      -7.5      1.379      3.027
REMARK  Name = 
REMARK  4 active torsions:
REMARK  status: ('A' for Active; 'I' for Inactive)
REMARK    1  A    between atoms: C_2  and  C_3
REMARK    2  A    between atoms: C_9  and  N_10
REMARK    3  A    between atoms: C_11  and  C_13
REMARK    4  A    between atoms: C_16  and  N_17
REMARK                            x       y       z     vdW  Elec       q    Type
REMARK                         _______ _______ _______ _____ _____    ______ ____
ROOT
ATOM      1  N   UNL     1      14.733  11.919  35.236  0.00  0.00    +0.000 NA
ATOM      2  C   UNL     1      15.768  12.239  36.152  0.00  0.00    +0.000 C 
ATOM      3  O   UNL     1      16.495  13.232  35.898  0.00  0.00    +0.000 OA
ENDROOT
BRANCH   1  10
ATOM      4  C   UNL     1      15.062  12.255  32.874  0.00  0.00    +0.000 A 
ATOM      5  C   UNL     1      14.852  12.946  31.669  0.00  0.00    +0.000 A 
ATOM      6  C   UNL     1      14.041  14.051  31.669  0.00  0.00    +0.000 A 
ATOM      7  C   UNL     1      13.454  14.459  32.839  0.00  0.00    +0.000 A 
ATOM      8  C   UNL     1      13.667  13.768  34.027  0.00  0.00    +0.000 A 
ATOM      9  C   UNL     1      13.041  14.192  35.306  0.00  0.00    +0.000 C 
ATOM     10  C   UNL     1      14.480  12.653  34.052  0.00  0.00    +0.000 A 
BRANCH   4  12
ATOM     11  C   UNL     1      16.161  10.436  31.548  0.00  0.00    +0.000 C 
ATOM     12  C   UNL     1      15.934  11.052  32.885  0.00  0.00    +0.000 C 
ENDBRANCH   4  12
ENDBRANCH   1  10
BRANCH   2  13
ATOM     13  C   UNL     1      15.945  11.415  37.339  0.00  0.00    +0.000 A 
ATOM     14  C   UNL     1      17.162  10.861  37.647  0.00  0.00    +0.000 A 
ATOM     15  C   UNL     1      17.299  10.082  38.777  0.00  0.00    +0.000 A 
ATOM     16  C   UNL     1      16.211   9.858  39.603  0.00  0.00    +0.000 A 
ATOM     17  C   UNL     1      14.988  10.403  39.315  0.00  0.00    +0.000 A 
ATOM     18  C   UNL     1      14.873  11.185  38.168  0.00  0.00    +0.000 A 
BRANCH  16  19
ATOM     19  N   UNL     1      16.332   9.057  40.771  0.00  0.00    +0.000 N 
ATOM     20  O   UNL     1      16.866   7.936  40.664  0.00  0.00    +0.000 OA
ATOM     21  O   UNL     1      15.875   9.505  41.983  0.00  0.00    +0.000 OA
ENDBRANCH  16  19
ENDBRANCH   2  13
TORSDOF 4
ENDMDL
MODEL 3
REMARK VINA RESULT:      -6.9      2.441      7.717
REMARK  Name = 
REMARK  4 active torsions:
REMARK  status: ('A' for Active; 'I' for Inactive)
REMARK    1  A    between atoms: C_2  and  C_3
REMARK    2  A    between atoms: C_9  and  N_10
REMARK    3  A    between atoms: C_11  and  C_13
REMARK    4  A    between atoms: C_16  and  N_17
REMARK                            x       y       z     vdW  Elec       q    Type
REMARK                         _______ _______ _______ _____ _____    ______ ____
ROOT
ATOM      1  N   UNL     1      17.729  10.115  36.930  0.00  0.00    +0.000 NA
ATOM      2  C   UNL     1      17.433  11.426  36.476  0.00  0.00    +0.000 C 
ATOM      3  O   UNL     1      17.871  12.395  37.145  0.00  0.00    +0.000 OA
ENDROOT
BRANCH   1  10
ATOM      4  C   UNL     1      19.842   9.655  37.992  0.00  0.00    +0.000 A 
ATOM      5  C   UNL     1      20.643   9.375  39.112  0.00  0.00    +0.000 A 
ATOM      6  C   UNL     1      20.052   9.286  40.345  0.00  0.00    +0.000 A 
ATOM      7  C   UNL     1      18.699   9.471  40.463  0.00  0.00    +0.000 A 
ATOM      8  C   UNL     1      17.913   9.747  39.348  0.00  0.00    +0.000 A 
ATOM      9  C   UNL     1      16.445   9.950  39.452  0.00  0.00    +0.000 C 
ATOM     10  C   UNL     1      18.485   9.841  38.096  0.00  0.00    +0.000 A 
BRANCH   4  12
ATOM     11  C   UNL     1      21.953   9.906  36.668  0.00  0.00    +0.000 C 
ATOM     12  C   UNL     1      20.471   9.760  36.651  0.00  0.00    +0.000 C 
ENDBRANCH   4  12
ENDBRANCH   1  10
BRANCH   2  13
ATOM     13  C   UNL     1      16.644  11.596  35.264  0.00  0.00    +0.000 A 
ATOM     14  C   UNL     1      15.460  12.289  35.277  0.00  0.00    +0.000 A 
ATOM     15  C   UNL     1      14.732  12.432  34.114  0.00  0.00    +0.000 A 
ATOM     16  C   UNL     1      15.193  11.878  32.933  0.00  0.00    +0.000 A 
ATOM     17  C   UNL     1      16.373  11.182  32.899  0.00  0.00    +0.000 A 
ATOM     18  C   UNL     1      17.090  11.051  34.085  0.00  0.00    +0.000 A 
BRANCH  16  19
ATOM     19  N   UNL     1      14.456  12.012  31.725  0.00  0.00    +0.000 N 
ATOM     20  O   UNL     1      14.546  11.105  30.875  0.00  0.00    +0.000 OA
ATOM     21  O   UNL     1      13.666  13.110  31.501  0.00  0.00    +0.000 OA
ENDBRANCH  16  19
ENDBRANCH   2  13
TORSDOF 4
ENDMDL
MODEL 4
REMARK VINA RESULT:      -6.9      2.507      7.558
REMARK  Name = 
REMARK  4 active torsions:
REMARK  status: ('A' for Active; 'I' for Inactive)
REMARK    1  A    between atoms: C_2  and  C_3
REMARK    2  A    between atoms: C_9  and  N_10
REMARK    3  A    between atoms: C_11  and  C_13
REMARK    4  A    between atoms: C_16  and  N_17
REMARK                            x       y       z     vdW  Elec       q    Type
REMARK                         _______ _______ _______ _____ _____    ______ ____
ROOT
ATOM      1  N   UNL     1      18.137  10.617  37.028  0.00  0.00    +0.000 NA
ATOM      2  C   UNL     1      17.583   9.860  35.964  0.00  0.00    +0.000 C 
ATOM      3  O   UNL     1      17.777   8.619  35.960  0.00  0.00    +0.000 OA
ENDROOT
BRANCH   1  10
ATOM      4  C   UNL     1      18.276   9.730  39.263  0.00  0.00    +0.000 A 
ATOM      5  C   UNL     1      18.979   9.171  40.344  0.00  0.00    +0.000 A 
ATOM      6  C   UNL     1      20.323   8.940  40.214  0.00  0.00    +0.000 A 
ATOM      7  C   UNL     1      20.954   9.256  39.039  0.00  0.00    +0.000 A 
ATOM      8  C   UNL     1      20.251   9.809  37.974  0.00  0.00    +0.000 A 
ATOM      9  C   UNL     1      20.914  10.160  36.691  0.00  0.00    +0.000 C 
ATOM     10  C   UNL     1      18.897  10.052  38.081  0.00  0.00    +0.000 A 
BRANCH   4  12
ATOM     11  C   UNL     1      16.210   9.491  40.658  0.00  0.00    +0.000 C 
ATOM     12  C   UNL     1      16.818   9.980  39.389  0.00  0.00    +0.000 C 
ENDBRANCH   4  12
ENDBRANCH   1  10
BRANCH   2  13
ATOM     13  C   UNL     1      16.820  10.544  34.929  0.00  0.00    +0.000 A 
ATOM     14  C   UNL     1      15.816  11.423  35.249  0.00  0.00    +0.000 A 
ATOM     15  C   UNL     1      15.108  12.055  34.248  0.00  0.00    +0.000 A 
ATOM     16  C   UNL     1      15.408  11.804  32.920  0.00  0.00    +0.000 A 
ATOM     17  C   UNL     1      16.407  10.931  32.580  0.00  0.00    +0.000 A 
ATOM     18  C   UNL     1      17.108  10.305  33.607  0.00  0.00    +0.000 A 
BRANCH  16  19
ATOM     19  N   UNL     1      14.688  12.444  31.875  0.00  0.00    +0.000 N 
ATOM     20  O   UNL     1      14.540  11.831  30.800  0.00  0.00    +0.000 OA
ATOM     21  O   UNL     1      14.170  13.701  32.044  0.00  0.00    +0.000 OA
ENDBRANCH  16  19
ENDBRANCH   2  13
TORSDOF 4
ENDMDL
MODEL 5
REMARK VINA RESULT:      -6.7      3.358      5.163
REMARK  Name = 
REMARK  4 active torsions:
REMARK  status: ('A' for Active; 'I' for Inactive)
REMARK    1  A    between atoms: C_2  and  C_3
REMARK    2  A    between atoms: C_9  and  N_10
REMARK    3  A    between atoms: C_11  and  C_13
REMARK    4  A    between atoms: C_16  and  N_17
REMARK                            x       y       z     vdW  Elec       q    Type
REMARK                         _______ _______ _______ _____ _____    ______ ____
ROOT
ATOM      1  N   UNL     1      16.489  11.418  37.881  0.00  0.00    +0.000 NA
ATOM      2  C   UNL     1      17.348  10.519  37.197  0.00  0.00    +0.000 C 
ATOM      3  O   UNL     1      16.823   9.630  36.482  0.00  0.00    +0.000 OA
ENDROOT
BRANCH   1  10
ATOM      4  C   UNL     1      14.434  11.984  36.760  0.00  0.00    +0.000 A 
ATOM      5  C   UNL     1      13.034  11.969  36.634  0.00  0.00    +0.000 A 
ATOM      6  C   UNL     1      12.289  11.316  37.580  0.00  0.00    +0.000 A 
ATOM      7  C   UNL     1      12.918  10.693  38.626  0.00  0.00    +0.000 A 
ATOM      8  C   UNL     1      14.304  10.713  38.744  0.00  0.00    +0.000 A 
ATOM      9  C   UNL     1      15.008  10.045  39.869  0.00  0.00    +0.000 C 
ATOM     10  C   UNL     1      15.076  11.364  37.804  0.00  0.00    +0.000 A 
BRANCH   4  12
ATOM     11  C   UNL     1      15.209  12.072  34.380  0.00  0.00    +0.000 C 
ATOM     12  C   UNL     1      15.253  12.683  35.738  0.00  0.00    +0.000 C 
ENDBRANCH   4  12
ENDBRANCH   1  10
BRANCH   2  13
ATOM     13  C   UNL     1      18.789  10.662  37.349  0.00  0.00    +0.000 A 
ATOM     14  C   UNL     1      19.657   9.762  36.782  0.00  0.00    +0.000 A 
ATOM     15  C   UNL     1      21.018   9.921  36.944  0.00  0.00    +0.000 A 
ATOM     16  C   UNL     1      21.511  10.987  37.676  0.00  0.00    +0.000 A 
ATOM     17  C   UNL     1      20.662  11.896  38.249  0.00  0.00    +0.000 A 
ATOM     18  C   UNL     1      19.292  11.715  38.073  0.00  0.00    +0.000 A 
BRANCH  16  19
ATOM     19  N   UNL     1      22.909  11.166  37.856  0.00  0.00    +0.000 N 
ATOM     20  O   UNL     1      23.352  11.223  39.020  0.00  0.00    +0.000 OA
ATOM     21  O   UNL     1      23.749  11.274  36.778  0.00  0.00    +0.000 OA
ENDBRANCH  16  19
ENDBRANCH   2  13
TORSDOF 4
ENDMDL
MODEL 6
REMARK VINA RESULT:      -6.3      3.576      5.944
REMARK  Name = 
REMARK  4 active torsions:
REMARK  status: ('A' for Active; 'I' for Inactive)
REMARK    1  A    between atoms: C_2  and  C_3
REMARK    2  A    between atoms: C_9  and  N_10
REMARK    3  A    between atoms: C_11  and  C_13
REMARK    4  A    between atoms: C_16  and  N_17
REMARK                            x       y       z     vdW  Elec       q    Type
REMARK                         _______ _______ _______ _____ _____    ______ ____
ROOT
ATOM      1  N   UNL     1      17.331  11.317  37.902  0.00  0.00    +0.000 NA
ATOM      2  C   UNL     1      18.132  10.355  37.235  0.00  0.00    +0.000 C 
ATOM      3  O   UNL     1      17.551   9.404  36.656  0.00  0.00    +0.000 OA
ENDROOT
BRANCH   1  10
ATOM      4  C   UNL     1      15.306  10.550  38.957  0.00  0.00    +0.000 A 
ATOM      5  C   UNL     1      13.908  10.454  39.056  0.00  0.00    +0.000 A 
ATOM      6  C   UNL     1      13.130  11.088  38.123  0.00  0.00    +0.000 A 
ATOM      7  C   UNL     1      13.728  11.802  37.117  0.00  0.00    +0.000 A 
ATOM      8  C   UNL     1      15.113  11.892  37.026  0.00  0.00    +0.000 A 
ATOM      9  C   UNL     1      15.782  12.659  35.944  0.00  0.00    +0.000 C 
ATOM     10  C   UNL     1      15.917  11.261  37.953  0.00  0.00    +0.000 A 
BRANCH   4  12
ATOM     11  C   UNL     1      15.411   9.215  41.074  0.00  0.00    +0.000 C 
ATOM     12  C   UNL     1      16.159   9.872  39.966  0.00  0.00    +0.000 C 
ENDBRANCH   4  12
ENDBRANCH   1  10
BRANCH   2  13
ATOM     13  C   UNL     1      19.580  10.506  37.247  0.00  0.00    +0.000 A 
ATOM     14  C   UNL     1      20.389   9.679  36.510  0.00  0.00    +0.000 A 
ATOM     15  C   UNL     1      21.757   9.844  36.542  0.00  0.00    +0.000 A 
ATOM     16  C   UNL     1      22.319  10.845  37.317  0.00  0.00    +0.000 A 
ATOM     17  C   UNL     1      21.529  11.682  38.059  0.00  0.00    +0.000 A 
ATOM     18  C   UNL     1      20.150  11.496  38.012  0.00  0.00    +0.000 A 
BRANCH  16  19
ATOM     19  N   UNL     1      23.727  11.029  37.364  0.00  0.00    +0.000 N 
ATOM     20  O   UNL     1      24.458  10.070  37.051  0.00  0.00    +0.000 OA
ATOM     21  O   UNL     1      24.267  12.230  37.745  0.00  0.00    +0.000 OA
ENDBRANCH  16  19
ENDBRANCH   2  13
TORSDOF 4
ENDMDL
MODEL 7
REMARK VINA RESULT:      -6.3     18.553     19.505
REMARK  Name = 
REMARK  4 active torsions:
REMARK  status: ('A' for Active; 'I' for Inactive)
REMARK    1  A    between atoms: C_2  and  C_3
REMARK    2  A    between atoms: C_9  and  N_10
REMARK    3  A    between atoms: C_11  and  C_13
REMARK    4  A    between atoms: C_16  and  N_17
REMARK                            x       y       z     vdW  Elec       q    Type
REMARK                         _______ _______ _______ _____ _____    ______ ____
ROOT
ATOM      1  N   UNL     1      29.060  22.507  26.657  0.00  0.00    +0.000 NA
ATOM      2  C   UNL     1      29.564  23.422  27.617  0.00  0.00    +0.000 C 
ATOM      3  O   UNL     1      29.560  24.644  27.326  0.00  0.00    +0.000 OA
ENDROOT
BRANCH   1  10
ATOM      4  C   UNL     1      29.402  22.911  24.307  0.00  0.00    +0.000 A 
ATOM      5  C   UNL     1      28.963  23.292  23.028  0.00  0.00    +0.000 A 
ATOM      6  C   UNL     1      27.654  23.660  22.857  0.00  0.00    +0.000 A 
ATOM      7  C   UNL     1      26.802  23.649  23.931  0.00  0.00    +0.000 A 
ATOM      8  C   UNL     1      27.245  23.270  25.194  0.00  0.00    +0.000 A 
ATOM      9  C   UNL     1      26.341  23.251  26.372  0.00  0.00    +0.000 C 
ATOM     10  C   UNL     1      28.559  22.896  25.391  0.00  0.00    +0.000 A 
BRANCH   4  12
ATOM     11  C   UNL     1      31.795  23.626  24.494  0.00  0.00    +0.000 C 
ATOM     12  C   UNL     1      30.817  22.503  24.504  0.00  0.00    +0.000 C 
ENDBRANCH   4  12
ENDBRANCH   1  10
BRANCH   2  13
ATOM     13  C   UNL     1      30.060  22.915  28.889  0.00  0.00    +0.000 A 
ATOM     14  C   UNL     1      31.326  22.397  29.004  0.00  0.00    +0.000 A 
ATOM     15  C   UNL     1      31.768  21.922  30.220  0.00  0.00    +0.000 A 
ATOM     16  C   UNL     1      30.938  21.965  31.327  0.00  0.00    +0.000 A 
ATOM     17  C   UNL     1      29.672  22.479  31.234  0.00  0.00    +0.000 A 
ATOM     18  C   UNL     1      29.246  22.953  29.995  0.00  0.00    +0.000 A 
BRANCH  16  19
ATOM     19  N   UNL     1      31.375  21.478  32.589  0.00  0.00    +0.000 N 
ATOM     20  O   UNL     1      30.513  21.098  33.405  0.00  0.00    +0.000 OA
ATOM     21  O   UNL     1      32.709  21.427  32.900  0.00  0.00    +0.000 OA
ENDBRANCH  16  19
ENDBRANCH   2  13
TORSDOF 4
ENDMDL
MODEL 8
REMARK VINA RESULT:      -6.3     20.222     22.359
REMARK  Name = 
REMARK  4 active torsions:
REMARK  status: ('A' for Active; 'I' for Inactive)
REMARK    1  A    between atoms: C_2  and  C_3
REMARK    2  A    between atoms: C_9  and  N_10
REMARK    3  A    between atoms: C_11  and  C_13
REMARK    4  A    between atoms: C_16  and  N_17
REMARK                            x       y       z     vdW  Elec       q    Type
REMARK                         _______ _______ _______ _____ _____    ______ ____
ROOT
ATOM      1  N   UNL     1      25.740   5.844  16.254  0.00  0.00    +0.000 NA
ATOM      2  C   UNL     1      25.538   4.444  16.130  0.00  0.00    +0.000 C 
ATOM      3  O   UNL     1      26.472   3.755  15.649  0.00  0.00    +0.000 OA
ENDROOT
BRANCH   1  10
ATOM      4  C   UNL     1      27.926   6.701  16.787  0.00  0.00    +0.000 A 
ATOM      5  C   UNL     1      29.127   7.353  16.458  0.00  0.00    +0.000 A 
ATOM      6  C   UNL     1      29.309   7.803  15.177  0.00  0.00    +0.000 A 
ATOM      7  C   UNL     1      28.323   7.610  14.244  0.00  0.00    +0.000 A 
ATOM      8  C   UNL     1      27.137   6.964  14.579  0.00  0.00    +0.000 A 
ATOM      9  C   UNL     1      26.054   6.744  13.585  0.00  0.00    +0.000 C 
ATOM     10  C   UNL     1      26.930   6.502  15.862  0.00  0.00    +0.000 A 
BRANCH   4  12
ATOM     11  C   UNL     1      27.963   7.212  19.238  0.00  0.00    +0.000 C 
ATOM     12  C   UNL     1      27.719   6.203  18.170  0.00  0.00    +0.000 C 
ENDBRANCH   4  12
ENDBRANCH   1  10
BRANCH   2  13
ATOM     13  C   UNL     1      24.272   3.869  16.562  0.00  0.00    +0.000 A 
ATOM     14  C   UNL     1      23.848   3.976  17.863  0.00  0.00    +0.000 A 
ATOM     15  C   UNL     1      22.645   3.420  18.244  0.00  0.00    +0.000 A 
ATOM     16  C   UNL     1      21.863   2.753  17.316  0.00  0.00    +0.000 A 
ATOM     17  C   UNL     1      22.268   2.636  16.013  0.00  0.00    +0.000 A 
ATOM     18  C   UNL     1      23.486   3.205  15.651  0.00  0.00    +0.000 A 
BRANCH  16  19
ATOM     19  N   UNL     1      20.622   2.171  17.690  0.00  0.00    +0.000 N 
ATOM     20  O   UNL     1      20.402   0.989  17.362  0.00  0.00    +0.000 OA
ATOM     21  O   UNL     1      19.691   2.890  18.394  0.00  0.00    +0.000 OA
ENDBRANCH  16  19
ENDBRANCH   2  13
TORSDOF 4
ENDMDL
MODEL 9
REMARK VINA RESULT:      -6.3     21.257     23.259
REMARK  Name = 
REMARK  4 active torsions:
REMARK  status: ('A' for Active; 'I' for Inactive)
REMARK    1  A    between atoms: C_2  and  C_3
REMARK    2  A    between atoms: C_9  and  N_10
REMARK    3  A    between atoms: C_11  and  C_13
REMARK    4  A    between atoms: C_16  and  N_17
REMARK                            x       y       z     vdW  Elec       q    Type
REMARK                         _______ _______ _______ _____ _____    ______ ____
ROOT
ATOM      1  N   UNL     1      21.334  -8.009  25.975  0.00  0.00    +0.000 NA
ATOM      2  C   UNL     1      21.637  -8.267  24.613  0.00  0.00    +0.000 C 
ATOM      3  O   UNL     1      20.700  -8.627  23.858  0.00  0.00    +0.000 OA
ENDROOT
BRANCH   1  10
ATOM      4  C   UNL     1      19.194  -7.055  26.534  0.00  0.00    +0.000 A 
ATOM      5  C   UNL     1      17.898  -7.123  27.073  0.00  0.00    +0.000 A 
ATOM      6  C   UNL     1      17.462  -8.306  27.608  0.00  0.00    +0.000 A 
ATOM      7  C   UNL     1      18.294  -9.396  27.607  0.00  0.00    +0.000 A 
ATOM      8  C   UNL     1      19.575  -9.320  27.072  0.00  0.00    +0.000 A 
ATOM      9  C   UNL     1      20.493 -10.488  27.061  0.00  0.00    +0.000 C 
ATOM     10  C   UNL     1      20.037  -8.140  26.527  0.00  0.00    +0.000 A 
BRANCH   4  12
ATOM     11  C   UNL     1      18.978  -4.561  26.442  0.00  0.00    +0.000 C 
ATOM     12  C   UNL     1      19.676  -5.780  25.945  0.00  0.00    +0.000 C 
ENDBRANCH   4  12
ENDBRANCH   1  10
BRANCH   2  13
ATOM     13  C   UNL     1      23.008  -8.105  24.148  0.00  0.00    +0.000 A 
ATOM     14  C   UNL     1      23.636  -6.886  24.198  0.00  0.00    +0.000 A 
ATOM     15  C   UNL     1      24.935  -6.761  23.750  0.00  0.00    +0.000 A 
ATOM     16  C   UNL     1      25.606  -7.863  23.249  0.00  0.00    +0.000 A 
ATOM     17  C   UNL     1      24.997  -9.089  23.191  0.00  0.00    +0.000 A 
ATOM     18  C   UNL     1      23.686  -9.191  23.650  0.00  0.00    +0.000 A 
BRANCH  16  19
ATOM     19  N   UNL     1      26.943  -7.754  22.780  0.00  0.00    +0.000 N 
ATOM     20  O   UNL     1      27.292  -6.688  22.236  0.00  0.00    +0.000 OA
ATOM     21  O   UNL     1      27.826  -8.792  22.922  0.00  0.00    +0.000 OA
ENDBRANCH  16  19
ENDBRANCH   2  13
TORSDOF 4
ENDMDL
MODEL 10
REMARK VINA RESULT:      -6.2     20.171     22.359
REMARK  Name = 
REMARK  4 active torsions:
REMARK  status: ('A' for Active; 'I' for Inactive)
REMARK    1  A    between atoms: C_2  and  C_3
REMARK    2  A    between atoms: C_9  and  N_10
REMARK    3  A    between atoms: C_11  and  C_13
REMARK    4  A    between atoms: C_16  and  N_17
REMARK                            x       y       z     vdW  Elec       q    Type
REMARK                         _______ _______ _______ _____ _____    ______ ____
ROOT
ATOM      1  N   UNL     1      25.699   5.840  16.691  0.00  0.00    +0.000 NA
ATOM      2  C   UNL     1      25.522   4.442  16.524  0.00  0.00    +0.000 C 
ATOM      3  O   UNL     1      26.503   3.766  16.125  0.00  0.00    +0.000 OA
ENDROOT
BRANCH   1  10
ATOM      4  C   UNL     1      27.129   7.063  15.187  0.00  0.00    +0.000 A 
ATOM      5  C   UNL     1      28.319   7.738  14.866  0.00  0.00    +0.000 A 
ATOM      6  C   UNL     1      29.298   7.849  15.819  0.00  0.00    +0.000 A 
ATOM      7  C   UNL     1      29.098   7.303  17.061  0.00  0.00    +0.000 A 
ATOM      8  C   UNL     1      27.917   6.637  17.370  0.00  0.00    +0.000 A 
ATOM      9  C   UNL     1      27.679   6.038  18.709  0.00  0.00    +0.000 C 
ATOM     10  C   UNL     1      26.917   6.512  16.428  0.00  0.00    +0.000 A 
BRANCH   4  12
ATOM     11  C   UNL     1      26.340   5.959  13.083  0.00  0.00    +0.000 C 
ATOM     12  C   UNL     1      26.058   6.942  14.165  0.00  0.00    +0.000 C 
ENDBRANCH   4  12
ENDBRANCH   1  10
BRANCH   2  13
ATOM     13  C   UNL     1      24.224   3.852  16.821  0.00  0.00    +0.000 A 
ATOM     14  C   UNL     1      23.687   3.909  18.082  0.00  0.00    +0.000 A 
ATOM     15  C   UNL     1      22.457   3.340  18.335  0.00  0.00    +0.000 A 
ATOM     16  C   UNL     1      21.761   2.709  17.318  0.00  0.00    +0.000 A 
ATOM     17  C   UNL     1      22.279   2.642  16.051  0.00  0.00    +0.000 A 
ATOM     18  C   UNL     1      23.522   3.223  15.820  0.00  0.00    +0.000 A 
BRANCH  16  19
ATOM     19  N   UNL     1      20.493   2.115  17.559  0.00  0.00    +0.000 N 
ATOM     20  O   UNL     1      20.269   0.988  17.075  0.00  0.00    +0.000 OA
ATOM     21  O   UNL     1      19.542   2.762  18.304  0.00  0.00    +0.000 OA
ENDBRANCH  16  19
ENDBRANCH   2  13
TORSDOF 4
ENDMDL
