MODEL 1
REMARK VINA RESULT:      -6.0      0.000      0.000
REMARK  Name = 
REMARK  2 active torsions:
REMARK  status: ('A' for Active; 'I' for Inactive)
REMARK    1  A    between atoms: C_2  and  C_3
REMARK    2  A    between atoms: C_3  and  N_4
REMARK                            x       y       z     vdW  Elec       q    Type
REMARK                         _______ _______ _______ _____ _____    ______ ____
ROOT
ATOM      1  N   UNL     1      32.965  -1.723  35.440  0.00  0.00    +0.000 N 
ATOM      2  C   UNL     1      33.407  -1.454  36.808  0.00  0.00    +0.000 C 
ATOM      3  C   UNL     1      34.128  -1.974  34.650  0.00  0.00    +0.000 C 
ATOM      4  C   UNL     1      33.752  -2.522  33.305  0.00  0.00    +0.000 C 
ATOM      5  N   UNL     1      33.067  -3.784  33.482  0.00  0.00    +0.000 N 
ATOM      6  C   UNL     1      33.021  -4.773  32.453  0.00  0.00    +0.000 A 
ATOM      7  N   UNL     1      33.572  -4.670  31.262  0.00  0.00    +0.000 NA
ATOM      8  C   UNL     1      33.455  -5.655  30.407  0.00  0.00    +0.000 A 
ATOM      9  C   UNL     1      33.983  -5.694  29.106  0.00  0.00    +0.000 A 
ATOM     10  C   UNL     1      33.798  -6.769  28.312  0.00  0.00    +0.000 A 
ATOM     11  C   UNL     1      33.101  -7.886  28.681  0.00  0.00    +0.000 A 
ATOM     12  O   UNL     1      32.916  -8.984  27.860  0.00  0.00    +0.000 OA
ATOM     13  C   UNL     1      32.565  -7.873  29.973  0.00  0.00    +0.000 A 
ATOM     14  C   UNL     1      32.757  -6.759  30.796  0.00  0.00    +0.000 A 
ATOM     15  S   UNL     1      32.300  -6.314  32.396  0.00  0.00    +0.000 S 
ATOM     16  C   UNL     1      32.418  -4.022  34.752  0.00  0.00    +0.000 C 
ATOM     17  C   UNL     1      31.964  -2.741  35.369  0.00  0.00    +0.000 C 
ENDROOT
BRANCH   1  18
ATOM     18  C   UNL     1      32.377  -0.462  34.964  0.00  0.00    +0.000 C 
BRANCH  18  20
ATOM     19  C   UNL     1      33.448   1.522  33.938  0.00  0.00    +0.000 C 
ATOM     20  C   UNL     1      33.415   0.616  34.906  0.00  0.00    +0.000 C 
ENDBRANCH  18  20
ENDBRANCH   1  18
TORSDOF 2
ENDMDL
MODEL 2
REMARK VINA RESULT:      -5.7     30.080     33.334
REMARK  Name = 
REMARK  2 active torsions:
REMARK  status: ('A' for Active; 'I' for Inactive)
REMARK    1  A    between atoms: C_2  and  C_3
REMARK    2  A    between atoms: C_3  and  N_4
REMARK                            x       y       z     vdW  Elec       q    Type
REMARK                         _______ _______ _______ _____ _____    ______ ____
ROOT
ATOM      1  N   UNL     1      27.919  24.303  23.477  0.00  0.00    +0.000 N 
ATOM      2  C   UNL     1      26.814  23.446  23.905  0.00  0.00    +0.000 C 
ATOM      3  C   UNL     1      28.425  23.776  22.250  0.00  0.00    +0.000 C 
ATOM      4  C   UNL     1      29.377  24.742  21.607  0.00  0.00    +0.000 C 
ATOM      5  N   UNL     1      28.670  25.966  21.296  0.00  0.00    +0.000 N 
ATOM      6  C   UNL     1      29.116  26.859  20.275  0.00  0.00    +0.000 A 
ATOM      7  N   UNL     1      30.180  26.694  19.518  0.00  0.00    +0.000 NA
ATOM      8  C   UNL     1      30.478  27.594  18.614  0.00  0.00    +0.000 A 
ATOM      9  C   UNL     1      31.573  27.559  17.735  0.00  0.00    +0.000 A 
ATOM     10  C   UNL     1      31.780  28.547  16.841  0.00  0.00    +0.000 A 
ATOM     11  C   UNL     1      30.973  29.643  16.707  0.00  0.00    +0.000 A 
ATOM     12  O   UNL     1      31.193  30.653  15.787  0.00  0.00    +0.000 OA
ATOM     13  C   UNL     1      29.875  29.702  17.570  0.00  0.00    +0.000 A 
ATOM     14  C   UNL     1      29.660  28.677  18.497  0.00  0.00    +0.000 A 
ATOM     15  S   UNL     1      28.488  28.339  19.713  0.00  0.00    +0.000 S 
ATOM     16  C   UNL     1      27.480  26.266  22.059  0.00  0.00    +0.000 C 
ATOM     17  C   UNL     1      27.565  25.687  23.433  0.00  0.00    +0.000 C 
ENDROOT
BRANCH   1  18
ATOM     18  C   UNL     1      28.967  24.125  24.495  0.00  0.00    +0.000 C 
BRANCH  18  20
ATOM     19  C   UNL     1      30.587  22.308  24.946  0.00  0.00    +0.000 C 
ATOM     20  C   UNL     1      29.365  22.686  24.596  0.00  0.00    +0.000 C 
ENDBRANCH  18  20
ENDBRANCH   1  18
TORSDOF 2
ENDMDL
MODEL 3
REMARK VINA RESULT:      -5.7     26.169     27.795
REMARK  Name = 
REMARK  2 active torsions:
REMARK  status: ('A' for Active; 'I' for Inactive)
REMARK    1  A    between atoms: C_2  and  C_3
REMARK    2  A    between atoms: C_3  and  N_4
REMARK                            x       y       z     vdW  Elec       q    Type
REMARK                         _______ _______ _______ _____ _____    ______ ____
ROOT
ATOM      1  N   UNL     1      32.021  22.423  30.668  0.00  0.00    +0.000 N 
ATOM      2  C   UNL     1      33.063  23.091  31.448  0.00  0.00    +0.000 C 
ATOM      3  C   UNL     1      30.880  23.282  30.645  0.00  0.00    +0.000 C 
ATOM      4  C   UNL     1      29.869  22.798  29.648  0.00  0.00    +0.000 C 
ATOM      5  N   UNL     1      30.458  22.824  28.326  0.00  0.00    +0.000 N 
ATOM      6  C   UNL     1      29.662  22.909  27.144  0.00  0.00    +0.000 A 
ATOM      7  N   UNL     1      28.348  22.973  27.103  0.00  0.00    +0.000 NA
ATOM      8  C   UNL     1      27.738  23.048  25.946  0.00  0.00    +0.000 A 
ATOM      9  C   UNL     1      26.351  23.122  25.740  0.00  0.00    +0.000 A 
ATOM     10  C   UNL     1      25.835  23.197  24.496  0.00  0.00    +0.000 A 
ATOM     11  C   UNL     1      26.585  23.208  23.353  0.00  0.00    +0.000 A 
ATOM     12  O   UNL     1      26.048  23.285  22.080  0.00  0.00    +0.000 OA
ATOM     13  C   UNL     1      27.970  23.136  23.530  0.00  0.00    +0.000 A 
ATOM     14  C   UNL     1      28.505  23.058  24.820  0.00  0.00    +0.000 A 
ATOM     15  S   UNL     1      30.086  22.956  25.495  0.00  0.00    +0.000 S 
ATOM     16  C   UNL     1      31.899  22.759  28.233  0.00  0.00    +0.000 C 
ATOM     17  C   UNL     1      32.476  22.000  29.381  0.00  0.00    +0.000 C 
ENDROOT
BRANCH   1  18
ATOM     18  C   UNL     1      31.655  21.230  31.446  0.00  0.00    +0.000 C 
BRANCH  18  20
ATOM     19  C   UNL     1      30.520  21.249  33.647  0.00  0.00    +0.000 C 
ATOM     20  C   UNL     1      31.577  21.555  32.905  0.00  0.00    +0.000 C 
ENDBRANCH  18  20
ENDBRANCH   1  18
TORSDOF 2
ENDMDL
MODEL 4
REMARK VINA RESULT:      -5.6     31.363     32.916
REMARK  Name = 
REMARK  2 active torsions:
REMARK  status: ('A' for Active; 'I' for Inactive)
REMARK    1  A    between atoms: C_2  and  C_3
REMARK    2  A    between atoms: C_3  and  N_4
REMARK                            x       y       z     vdW  Elec       q    Type
REMARK                         _______ _______ _______ _____ _____    ______ ____
ROOT
ATOM      1  N   UNL     1      29.789  22.233  11.311  0.00  0.00    +0.000 N 
ATOM      2  C   UNL     1      28.367  21.996  11.058  0.00  0.00    +0.000 C 
ATOM      3  C   UNL     1      30.235  21.237  12.232  0.00  0.00    +0.000 C 
ATOM      4  C   UNL     1      31.732  21.241  12.337  0.00  0.00    +0.000 C 
ATOM      5  N   UNL     1      32.298  20.921  11.044  0.00  0.00    +0.000 N 
ATOM      6  C   UNL     1      33.607  20.369  10.905  0.00  0.00    +0.000 A 
ATOM      7  N   UNL     1      34.434  20.090  11.891  0.00  0.00    +0.000 NA
ATOM      8  C   UNL     1      35.612  19.583  11.625  0.00  0.00    +0.000 A 
ATOM      9  C   UNL     1      36.598  19.235  12.563  0.00  0.00    +0.000 A 
ATOM     10  C   UNL     1      37.780  18.718  12.170  0.00  0.00    +0.000 A 
ATOM     11  C   UNL     1      38.124  18.491  10.865  0.00  0.00    +0.000 A 
ATOM     12  O   UNL     1      39.339  17.960  10.471  0.00  0.00    +0.000 OA
ATOM     13  C   UNL     1      37.159  18.829   9.912  0.00  0.00    +0.000 A 
ATOM     14  C   UNL     1      35.933  19.365  10.319  0.00  0.00    +0.000 A 
ATOM     15  S   UNL     1      34.501  19.908   9.531  0.00  0.00    +0.000 S 
ATOM     16  C   UNL     1      31.488  21.182   9.875  0.00  0.00    +0.000 C 
ATOM     17  C   UNL     1      30.559  22.326  10.112  0.00  0.00    +0.000 C 
ENDROOT
BRANCH   1  18
ATOM     18  C   UNL     1      29.851  23.529  12.004  0.00  0.00    +0.000 C 
BRANCH  18  20
ATOM     19  C   UNL     1      28.674  24.140  14.096  0.00  0.00    +0.000 C 
ATOM     20  C   UNL     1      28.621  23.745  12.830  0.00  0.00    +0.000 C 
ENDBRANCH  18  20
ENDBRANCH   1  18
TORSDOF 2
ENDMDL
MODEL 5
REMARK VINA RESULT:      -5.5     12.312     14.999
REMARK  Name = 
REMARK  2 active torsions:
REMARK  status: ('A' for Active; 'I' for Inactive)
REMARK    1  A    between atoms: C_2  and  C_3
REMARK    2  A    between atoms: C_3  and  N_4
REMARK                            x       y       z     vdW  Elec       q    Type
REMARK                         _______ _______ _______ _____ _____    ______ ____
ROOT
ATOM      1  N   UNL     1      25.970  -9.520  23.259  0.00  0.00    +0.000 N 
ATOM      2  C   UNL     1      26.549 -10.329  22.186  0.00  0.00    +0.000 C 
ATOM      3  C   UNL     1      25.211  -8.474  22.651  0.00  0.00    +0.000 C 
ATOM      4  C   UNL     1      24.370  -7.765  23.670  0.00  0.00    +0.000 C 
ATOM      5  N   UNL     1      23.431  -8.704  24.246  0.00  0.00    +0.000 N 
ATOM      6  C   UNL     1      22.207  -8.280  24.847  0.00  0.00    +0.000 A 
ATOM      7  N   UNL     1      21.790  -7.036  24.950  0.00  0.00    +0.000 NA
ATOM      8  C   UNL     1      20.642  -6.782  25.526  0.00  0.00    +0.000 A 
ATOM      9  C   UNL     1      20.065  -5.515  25.710  0.00  0.00    +0.000 A 
ATOM     10  C   UNL     1      18.871  -5.376  26.321  0.00  0.00    +0.000 A 
ATOM     11  C   UNL     1      18.129  -6.419  26.805  0.00  0.00    +0.000 A 
ATOM     12  O   UNL     1      16.905  -6.267  27.430  0.00  0.00    +0.000 OA
ATOM     13  C   UNL     1      18.681  -7.692  26.633  0.00  0.00    +0.000 A 
ATOM     14  C   UNL     1      19.920  -7.836  26.000  0.00  0.00    +0.000 A 
ATOM     15  S   UNL     1      20.947  -9.155  25.586  0.00  0.00    +0.000 S 
ATOM     16  C   UNL     1      23.773 -10.107  24.198  0.00  0.00    +0.000 C 
ATOM     17  C   UNL     1      25.253 -10.299  24.218  0.00  0.00    +0.000 C 
ENDROOT
BRANCH   1  18
ATOM     18  C   UNL     1      27.116  -8.892  23.935  0.00  0.00    +0.000 C 
BRANCH  18  20
ATOM     19  C   UNL     1      28.378 -10.359  25.480  0.00  0.00    +0.000 C 
ATOM     20  C   UNL     1      28.166  -9.912  24.249  0.00  0.00    +0.000 C 
ENDBRANCH  18  20
ENDBRANCH   1  18
TORSDOF 2
ENDMDL
MODEL 6
REMARK VINA RESULT:      -5.5      5.136      8.491
REMARK  Name = 
REMARK  2 active torsions:
REMARK  status: ('A' for Active; 'I' for Inactive)
REMARK    1  A    between atoms: C_2  and  C_3
REMARK    2  A    between atoms: C_3  and  N_4
REMARK                            x       y       z     vdW  Elec       q    Type
REMARK                         _______ _______ _______ _____ _____    ______ ____
ROOT
ATOM      1  N   UNL     1      33.846  -4.419  34.842  0.00  0.00    +0.000 N 
ATOM      2  C   UNL     1      34.551  -5.582  34.305  0.00  0.00    +0.000 C 
ATOM      3  C   UNL     1      34.791  -3.641  35.577  0.00  0.00    +0.000 C 
ATOM      4  C   UNL     1      34.217  -2.301  35.933  0.00  0.00    +0.000 C 
ATOM      5  N   UNL     1      33.912  -1.579  34.716  0.00  0.00    +0.000 N 
ATOM      6  C   UNL     1      33.832  -0.154  34.681  0.00  0.00    +0.000 A 
ATOM      7  N   UNL     1      34.017   0.653  35.704  0.00  0.00    +0.000 NA
ATOM      8  C   UNL     1      33.915   1.948  35.536  0.00  0.00    +0.000 A 
ATOM      9  C   UNL     1      34.083   2.932  36.524  0.00  0.00    +0.000 A 
ATOM     10  C   UNL     1      33.953   4.242  36.231  0.00  0.00    +0.000 A 
ATOM     11  C   UNL     1      33.653   4.725  34.987  0.00  0.00    +0.000 A 
ATOM     12  O   UNL     1      33.521   6.071  34.695  0.00  0.00    +0.000 OA
ATOM     13  C   UNL     1      33.481   3.766  33.984  0.00  0.00    +0.000 A 
ATOM     14  C   UNL     1      33.616   2.407  34.288  0.00  0.00    +0.000 A 
ATOM     15  S   UNL     1      33.497   0.930  33.411  0.00  0.00    +0.000 S 
ATOM     16  C   UNL     1      33.686  -2.352  33.516  0.00  0.00    +0.000 C 
ATOM     17  C   UNL     1      33.124  -3.696  33.843  0.00  0.00    +0.000 C 
ENDROOT
BRANCH   1  18
ATOM     18  C   UNL     1      32.880  -4.962  35.810  0.00  0.00    +0.000 C 
BRANCH  18  20
ATOM     19  C   UNL     1      30.756  -6.223  35.621  0.00  0.00    +0.000 C 
ATOM     20  C   UNL     1      31.596  -5.321  35.129  0.00  0.00    +0.000 C 
ENDBRANCH  18  20
ENDBRANCH   1  18
TORSDOF 2
ENDMDL
MODEL 7
REMARK VINA RESULT:      -5.4     30.519     33.836
REMARK  Name = 
REMARK  2 active torsions:
REMARK  status: ('A' for Active; 'I' for Inactive)
REMARK    1  A    between atoms: C_2  and  C_3
REMARK    2  A    between atoms: C_3  and  N_4
REMARK                            x       y       z     vdW  Elec       q    Type
REMARK                         _______ _______ _______ _____ _____    ______ ____
ROOT
ATOM      1  N   UNL     1      30.249  28.962  17.238  0.00  0.00    +0.000 N 
ATOM      2  C   UNL     1      30.726  30.297  16.879  0.00  0.00    +0.000 C 
ATOM      3  C   UNL     1      31.134  28.439  18.230  0.00  0.00    +0.000 C 
ATOM      4  C   UNL     1      30.567  27.193  18.845  0.00  0.00    +0.000 C 
ATOM      5  N   UNL     1      29.319  27.515  19.503  0.00  0.00    +0.000 N 
ATOM      6  C   UNL     1      28.795  26.718  20.565  0.00  0.00    +0.000 A 
ATOM      7  N   UNL     1      29.354  25.636  21.064  0.00  0.00    +0.000 NA
ATOM      8  C   UNL     1      28.765  24.995  22.044  0.00  0.00    +0.000 A 
ATOM      9  C   UNL     1      29.234  23.833  22.678  0.00  0.00    +0.000 A 
ATOM     10  C   UNL     1      28.539  23.259  23.681  0.00  0.00    +0.000 A 
ATOM     11  C   UNL     1      27.350  23.734  24.162  0.00  0.00    +0.000 A 
ATOM     12  O   UNL     1      26.644  23.138  25.192  0.00  0.00    +0.000 OA
ATOM     13  C   UNL     1      26.862  24.891  23.548  0.00  0.00    +0.000 A 
ATOM     14  C   UNL     1      27.583  25.487  22.508  0.00  0.00    +0.000 A 
ATOM     15  S   UNL     1      27.377  26.865  21.496  0.00  0.00    +0.000 S 
ATOM     16  C   UNL     1      28.603  28.684  19.046  0.00  0.00    +0.000 C 
ATOM     17  C   UNL     1      28.867  28.943  17.600  0.00  0.00    +0.000 C 
ENDROOT
BRANCH   1  18
ATOM     18  C   UNL     1      30.422  28.147  16.025  0.00  0.00    +0.000 C 
BRANCH  18  20
ATOM     19  C   UNL     1      29.026  26.299  15.149  0.00  0.00    +0.000 C 
ATOM     20  C   UNL     1      29.119  27.540  15.607  0.00  0.00    +0.000 C 
ENDBRANCH  18  20
ENDBRANCH   1  18
TORSDOF 2
ENDMDL
MODEL 8
REMARK VINA RESULT:      -5.3      6.710      9.839
REMARK  Name = 
REMARK  2 active torsions:
REMARK  status: ('A' for Active; 'I' for Inactive)
REMARK    1  A    between atoms: C_2  and  C_3
REMARK    2  A    between atoms: C_3  and  N_4
REMARK                            x       y       z     vdW  Elec       q    Type
REMARK                         _______ _______ _______ _____ _____    ______ ____
ROOT
ATOM      1  N   UNL     1      35.823   8.045  37.017  0.00  0.00    +0.000 N 
ATOM      2  C   UNL     1      36.970   8.812  37.503  0.00  0.00    +0.000 C 
ATOM      3  C   UNL     1      36.215   7.403  35.803  0.00  0.00    +0.000 C 
ATOM      4  C   UNL     1      35.194   6.388  35.383  0.00  0.00    +0.000 C 
ATOM      5  N   UNL     1      35.095   5.365  36.403  0.00  0.00    +0.000 N 
ATOM      6  C   UNL     1      34.619   4.050  36.114  0.00  0.00    +0.000 A 
ATOM      7  N   UNL     1      34.224   3.616  34.936  0.00  0.00    +0.000 NA
ATOM      8  C   UNL     1      33.808   2.380  34.806  0.00  0.00    +0.000 A 
ATOM      9  C   UNL     1      33.359   1.774  33.622  0.00  0.00    +0.000 A 
ATOM     10  C   UNL     1      32.953   0.488  33.610  0.00  0.00    +0.000 A 
ATOM     11  C   UNL     1      32.938  -0.324  34.711  0.00  0.00    +0.000 A 
ATOM     12  O   UNL     1      32.519  -1.642  34.689  0.00  0.00    +0.000 OA
ATOM     13  C   UNL     1      33.381   0.256  35.903  0.00  0.00    +0.000 A 
ATOM     14  C   UNL     1      33.802   1.590  35.916  0.00  0.00    +0.000 A 
ATOM     15  S   UNL     1      34.405   2.682  37.104  0.00  0.00    +0.000 S 
ATOM     16  C   UNL     1      35.499   5.717  37.745  0.00  0.00    +0.000 C 
ATOM     17  C   UNL     1      35.279   7.170  38.007  0.00  0.00    +0.000 C 
ENDROOT
BRANCH   1  18
ATOM     18  C   UNL     1      34.802   9.046  36.673  0.00  0.00    +0.000 C 
BRANCH  18  20
ATOM     19  C   UNL     1      34.671  11.110  35.310  0.00  0.00    +0.000 C 
ATOM     20  C   UNL     1      35.334  10.018  35.665  0.00  0.00    +0.000 C 
ENDBRANCH  18  20
ENDBRANCH   1  18
TORSDOF 2
ENDMDL
MODEL 9
REMARK VINA RESULT:      -5.3     28.334     31.326
REMARK  Name = 
REMARK  2 active torsions:
REMARK  status: ('A' for Active; 'I' for Inactive)
REMARK    1  A    between atoms: C_2  and  C_3
REMARK    2  A    between atoms: C_3  and  N_4
REMARK                            x       y       z     vdW  Elec       q    Type
REMARK                         _______ _______ _______ _____ _____    ______ ____
ROOT
ATOM      1  N   UNL     1      21.015  27.511  28.055  0.00  0.00    +0.000 N 
ATOM      2  C   UNL     1      20.519  28.846  28.389  0.00  0.00    +0.000 C 
ATOM      3  C   UNL     1      21.863  27.638  26.913  0.00  0.00    +0.000 C 
ATOM      4  C   UNL     1      22.623  26.367  26.670  0.00  0.00    +0.000 C 
ATOM      5  N   UNL     1      23.471  26.097  27.812  0.00  0.00    +0.000 N 
ATOM      6  C   UNL     1      24.643  25.288  27.711  0.00  0.00    +0.000 A 
ATOM      7  N   UNL     1      25.087  24.710  26.615  0.00  0.00    +0.000 NA
ATOM      8  C   UNL     1      26.182  23.991  26.660  0.00  0.00    +0.000 A 
ATOM      9  C   UNL     1      26.778  23.317  25.582  0.00  0.00    +0.000 A 
ATOM     10  C   UNL     1      27.911  22.605  25.748  0.00  0.00    +0.000 A 
ATOM     11  C   UNL     1      28.568  22.472  26.941  0.00  0.00    +0.000 A 
ATOM     12  O   UNL     1      29.730  21.740  27.102  0.00  0.00    +0.000 OA
ATOM     13  C   UNL     1      27.995  23.136  28.030  0.00  0.00    +0.000 A 
ATOM     14  C   UNL     1      26.820  23.874  27.858  0.00  0.00    +0.000 A 
ATOM     15  S   UNL     1      25.797  24.818  28.872  0.00  0.00    +0.000 S 
ATOM     16  C   UNL     1      23.091  26.676  29.081  0.00  0.00    +0.000 C 
ATOM     17  C   UNL     1      21.610  26.844  29.171  0.00  0.00    +0.000 C 
ENDROOT
BRANCH   1  18
ATOM     18  C   UNL     1      19.830  26.747  27.637  0.00  0.00    +0.000 C 
BRANCH  18  20
ATOM     19  C   UNL     1      18.299  25.258  28.891  0.00  0.00    +0.000 C 
ATOM     20  C   UNL     1      19.535  25.652  28.615  0.00  0.00    +0.000 C 
ENDBRANCH  18  20
ENDBRANCH   1  18
TORSDOF 2
ENDMDL
MODEL 10
REMARK VINA RESULT:      -5.2      3.468      7.630
REMARK  Name = 
REMARK  2 active torsions:
REMARK  status: ('A' for Active; 'I' for Inactive)
REMARK    1  A    between atoms: C_2  and  C_3
REMARK    2  A    between atoms: C_3  and  N_4
REMARK                            x       y       z     vdW  Elec       q    Type
REMARK                         _______ _______ _______ _____ _____    ______ ____
ROOT
ATOM      1  N   UNL     1      33.390  -7.385  31.040  0.00  0.00    +0.000 N 
ATOM      2  C   UNL     1      32.549  -8.498  30.598  0.00  0.00    +0.000 C 
ATOM      3  C   UNL     1      32.748  -6.173  30.643  0.00  0.00    +0.000 C 
ATOM      4  C   UNL     1      33.402  -4.987  31.289  0.00  0.00    +0.000 C 
ATOM      5  N   UNL     1      33.271  -5.098  32.725  0.00  0.00    +0.000 N 
ATOM      6  C   UNL     1      33.327  -3.957  33.582  0.00  0.00    +0.000 A 
ATOM      7  N   UNL     1      33.498  -2.711  33.194  0.00  0.00    +0.000 NA
ATOM      8  C   UNL     1      33.530  -1.753  34.086  0.00  0.00    +0.000 A 
ATOM      9  C   UNL     1      33.703  -0.383  33.830  0.00  0.00    +0.000 A 
ATOM     10  C   UNL     1      33.720   0.517  34.835  0.00  0.00    +0.000 A 
ATOM     11  C   UNL     1      33.575   0.195  36.157  0.00  0.00    +0.000 A 
ATOM     12  O   UNL     1      33.594   1.124  37.181  0.00  0.00    +0.000 OA
ATOM     13  C   UNL     1      33.401  -1.163  36.439  0.00  0.00    +0.000 A 
ATOM     14  C   UNL     1      33.384  -2.096  35.397  0.00  0.00    +0.000 A 
ATOM     15  S   UNL     1      33.204  -3.804  35.273  0.00  0.00    +0.000 S 
ATOM     16  C   UNL     1      33.079  -6.418  33.281  0.00  0.00    +0.000 C 
ATOM     17  C   UNL     1      33.725  -7.458  32.427  0.00  0.00    +0.000 C 
ENDROOT
BRANCH   1  18
ATOM     18  C   UNL     1      34.631  -7.500  30.257  0.00  0.00    +0.000 C 
BRANCH  18  20
ATOM     19  C   UNL     1      34.322  -6.801  27.901  0.00  0.00    +0.000 C 
ATOM     20  C   UNL     1      34.323  -7.762  28.815  0.00  0.00    +0.000 C 
ENDBRANCH  18  20
ENDBRANCH   1  18
TORSDOF 2
ENDMDL
