MODEL 1
REMARK VINA RESULT:      -7.6      0.000      0.000
REMARK  Name = 
REMARK  6 active torsions:
REMARK  status: ('A' for Active; 'I' for Inactive)
REMARK    1  A    between atoms: C_2  and  C_3
REMARK    2  A    between atoms: C_3  and  C_5
REMARK    3  A    between atoms: C_8  and  N_9
REMARK    4  A    between atoms: C_10  and  C_12
REMARK    5  A    between atoms: C_16  and  C_17
REMARK    6  A    between atoms: C_20  and  O_21
REMARK                            x       y       z     vdW  Elec       q    Type
REMARK                         _______ _______ _______ _____ _____    ______ ____
ROOT
ATOM      1  C   UNL     1      37.469   4.439  12.734  0.00  0.00    +0.000 A 
ATOM      2  S   UNL     1      36.824   5.395  11.478  0.00  0.00    +0.000 S 
ATOM      3  C   UNL     1      36.716   4.204  10.253  0.00  0.00    +0.000 A 
ATOM      4  N   UNL     1      36.285   4.227   8.948  0.00  0.00    +0.000 NA
ATOM      5  C   UNL     1      36.294   3.141   8.163  0.00  0.00    +0.000 A 
ATOM      6  C   UNL     1      36.770   2.001   8.763  0.00  0.00    +0.000 A 
ATOM      7  C   UNL     1      37.211   1.925  10.053  0.00  0.00    +0.000 A 
ATOM      8  C   UNL     1      37.191   3.089  10.868  0.00  0.00    +0.000 A 
ATOM      9  C   UNL     1      37.585   3.213  12.168  0.00  0.00    +0.000 A 
ATOM     10  N   UNL     1      38.121   2.113  12.981  0.00  0.00    +0.000 NA
ENDROOT
BRANCH   5  11
ATOM     11  C   UNL     1      35.835   3.170   6.777  0.00  0.00    +0.000 A 
ATOM     12  C   UNL     1      35.997   2.092   5.932  0.00  0.00    +0.000 A 
ATOM     13  C   UNL     1      35.585   2.072   4.634  0.00  0.00    +0.000 A 
ATOM     14  C   UNL     1      34.969   3.204   4.141  0.00  0.00    +0.000 A 
ATOM     15  C   UNL     1      34.776   4.317   4.935  0.00  0.00    +0.000 A 
ATOM     16  C   UNL     1      35.211   4.279   6.235  0.00  0.00    +0.000 A 
BRANCH  14  17
ATOM     17  O   UNL     1      34.513   3.272   2.816  0.00  0.00    +0.000 OA
ATOM     18  C   UNL     1      34.239   2.073   2.108  0.00  0.00    +0.000 C 
ENDBRANCH  14  17
ENDBRANCH   5  11
BRANCH   1  20
ATOM     19  N   UNL     1      39.036   4.596  14.700  0.00  0.00    +0.000 NA
ATOM     20  C   UNL     1      37.801   4.884  14.087  0.00  0.00    +0.000 C 
ATOM     21  O   UNL     1      36.953   5.543  14.718  0.00  0.00    +0.000 OA
BRANCH  19  25
ATOM     22  C   UNL     1      39.997   5.935  18.601  0.00  0.00    +0.000 A 
ATOM     23  C   UNL     1      40.701   6.358  17.538  0.00  0.00    +0.000 A 
ATOM     24  C   UNL     1      40.384   5.915  16.244  0.00  0.00    +0.000 A 
ATOM     25  C   UNL     1      39.347   5.038  16.026  0.00  0.00    +0.000 A 
ATOM     26  C   UNL     1      38.632   4.611  17.121  0.00  0.00    +0.000 A 
ATOM     27  C   UNL     1      38.958   5.060  18.412  0.00  0.00    +0.000 A 
BRANCH  22  28
ATOM     28  C   UNL     1      40.324   6.416  20.070  0.00  0.00    +0.000 C 
ATOM     29  C   UNL     1      39.743   7.950  19.880  0.00  0.00    +0.000 C 
BRANCH  28  31
ATOM     30  C   UNL     1      42.716   6.193  20.786  0.00  0.00    +0.000 C 
ATOM     31  C   UNL     1      41.872   6.871  19.723  0.00  0.00    +0.000 C 
ENDBRANCH  28  31
ENDBRANCH  22  28
ENDBRANCH  19  25
ENDBRANCH   1  20
TORSDOF 6
ENDMDL
MODEL 2
REMARK VINA RESULT:      -7.4      1.283      1.949
REMARK  Name = 
REMARK  6 active torsions:
REMARK  status: ('A' for Active; 'I' for Inactive)
REMARK    1  A    between atoms: C_2  and  C_3
REMARK    2  A    between atoms: C_3  and  C_5
REMARK    3  A    between atoms: C_8  and  N_9
REMARK    4  A    between atoms: C_10  and  C_12
REMARK    5  A    between atoms: C_16  and  C_17
REMARK    6  A    between atoms: C_20  and  O_21
REMARK                            x       y       z     vdW  Elec       q    Type
REMARK                         _______ _______ _______ _____ _____    ______ ____
ROOT
ATOM      1  C   UNL     1      37.206   5.213  12.607  0.00  0.00    +0.000 A 
ATOM      2  S   UNL     1      37.482   3.756  11.765  0.00  0.00    +0.000 S 
ATOM      3  C   UNL     1      36.759   4.161  10.268  0.00  0.00    +0.000 A 
ATOM      4  N   UNL     1      36.591   3.482   9.084  0.00  0.00    +0.000 NA
ATOM      5  C   UNL     1      35.977   4.019   8.021  0.00  0.00    +0.000 A 
ATOM      6  C   UNL     1      35.525   5.302   8.206  0.00  0.00    +0.000 A 
ATOM      7  C   UNL     1      35.664   6.020   9.359  0.00  0.00    +0.000 A 
ATOM      8  C   UNL     1      36.320   5.431  10.474  0.00  0.00    +0.000 A 
ATOM      9  C   UNL     1      36.555   5.981  11.700  0.00  0.00    +0.000 A 
ATOM     10  N   UNL     1      36.150   7.338  12.091  0.00  0.00    +0.000 NA
ENDROOT
BRANCH   5  11
ATOM     11  C   UNL     1      35.802   3.293   6.767  0.00  0.00    +0.000 A 
ATOM     12  C   UNL     1      35.193   3.869   5.670  0.00  0.00    +0.000 A 
ATOM     13  C   UNL     1      35.008   3.233   4.480  0.00  0.00    +0.000 A 
ATOM     14  C   UNL     1      35.459   1.934   4.372  0.00  0.00    +0.000 A 
ATOM     15  C   UNL     1      36.078   1.301   5.431  0.00  0.00    +0.000 A 
ATOM     16  C   UNL     1      36.237   1.990   6.606  0.00  0.00    +0.000 A 
BRANCH  14  17
ATOM     17  O   UNL     1      35.311   1.203   3.184  0.00  0.00    +0.000 OA
ATOM     18  C   UNL     1      34.248   1.518   2.297  0.00  0.00    +0.000 C 
ENDBRANCH  14  17
ENDBRANCH   5  11
BRANCH   1  20
ATOM     19  N   UNL     1      38.781   5.010  14.562  0.00  0.00    +0.000 NA
ATOM     20  C   UNL     1      37.599   5.513  13.983  0.00  0.00    +0.000 C 
ATOM     21  O   UNL     1      36.855   6.243  14.665  0.00  0.00    +0.000 OA
BRANCH  19  25
ATOM     22  C   UNL     1      39.918   5.941  18.533  0.00  0.00    +0.000 A 
ATOM     23  C   UNL     1      40.502   6.556  17.491  0.00  0.00    +0.000 A 
ATOM     24  C   UNL     1      40.126   6.248  16.174  0.00  0.00    +0.000 A 
ATOM     25  C   UNL     1      39.152   5.312  15.911  0.00  0.00    +0.000 A 
ATOM     26  C   UNL     1      38.561   4.689  16.986  0.00  0.00    +0.000 A 
ATOM     27  C   UNL     1      38.944   5.004  18.300  0.00  0.00    +0.000 A 
BRANCH  22  28
ATOM     28  C   UNL     1      40.314   6.266  20.028  0.00  0.00    +0.000 C 
ATOM     29  C   UNL     1      39.403   7.638  20.151  0.00  0.00    +0.000 C 
BRANCH  28  31
ATOM     30  C   UNL     1      42.784   6.434  20.419  0.00  0.00    +0.000 C 
ATOM     31  C   UNL     1      41.677   7.107  19.629  0.00  0.00    +0.000 C 
ENDBRANCH  28  31
ENDBRANCH  22  28
ENDBRANCH  19  25
ENDBRANCH   1  20
TORSDOF 6
ENDMDL
MODEL 3
REMARK VINA RESULT:      -7.3     18.154     22.589
REMARK  Name = 
REMARK  6 active torsions:
REMARK  status: ('A' for Active; 'I' for Inactive)
REMARK    1  A    between atoms: C_2  and  C_3
REMARK    2  A    between atoms: C_3  and  C_5
REMARK    3  A    between atoms: C_8  and  N_9
REMARK    4  A    between atoms: C_10  and  C_12
REMARK    5  A    between atoms: C_16  and  C_17
REMARK    6  A    between atoms: C_20  and  O_21
REMARK                            x       y       z     vdW  Elec       q    Type
REMARK                         _______ _______ _______ _____ _____    ______ ____
ROOT
ATOM      1  C   UNL     1      25.912  18.400  21.064  0.00  0.00    +0.000 A 
ATOM      2  S   UNL     1      26.800  16.949  21.164  0.00  0.00    +0.000 S 
ATOM      3  C   UNL     1      28.295  17.577  21.710  0.00  0.00    +0.000 A 
ATOM      4  N   UNL     1      29.507  17.004  22.019  0.00  0.00    +0.000 NA
ATOM      5  C   UNL     1      30.560  17.717  22.438  0.00  0.00    +0.000 A 
ATOM      6  C   UNL     1      30.338  19.068  22.535  0.00  0.00    +0.000 A 
ATOM      7  C   UNL     1      29.157  19.688  22.241  0.00  0.00    +0.000 A 
ATOM      8  C   UNL     1      28.052  18.911  21.799  0.00  0.00    +0.000 A 
ATOM      9  C   UNL     1      26.803  19.342  21.460  0.00  0.00    +0.000 A 
ATOM     10  N   UNL     1      26.370  20.745  21.497  0.00  0.00    +0.000 NA
ENDROOT
BRANCH   5  11
ATOM     11  C   UNL     1      31.844  17.103  22.764  0.00  0.00    +0.000 A 
ATOM     12  C   UNL     1      32.179  16.756  24.058  0.00  0.00    +0.000 A 
ATOM     13  C   UNL     1      33.362  16.182  24.410  0.00  0.00    +0.000 A 
ATOM     14  C   UNL     1      34.277  15.934  23.408  0.00  0.00    +0.000 A 
ATOM     15  C   UNL     1      34.003  16.256  22.093  0.00  0.00    +0.000 A 
ATOM     16  C   UNL     1      32.795  16.833  21.797  0.00  0.00    +0.000 A 
BRANCH  14  17
ATOM     17  O   UNL     1      35.521  15.345  23.679  0.00  0.00    +0.000 OA
ATOM     18  C   UNL     1      36.650  15.706  22.898  0.00  0.00    +0.000 C 
ENDBRANCH  14  17
ENDBRANCH   5  11
BRANCH   1  20
ATOM     19  N   UNL     1      24.152  19.092  19.400  0.00  0.00    +0.000 NA
ATOM     20  C   UNL     1      24.518  18.543  20.645  0.00  0.00    +0.000 C 
ATOM     21  O   UNL     1      23.624  18.165  21.425  0.00  0.00    +0.000 OA
BRANCH  19  25
ATOM     22  C   UNL     1      20.103  19.545  18.246  0.00  0.00    +0.000 A 
ATOM     23  C   UNL     1      20.776  20.567  18.800  0.00  0.00    +0.000 A 
ATOM     24  C   UNL     1      22.118  20.418  19.184  0.00  0.00    +0.000 A 
ATOM     25  C   UNL     1      22.782  19.227  19.004  0.00  0.00    +0.000 A 
ATOM     26  C   UNL     1      22.084  18.187  18.435  0.00  0.00    +0.000 A 
ATOM     27  C   UNL     1      20.741  18.346  18.056  0.00  0.00    +0.000 A 
BRANCH  22  28
ATOM     28  C   UNL     1      18.593  19.679  17.799  0.00  0.00    +0.000 C 
ATOM     29  C   UNL     1      18.164  18.131  18.180  0.00  0.00    +0.000 C 
BRANCH  28  31
ATOM     30  C   UNL     1      18.870  20.633  15.497  0.00  0.00    +0.000 C 
ATOM     31  C   UNL     1      18.884  19.299  16.220  0.00  0.00    +0.000 C 
ENDBRANCH  28  31
ENDBRANCH  22  28
ENDBRANCH  19  25
ENDBRANCH   1  20
TORSDOF 6
ENDMDL
MODEL 4
REMARK VINA RESULT:      -7.3      2.103      2.867
REMARK  Name = 
REMARK  6 active torsions:
REMARK  status: ('A' for Active; 'I' for Inactive)
REMARK    1  A    between atoms: C_2  and  C_3
REMARK    2  A    between atoms: C_3  and  C_5
REMARK    3  A    between atoms: C_8  and  N_9
REMARK    4  A    between atoms: C_10  and  C_12
REMARK    5  A    between atoms: C_16  and  C_17
REMARK    6  A    between atoms: C_20  and  O_21
REMARK                            x       y       z     vdW  Elec       q    Type
REMARK                         _______ _______ _______ _____ _____    ______ ____
ROOT
ATOM      1  C   UNL     1      36.495   5.934  12.726  0.00  0.00    +0.000 A 
ATOM      2  S   UNL     1      36.934   4.939  11.414  0.00  0.00    +0.000 S 
ATOM      3  C   UNL     1      35.899   5.589  10.216  0.00  0.00    +0.000 A 
ATOM      4  N   UNL     1      35.686   5.296   8.889  0.00  0.00    +0.000 NA
ATOM      5  C   UNL     1      34.801   5.960   8.134  0.00  0.00    +0.000 A 
ATOM      6  C   UNL     1      34.120   6.958   8.788  0.00  0.00    +0.000 A 
ATOM      7  C   UNL     1      34.293   7.289  10.102  0.00  0.00    +0.000 A 
ATOM      8  C   UNL     1      35.238   6.571  10.884  0.00  0.00    +0.000 A 
ATOM      9  C   UNL     1      35.551   6.751  12.199  0.00  0.00    +0.000 A 
ATOM     10  N   UNL     1      34.935   7.763  13.068  0.00  0.00    +0.000 NA
ENDROOT
BRANCH   5  11
ATOM     11  C   UNL     1      34.578   5.645   6.726  0.00  0.00    +0.000 A 
ATOM     12  C   UNL     1      33.828   6.463   5.905  0.00  0.00    +0.000 A 
ATOM     13  C   UNL     1      33.594   6.210   4.588  0.00  0.00    +0.000 A 
ATOM     14  C   UNL     1      34.143   5.066   4.047  0.00  0.00    +0.000 A 
ATOM     15  C   UNL     1      34.904   4.206   4.814  0.00  0.00    +0.000 A 
ATOM     16  C   UNL     1      35.107   4.511   6.136  0.00  0.00    +0.000 A 
BRANCH  14  17
ATOM     17  O   UNL     1      33.953   4.728   2.699  0.00  0.00    +0.000 OA
ATOM     18  C   UNL     1      33.986   3.363   2.310  0.00  0.00    +0.000 C 
ENDBRANCH  14  17
ENDBRANCH   5  11
BRANCH   1  20
ATOM     19  N   UNL     1      38.075   6.729  14.520  0.00  0.00    +0.000 NA
ATOM     20  C   UNL     1      37.040   5.880  14.083  0.00  0.00    +0.000 C 
ATOM     21  O   UNL     1      36.566   5.047  14.878  0.00  0.00    +0.000 OA
BRANCH  19  25
ATOM     22  C   UNL     1      39.586   6.575  18.473  0.00  0.00    +0.000 A 
ATOM     23  C   UNL     1      38.549   7.372  18.166  0.00  0.00    +0.000 A 
ATOM     24  C   UNL     1      38.048   7.425  16.856  0.00  0.00    +0.000 A 
ATOM     25  C   UNL     1      38.599   6.664  15.850  0.00  0.00    +0.000 A 
ATOM     26  C   UNL     1      39.660   5.850  16.176  0.00  0.00    +0.000 A 
ATOM     27  C   UNL     1      40.155   5.806  17.490  0.00  0.00    +0.000 A 
BRANCH  22  28
ATOM     28  C   UNL     1      40.173   6.488  19.937  0.00  0.00    +0.000 C 
ATOM     29  C   UNL     1      40.160   8.114  20.223  0.00  0.00    +0.000 C 
BRANCH  28  31
ATOM     30  C   UNL     1      42.537   6.157  20.704  0.00  0.00    +0.000 C 
ATOM     31  C   UNL     1      41.751   6.501  19.453  0.00  0.00    +0.000 C 
ENDBRANCH  28  31
ENDBRANCH  22  28
ENDBRANCH  19  25
ENDBRANCH   1  20
TORSDOF 6
ENDMDL
MODEL 5
REMARK VINA RESULT:      -7.1      5.671      6.848
REMARK  Name = 
REMARK  6 active torsions:
REMARK  status: ('A' for Active; 'I' for Inactive)
REMARK    1  A    between atoms: C_2  and  C_3
REMARK    2  A    between atoms: C_3  and  C_5
REMARK    3  A    between atoms: C_8  and  N_9
REMARK    4  A    between atoms: C_10  and  C_12
REMARK    5  A    between atoms: C_16  and  C_17
REMARK    6  A    between atoms: C_20  and  O_21
REMARK                            x       y       z     vdW  Elec       q    Type
REMARK                         _______ _______ _______ _____ _____    ______ ____
ROOT
ATOM      1  C   UNL     1      35.858   4.834  13.218  0.00  0.00    +0.000 A 
ATOM      2  S   UNL     1      36.598   5.093  11.703  0.00  0.00    +0.000 S 
ATOM      3  C   UNL     1      35.793   6.533  11.246  0.00  0.00    +0.000 A 
ATOM      4  N   UNL     1      35.863   7.345  10.139  0.00  0.00    +0.000 NA
ATOM      5  C   UNL     1      35.116   8.448  10.001  0.00  0.00    +0.000 A 
ATOM      6  C   UNL     1      34.272   8.707  11.052  0.00  0.00    +0.000 A 
ATOM      7  C   UNL     1      34.162   7.934  12.173  0.00  0.00    +0.000 A 
ATOM      8  C   UNL     1      34.966   6.768  12.299  0.00  0.00    +0.000 A 
ATOM      9  C   UNL     1      35.001   5.878  13.332  0.00  0.00    +0.000 A 
ATOM     10  N   UNL     1      34.176   5.979  14.543  0.00  0.00    +0.000 NA
ENDROOT
BRANCH   5  11
ATOM     11  C   UNL     1      35.194   9.307   8.823  0.00  0.00    +0.000 A 
ATOM     12  C   UNL     1      36.042  10.395   8.768  0.00  0.00    +0.000 A 
ATOM     13  C   UNL     1      36.149  11.223   7.692  0.00  0.00    +0.000 A 
ATOM     14  C   UNL     1      35.360  10.951   6.594  0.00  0.00    +0.000 A 
ATOM     15  C   UNL     1      34.492   9.878   6.584  0.00  0.00    +0.000 A 
ATOM     16  C   UNL     1      34.425   9.078   7.696  0.00  0.00    +0.000 A 
BRANCH  14  17
ATOM     17  O   UNL     1      35.406  11.752   5.442  0.00  0.00    +0.000 OA
ATOM     18  C   UNL     1      35.274  13.160   5.564  0.00  0.00    +0.000 C 
ENDBRANCH  14  17
ENDBRANCH   5  11
BRANCH   1  20
ATOM     19  N   UNL     1      35.251   2.633  14.281  0.00  0.00    +0.000 NA
ATOM     20  C   UNL     1      36.123   3.731  14.141  0.00  0.00    +0.000 C 
ATOM     21  O   UNL     1      37.161   3.770  14.827  0.00  0.00    +0.000 OA
BRANCH  19  25
ATOM     22  C   UNL     1      36.023  -0.513  17.008  0.00  0.00    +0.000 A 
ATOM     23  C   UNL     1      35.266   0.536  17.369  0.00  0.00    +0.000 A 
ATOM     24  C   UNL     1      35.010   1.581  16.467  0.00  0.00    +0.000 A 
ATOM     25  C   UNL     1      35.523   1.560  15.190  0.00  0.00    +0.000 A 
ATOM     26  C   UNL     1      36.295   0.480  14.830  0.00  0.00    +0.000 A 
ATOM     27  C   UNL     1      36.546  -0.559  15.742  0.00  0.00    +0.000 A 
BRANCH  22  28
ATOM     28  C   UNL     1      36.328  -1.707  17.997  0.00  0.00    +0.000 C 
ATOM     29  C   UNL     1      36.695  -0.761  19.299  0.00  0.00    +0.000 C 
BRANCH  28  31
ATOM     30  C   UNL     1      38.481  -2.888  18.502  0.00  0.00    +0.000 C 
ATOM     31  C   UNL     1      37.910  -1.853  17.551  0.00  0.00    +0.000 C 
ENDBRANCH  28  31
ENDBRANCH  22  28
ENDBRANCH  19  25
ENDBRANCH   1  20
TORSDOF 6
ENDMDL
MODEL 6
REMARK VINA RESULT:      -7.0     20.325     23.880
REMARK  Name = 
REMARK  6 active torsions:
REMARK  status: ('A' for Active; 'I' for Inactive)
REMARK    1  A    between atoms: C_2  and  C_3
REMARK    2  A    between atoms: C_3  and  C_5
REMARK    3  A    between atoms: C_8  and  N_9
REMARK    4  A    between atoms: C_10  and  C_12
REMARK    5  A    between atoms: C_16  and  C_17
REMARK    6  A    between atoms: C_20  and  O_21
REMARK                            x       y       z     vdW  Elec       q    Type
REMARK                         _______ _______ _______ _____ _____    ______ ____
ROOT
ATOM      1  C   UNL     1      18.755   0.009   2.860  0.00  0.00    +0.000 A 
ATOM      2  S   UNL     1      18.860  -1.688   2.731  0.00  0.00    +0.000 S 
ATOM      3  C   UNL     1      17.735  -2.127   3.944  0.00  0.00    +0.000 A 
ATOM      4  N   UNL     1      17.284  -3.334   4.423  0.00  0.00    +0.000 NA
ATOM      5  C   UNL     1      16.376  -3.431   5.403  0.00  0.00    +0.000 A 
ATOM      6  C   UNL     1      15.930  -2.230   5.896  0.00  0.00    +0.000 A 
ATOM      7  C   UNL     1      16.346  -1.004   5.458  0.00  0.00    +0.000 A 
ATOM      8  C   UNL     1      17.309  -0.925   4.415  0.00  0.00    +0.000 A 
ATOM      9  C   UNL     1      17.844   0.194   3.847  0.00  0.00    +0.000 A 
ATOM     10  N   UNL     1      17.497   1.567   4.234  0.00  0.00    +0.000 NA
ENDROOT
BRANCH   5  11
ATOM     11  C   UNL     1      15.900  -4.716   5.908  0.00  0.00    +0.000 A 
ATOM     12  C   UNL     1      15.083  -5.537   5.157  0.00  0.00    +0.000 A 
ATOM     13  C   UNL     1      14.615  -6.742   5.585  0.00  0.00    +0.000 A 
ATOM     14  C   UNL     1      14.984  -7.161   6.846  0.00  0.00    +0.000 A 
ATOM     15  C   UNL     1      15.800  -6.387   7.647  0.00  0.00    +0.000 A 
ATOM     16  C   UNL     1      16.241  -5.182   7.164  0.00  0.00    +0.000 A 
BRANCH  14  17
ATOM     17  O   UNL     1      14.549  -8.389   7.367  0.00  0.00    +0.000 OA
ATOM     18  C   UNL     1      15.423  -9.507   7.346  0.00  0.00    +0.000 C 
ENDBRANCH  14  17
ENDBRANCH   5  11
BRANCH   1  20
ATOM     19  N   UNL     1      19.382   1.076   0.666  0.00  0.00    +0.000 NA
ATOM     20  C   UNL     1      19.493   0.992   2.068  0.00  0.00    +0.000 C 
ATOM     21  O   UNL     1      20.251   1.782   2.662  0.00  0.00    +0.000 OA
BRANCH  19  25
ATOM     22  C   UNL     1      21.503   3.976  -1.575  0.00  0.00    +0.000 A 
ATOM     23  C   UNL     1      20.374   4.303  -0.925  0.00  0.00    +0.000 A 
ATOM     24  C   UNL     1      19.669   3.343  -0.182  0.00  0.00    +0.000 A 
ATOM     25  C   UNL     1      20.112   2.043  -0.096  0.00  0.00    +0.000 A 
ATOM     26  C   UNL     1      21.270   1.719  -0.765  0.00  0.00    +0.000 A 
ATOM     27  C   UNL     1      21.967   2.687  -1.506  0.00  0.00    +0.000 A 
BRANCH  22  28
ATOM     28  C   UNL     1      22.324   5.032  -2.417  0.00  0.00    +0.000 C 
ATOM     29  C   UNL     1      21.864   4.464  -3.897  0.00  0.00    +0.000 C 
BRANCH  28  31
ATOM     30  C   UNL     1      24.747   5.062  -1.776  0.00  0.00    +0.000 C 
ATOM     31  C   UNL     1      23.719   4.151  -2.419  0.00  0.00    +0.000 C 
ENDBRANCH  28  31
ENDBRANCH  22  28
ENDBRANCH  19  25
ENDBRANCH   1  20
TORSDOF 6
ENDMDL
MODEL 7
REMARK VINA RESULT:      -6.8     19.580     24.199
REMARK  Name = 
REMARK  6 active torsions:
REMARK  status: ('A' for Active; 'I' for Inactive)
REMARK    1  A    between atoms: C_2  and  C_3
REMARK    2  A    between atoms: C_3  and  C_5
REMARK    3  A    between atoms: C_8  and  N_9
REMARK    4  A    between atoms: C_10  and  C_12
REMARK    5  A    between atoms: C_16  and  C_17
REMARK    6  A    between atoms: C_20  and  O_21
REMARK                            x       y       z     vdW  Elec       q    Type
REMARK                         _______ _______ _______ _____ _____    ______ ____
ROOT
ATOM      1  C   UNL     1      18.138   0.506   3.151  0.00  0.00    +0.000 A 
ATOM      2  S   UNL     1      18.310  -0.314   4.636  0.00  0.00    +0.000 S 
ATOM      3  C   UNL     1      16.658  -0.484   5.049  0.00  0.00    +0.000 A 
ATOM      4  N   UNL     1      16.004  -1.048   6.120  0.00  0.00    +0.000 NA
ATOM      5  C   UNL     1      14.669  -1.061   6.228  0.00  0.00    +0.000 A 
ATOM      6  C   UNL     1      14.001  -0.467   5.186  0.00  0.00    +0.000 A 
ATOM      7  C   UNL     1      14.601   0.107   4.101  0.00  0.00    +0.000 A 
ATOM      8  C   UNL     1      16.019   0.109   4.007  0.00  0.00    +0.000 A 
ATOM      9  C   UNL     1      16.795   0.628   3.012  0.00  0.00    +0.000 A 
ATOM     10  N   UNL     1      16.272   1.301   1.816  0.00  0.00    +0.000 NA
ENDROOT
BRANCH   5  11
ATOM     11  C   UNL     1      13.980  -1.661   7.366  0.00  0.00    +0.000 A 
ATOM     12  C   UNL     1      14.225  -2.959   7.767  0.00  0.00    +0.000 A 
ATOM     13  C   UNL     1      13.608  -3.561   8.821  0.00  0.00    +0.000 A 
ATOM     14  C   UNL     1      12.683  -2.821   9.528  0.00  0.00    +0.000 A 
ATOM     15  C   UNL     1      12.392  -1.517   9.180  0.00  0.00    +0.000 A 
ATOM     16  C   UNL     1      13.044  -0.963   8.108  0.00  0.00    +0.000 A 
BRANCH  14  17
ATOM     17  O   UNL     1      12.000  -3.361  10.628  0.00  0.00    +0.000 OA
ATOM     18  C   UNL     1      12.731  -4.019  11.651  0.00  0.00    +0.000 C 
ENDBRANCH  14  17
ENDBRANCH   5  11
BRANCH   1  20
ATOM     19  N   UNL     1      19.227   0.683   0.886  0.00  0.00    +0.000 NA
ATOM     20  C   UNL     1      19.218   0.950   2.269  0.00  0.00    +0.000 C 
ATOM     21  O   UNL     1      20.163   1.589   2.767  0.00  0.00    +0.000 OA
BRANCH  19  25
ATOM     22  C   UNL     1      22.395   1.932  -1.632  0.00  0.00    +0.000 A 
ATOM     23  C   UNL     1      22.279   0.646  -1.262  0.00  0.00    +0.000 A 
ATOM     24  C   UNL     1      21.230   0.230  -0.427  0.00  0.00    +0.000 A 
ATOM     25  C   UNL     1      20.291   1.123   0.035  0.00  0.00    +0.000 A 
ATOM     26  C   UNL     1      20.418   2.438  -0.350  0.00  0.00    +0.000 A 
ATOM     27  C   UNL     1      21.472   2.844  -1.185  0.00  0.00    +0.000 A 
BRANCH  22  28
ATOM     28  C   UNL     1      23.560   2.434  -2.574  0.00  0.00    +0.000 C 
ATOM     29  C   UNL     1      24.705   1.395  -1.996  0.00  0.00    +0.000 C 
BRANCH  28  31
ATOM     30  C   UNL     1      25.294   3.126  -0.901  0.00  0.00    +0.000 C 
ATOM     31  C   UNL     1      24.036   3.651  -1.565  0.00  0.00    +0.000 C 
ENDBRANCH  28  31
ENDBRANCH  22  28
ENDBRANCH  19  25
ENDBRANCH   1  20
TORSDOF 6
ENDMDL
MODEL 8
REMARK VINA RESULT:      -6.8     17.932     22.553
REMARK  Name = 
REMARK  6 active torsions:
REMARK  status: ('A' for Active; 'I' for Inactive)
REMARK    1  A    between atoms: C_2  and  C_3
REMARK    2  A    between atoms: C_3  and  C_5
REMARK    3  A    between atoms: C_8  and  N_9
REMARK    4  A    between atoms: C_10  and  C_12
REMARK    5  A    between atoms: C_16  and  C_17
REMARK    6  A    between atoms: C_20  and  O_21
REMARK                            x       y       z     vdW  Elec       q    Type
REMARK                         _______ _______ _______ _____ _____    ______ ____
ROOT
ATOM      1  C   UNL     1      26.853  18.576  20.304  0.00  0.00    +0.000 A 
ATOM      2  S   UNL     1      27.424  18.998  21.854  0.00  0.00    +0.000 S 
ATOM      3  C   UNL     1      28.990  18.312  21.768  0.00  0.00    +0.000 A 
ATOM      4  N   UNL     1      30.044  18.248  22.648  0.00  0.00    +0.000 NA
ATOM      5  C   UNL     1      31.201  17.643  22.349  0.00  0.00    +0.000 A 
ATOM      6  C   UNL     1      31.254  17.088  21.094  0.00  0.00    +0.000 A 
ATOM      7  C   UNL     1      30.236  17.122  20.183  0.00  0.00    +0.000 A 
ATOM      8  C   UNL     1      29.018  17.771  20.521  0.00  0.00    +0.000 A 
ATOM      9  C   UNL     1      27.898  17.910  19.755  0.00  0.00    +0.000 A 
ATOM     10  N   UNL     1      27.757  17.388  18.389  0.00  0.00    +0.000 NA
ENDROOT
BRANCH   5  11
ATOM     11  C   UNL     1      32.318  17.578  23.287  0.00  0.00    +0.000 A 
ATOM     12  C   UNL     1      32.841  16.375  23.717  0.00  0.00    +0.000 A 
ATOM     13  C   UNL     1      33.881  16.265  24.589  0.00  0.00    +0.000 A 
ATOM     14  C   UNL     1      34.441  17.431  25.068  0.00  0.00    +0.000 A 
ATOM     15  C   UNL     1      33.964  18.667  24.678  0.00  0.00    +0.000 A 
ATOM     16  C   UNL     1      32.915  18.717  23.797  0.00  0.00    +0.000 A 
BRANCH  14  17
ATOM     17  O   UNL     1      35.515  17.412  25.971  0.00  0.00    +0.000 OA
ATOM     18  C   UNL     1      35.503  18.285  27.090  0.00  0.00    +0.000 C 
ENDBRANCH  14  17
ENDBRANCH   5  11
BRANCH   1  20
ATOM     19  N   UNL     1      24.336  18.492  20.369  0.00  0.00    +0.000 NA
ATOM     20  C   UNL     1      25.537  18.885  19.745  0.00  0.00    +0.000 C 
ATOM     21  O   UNL     1      25.483  19.518  18.675  0.00  0.00    +0.000 OA
BRANCH  19  25
ATOM     22  C   UNL     1      20.553  19.459  18.730  0.00  0.00    +0.000 A 
ATOM     23  C   UNL     1      21.294  20.396  19.344  0.00  0.00    +0.000 A 
ATOM     24  C   UNL     1      22.548  20.077  19.889  0.00  0.00    +0.000 A 
ATOM     25  C   UNL     1      23.055  18.800  19.809  0.00  0.00    +0.000 A 
ATOM     26  C   UNL     1      22.288  17.849  19.177  0.00  0.00    +0.000 A 
ATOM     27  C   UNL     1      21.034  18.178  18.637  0.00  0.00    +0.000 A 
BRANCH  22  28
ATOM     28  C   UNL     1      19.139  19.784  18.103  0.00  0.00    +0.000 C 
ATOM     29  C   UNL     1      18.351  18.506  18.790  0.00  0.00    +0.000 C 
BRANCH  28  31
ATOM     30  C   UNL     1      19.711  20.046  15.677  0.00  0.00    +0.000 C 
ATOM     31  C   UNL     1      19.421  18.964  16.699  0.00  0.00    +0.000 C 
ENDBRANCH  28  31
ENDBRANCH  22  28
ENDBRANCH  19  25
ENDBRANCH   1  20
TORSDOF 6
ENDMDL
MODEL 9
REMARK VINA RESULT:      -6.8      6.275      8.981
REMARK  Name = 
REMARK  6 active torsions:
REMARK  status: ('A' for Active; 'I' for Inactive)
REMARK    1  A    between atoms: C_2  and  C_3
REMARK    2  A    between atoms: C_3  and  C_5
REMARK    3  A    between atoms: C_8  and  N_9
REMARK    4  A    between atoms: C_10  and  C_12
REMARK    5  A    between atoms: C_16  and  C_17
REMARK    6  A    between atoms: C_20  and  O_21
REMARK                            x       y       z     vdW  Elec       q    Type
REMARK                         _______ _______ _______ _____ _____    ______ ____
ROOT
ATOM      1  C   UNL     1      35.973   4.341  14.215  0.00  0.00    +0.000 A 
ATOM      2  S   UNL     1      35.349   3.298  15.410  0.00  0.00    +0.000 S 
ATOM      3  C   UNL     1      35.942   1.808  14.812  0.00  0.00    +0.000 A 
ATOM      4  N   UNL     1      35.843   0.507  15.248  0.00  0.00    +0.000 NA
ATOM      5  C   UNL     1      36.407  -0.519  14.597  0.00  0.00    +0.000 A 
ATOM      6  C   UNL     1      37.092  -0.173  13.459  0.00  0.00    +0.000 A 
ATOM      7  C   UNL     1      37.220   1.101  12.982  0.00  0.00    +0.000 A 
ATOM      8  C   UNL     1      36.614   2.175  13.690  0.00  0.00    +0.000 A 
ATOM      9  C   UNL     1      36.630   3.503  13.377  0.00  0.00    +0.000 A 
ATOM     10  N   UNL     1      37.306   4.071  12.203  0.00  0.00    +0.000 NA
ENDROOT
BRANCH   5  11
ATOM     11  C   UNL     1      36.299  -1.898  15.064  0.00  0.00    +0.000 A 
ATOM     12  C   UNL     1      35.708  -2.217  16.270  0.00  0.00    +0.000 A 
ATOM     13  C   UNL     1      35.584  -3.486  16.746  0.00  0.00    +0.000 A 
ATOM     14  C   UNL     1      36.082  -4.512  15.970  0.00  0.00    +0.000 A 
ATOM     15  C   UNL     1      36.684  -4.262  14.753  0.00  0.00    +0.000 A 
ATOM     16  C   UNL     1      36.781  -2.963  14.324  0.00  0.00    +0.000 A 
BRANCH  14  17
ATOM     17  O   UNL     1      35.998  -5.850  16.382  0.00  0.00    +0.000 OA
ATOM     18  C   UNL     1      34.899  -6.644  15.959  0.00  0.00    +0.000 C 
ENDBRANCH  14  17
ENDBRANCH   5  11
BRANCH   1  20
ATOM     19  N   UNL     1      34.592   6.407  13.799  0.00  0.00    +0.000 NA
ATOM     20  C   UNL     1      35.810   5.794  14.154  0.00  0.00    +0.000 C 
ATOM     21  O   UNL     1      36.791   6.511  14.425  0.00  0.00    +0.000 OA
BRANCH  19  25
ATOM     22  C   UNL     1      34.177  10.615  13.574  0.00  0.00    +0.000 A 
ATOM     23  C   UNL     1      34.475   9.897  12.480  0.00  0.00    +0.000 A 
ATOM     24  C   UNL     1      34.613   8.502  12.553  0.00  0.00    +0.000 A 
ATOM     25  C   UNL     1      34.448   7.830  13.742  0.00  0.00    +0.000 A 
ATOM     26  C   UNL     1      34.142   8.576  14.857  0.00  0.00    +0.000 A 
ATOM     27  C   UNL     1      34.006   9.972  14.774  0.00  0.00    +0.000 A 
BRANCH  22  28
ATOM     28  C   UNL     1      34.009  12.186  13.528  0.00  0.00    +0.000 C 
ATOM     29  C   UNL     1      35.559  12.536  13.975  0.00  0.00    +0.000 C 
BRANCH  28  31
ATOM     30  C   UNL     1      33.854  13.701  15.519  0.00  0.00    +0.000 C 
ATOM     31  C   UNL     1      33.446  12.309  15.074  0.00  0.00    +0.000 C 
ENDBRANCH  28  31
ENDBRANCH  22  28
ENDBRANCH  19  25
ENDBRANCH   1  20
TORSDOF 6
ENDMDL
MODEL 10
REMARK VINA RESULT:      -6.8     20.233     22.849
REMARK  Name = 
REMARK  6 active torsions:
REMARK  status: ('A' for Active; 'I' for Inactive)
REMARK    1  A    between atoms: C_2  and  C_3
REMARK    2  A    between atoms: C_3  and  C_5
REMARK    3  A    between atoms: C_8  and  N_9
REMARK    4  A    between atoms: C_10  and  C_12
REMARK    5  A    between atoms: C_16  and  C_17
REMARK    6  A    between atoms: C_20  and  O_21
REMARK                            x       y       z     vdW  Elec       q    Type
REMARK                         _______ _______ _______ _____ _____    ______ ____
ROOT
ATOM      1  C   UNL     1      17.751  -0.473   2.470  0.00  0.00    +0.000 A 
ATOM      2  S   UNL     1      18.449   1.083   2.464  0.00  0.00    +0.000 S 
ATOM      3  C   UNL     1      19.450   0.931   1.084  0.00  0.00    +0.000 A 
ATOM      4  N   UNL     1      20.322   1.784   0.450  0.00  0.00    +0.000 NA
ATOM      5  C   UNL     1      21.012   1.433  -0.644  0.00  0.00    +0.000 A 
ATOM      6  C   UNL     1      20.781   0.153  -1.084  0.00  0.00    +0.000 A 
ATOM      7  C   UNL     1      19.927  -0.734  -0.492  0.00  0.00    +0.000 A 
ATOM      8  C   UNL     1      19.205  -0.339   0.668  0.00  0.00    +0.000 A 
ATOM      9  C   UNL     1      18.315  -1.075   1.394  0.00  0.00    +0.000 A 
ATOM     10  N   UNL     1      17.935  -2.460   1.086  0.00  0.00    +0.000 NA
ENDROOT
BRANCH   5  11
ATOM     11  C   UNL     1      21.937   2.343  -1.314  0.00  0.00    +0.000 A 
ATOM     12  C   UNL     1      23.103   1.896  -1.901  0.00  0.00    +0.000 A 
ATOM     13  C   UNL     1      23.995   2.705  -2.536  0.00  0.00    +0.000 A 
ATOM     14  C   UNL     1      23.708   4.053  -2.592  0.00  0.00    +0.000 A 
ATOM     15  C   UNL     1      22.558   4.565  -2.025  0.00  0.00    +0.000 A 
ATOM     16  C   UNL     1      21.696   3.702  -1.399  0.00  0.00    +0.000 A 
BRANCH  14  17
ATOM     17  O   UNL     1      24.571   4.961  -3.227  0.00  0.00    +0.000 OA
ATOM     18  C   UNL     1      25.920   5.059  -2.797  0.00  0.00    +0.000 C 
ENDBRANCH  14  17
ENDBRANCH   5  11
BRANCH   1  20
ATOM     19  N   UNL     1      17.130  -1.375   4.738  0.00  0.00    +0.000 NA
ATOM     20  C   UNL     1      16.776  -0.988   3.430  0.00  0.00    +0.000 C 
ATOM     21  O   UNL     1      15.588  -1.088   3.072  0.00  0.00    +0.000 OA
BRANCH  19  25
ATOM     22  C   UNL     1      14.299  -2.918   7.483  0.00  0.00    +0.000 A 
ATOM     23  C   UNL     1      15.226  -3.719   6.931  0.00  0.00    +0.000 A 
ATOM     24  C   UNL     1      16.165  -3.209   6.021  0.00  0.00    +0.000 A 
ATOM     25  C   UNL     1      16.165  -1.879   5.668  0.00  0.00    +0.000 A 
ATOM     26  C   UNL     1      15.212  -1.068   6.239  0.00  0.00    +0.000 A 
ATOM     27  C   UNL     1      14.277  -1.588   7.149  0.00  0.00    +0.000 A 
BRANCH  22  28
ATOM     28  C   UNL     1      13.230  -3.458   8.514  0.00  0.00    +0.000 C 
ATOM     29  C   UNL     1      13.119  -2.063   9.390  0.00  0.00    +0.000 C 
BRANCH  28  31
ATOM     30  C   UNL     1      14.307  -3.218  10.765  0.00  0.00    +0.000 C 
ATOM     31  C   UNL     1      14.346  -4.111   9.539  0.00  0.00    +0.000 C 
ENDBRANCH  28  31
ENDBRANCH  22  28
ENDBRANCH  19  25
ENDBRANCH   1  20
TORSDOF 6
ENDMDL
