MODEL 1
REMARK VINA RESULT:      -6.9      0.000      0.000
REMARK  Name = 
REMARK  8 active torsions:
REMARK  status: ('A' for Active; 'I' for Inactive)
REMARK    1  A    between atoms: C_2  and  O_3
REMARK    2  A    between atoms: O_3  and  P_4
REMARK    3  A    between atoms: P_4  and  C_6
REMARK    4  A    between atoms: P_4  and  O_28
REMARK    5  A    between atoms: C_6  and  C_7
REMARK    6  A    between atoms: C_10  and  C_11
REMARK    7  A    between atoms: C_19  and  C_20
REMARK    8  A    between atoms: O_28  and  C_29
REMARK                            x       y       z     vdW  Elec       q    Type
REMARK                         _______ _______ _______ _____ _____    ______ ____
ROOT
ATOM      1  C   UNL     1      35.487   2.933  14.793  0.00  0.00    +0.000 A 
ATOM      2  C   UNL     1      35.143   2.781  16.098  0.00  0.00    +0.000 A 
ATOM      3  C   UNL     1      35.334   1.560  16.674  0.00  0.00    +0.000 A 
ATOM      4  C   UNL     1      35.882   0.506  15.888  0.00  0.00    +0.000 A 
ATOM      5  C   UNL     1      36.179   0.688  14.631  0.00  0.00    +0.000 A 
ATOM      6  C   UNL     1      35.994   1.901  14.036  0.00  0.00    +0.000 A 
ENDROOT
BRANCH   4   7
ATOM      7  C   UNL     1      36.316  -0.604  16.816  0.00  0.00    +0.000 A 
ATOM      8  N   UNL     1      35.920  -0.653  18.155  0.00  0.00    +0.000 NA
ATOM      9  C   UNL     1      36.717  -1.552  18.745  0.00  0.00    +0.000 A 
ATOM     10  C   UNL     1      36.897  -1.957  20.065  0.00  0.00    +0.000 A 
ATOM     11  C   UNL     1      37.921  -2.821  20.428  0.00  0.00    +0.000 A 
ATOM     12  C   UNL     1      38.821  -3.347  19.501  0.00  0.00    +0.000 A 
ATOM     13  C   UNL     1      38.648  -2.972  18.140  0.00  0.00    +0.000 A 
ATOM     14  C   UNL     1      37.623  -2.114  17.878  0.00  0.00    +0.000 A 
ATOM     15  C   UNL     1      37.323  -1.467  16.635  0.00  0.00    +0.000 A 
BRANCH  15  16
ATOM     16  C   UNL     1      37.988  -1.879  15.366  0.00  0.00    +0.000 A 
ATOM     17  C   UNL     1      39.117  -1.218  14.955  0.00  0.00    +0.000 A 
ATOM     18  C   UNL     1      39.707  -1.402  13.723  0.00  0.00    +0.000 A 
ATOM     19  C   UNL     1      39.117  -2.318  12.857  0.00  0.00    +0.000 A 
ATOM     20  C   UNL     1      38.002  -2.983  13.245  0.00  0.00    +0.000 A 
ATOM     21  C   UNL     1      37.387  -2.772  14.544  0.00  0.00    +0.000 A 
ENDBRANCH  15  16
ENDBRANCH   4   7
BRANCH   1  22
ATOM     22  C   UNL     1      35.332   4.361  14.262  0.00  0.00    +0.000 C 
BRANCH  22  23
ATOM     23  P   UNL     1      36.881   5.174  14.349  0.00  0.00    +0.000 P 
ATOM     24  O   UNL     1      36.657   6.591  14.892  0.00  0.00    +0.000 OA
BRANCH  23  25
ATOM     25  O   UNL     1      38.015   4.444  15.409  0.00  0.00    +0.000 OA
BRANCH  25  27
ATOM     26  C   UNL     1      39.388   2.629  14.635  0.00  0.00    +0.000 C 
ATOM     27  C   UNL     1      39.170   4.107  14.611  0.00  0.00    +0.000 C 
ENDBRANCH  25  27
ENDBRANCH  23  25
BRANCH  23  28
ATOM     28  O   UNL     1      37.660   5.295  12.845  0.00  0.00    +0.000 OA
BRANCH  28  29
ATOM     29  C   UNL     1      36.535   4.999  11.941  0.00  0.00    +0.000 C 
ATOM     30  C   UNL     1      37.135   3.980  10.944  0.00  0.00    +0.000 C 
ENDBRANCH  28  29
ENDBRANCH  23  28
ENDBRANCH  22  23
ENDBRANCH   1  22
TORSDOF 8
ENDMDL
MODEL 2
REMARK VINA RESULT:      -6.7      4.085      8.164
REMARK  Name = 
REMARK  8 active torsions:
REMARK  status: ('A' for Active; 'I' for Inactive)
REMARK    1  A    between atoms: C_2  and  O_3
REMARK    2  A    between atoms: O_3  and  P_4
REMARK    3  A    between atoms: P_4  and  C_6
REMARK    4  A    between atoms: P_4  and  O_28
REMARK    5  A    between atoms: C_6  and  C_7
REMARK    6  A    between atoms: C_10  and  C_11
REMARK    7  A    between atoms: C_19  and  C_20
REMARK    8  A    between atoms: O_28  and  C_29
REMARK                            x       y       z     vdW  Elec       q    Type
REMARK                         _______ _______ _______ _____ _____    ______ ____
ROOT
ATOM      1  C   UNL     1      36.302   2.155  15.769  0.00  0.00    +0.000 A 
ATOM      2  C   UNL     1      36.786   2.515  14.553  0.00  0.00    +0.000 A 
ATOM      3  C   UNL     1      37.672   3.550  14.495  0.00  0.00    +0.000 A 
ATOM      4  C   UNL     1      38.048   4.203  15.705  0.00  0.00    +0.000 A 
ATOM      5  C   UNL     1      37.541   3.840  16.851  0.00  0.00    +0.000 A 
ATOM      6  C   UNL     1      36.653   2.808  16.929  0.00  0.00    +0.000 A 
ENDROOT
BRANCH   4   7
ATOM      7  C   UNL     1      39.268   5.049  15.431  0.00  0.00    +0.000 A 
ATOM      8  N   UNL     1      40.028   4.906  14.266  0.00  0.00    +0.000 NA
ATOM      9  C   UNL     1      41.176   5.557  14.490  0.00  0.00    +0.000 A 
ATOM     10  C   UNL     1      42.364   5.681  13.775  0.00  0.00    +0.000 A 
ATOM     11  C   UNL     1      43.477   6.309  14.319  0.00  0.00    +0.000 A 
ATOM     12  C   UNL     1      43.473   6.864  15.598  0.00  0.00    +0.000 A 
ATOM     13  C   UNL     1      42.265   6.776  16.344  0.00  0.00    +0.000 A 
ATOM     14  C   UNL     1      41.228   6.136  15.735  0.00  0.00    +0.000 A 
ATOM     15  C   UNL     1      39.965   5.779  16.310  0.00  0.00    +0.000 A 
BRANCH  15  16
ATOM     16  C   UNL     1      39.534   6.319  17.630  0.00  0.00    +0.000 A 
ATOM     17  C   UNL     1      38.614   7.334  17.672  0.00  0.00    +0.000 A 
ATOM     18  C   UNL     1      38.278   8.019  18.821  0.00  0.00    +0.000 A 
ATOM     19  C   UNL     1      38.913   7.643  20.002  0.00  0.00    +0.000 A 
ATOM     20  C   UNL     1      39.823   6.640  19.982  0.00  0.00    +0.000 A 
ATOM     21  C   UNL     1      40.173   5.935  18.762  0.00  0.00    +0.000 A 
ENDBRANCH  15  16
ENDBRANCH   4   7
BRANCH   1  22
ATOM     22  C   UNL     1      35.395   0.922  15.747  0.00  0.00    +0.000 C 
BRANCH  22  23
ATOM     23  P   UNL     1      36.376  -0.514  15.962  0.00  0.00    +0.000 P 
ATOM     24  O   UNL     1      36.330  -1.334  14.666  0.00  0.00    +0.000 OA
BRANCH  23  25
ATOM     25  O   UNL     1      38.039  -0.207  16.259  0.00  0.00    +0.000 OA
BRANCH  25  27
ATOM     26  C   UNL     1      39.710   0.272  14.598  0.00  0.00    +0.000 C 
ATOM     27  C   UNL     1      38.766  -0.753  15.138  0.00  0.00    +0.000 C 
ENDBRANCH  25  27
ENDBRANCH  23  25
BRANCH  23  28
ATOM     28  O   UNL     1      35.850  -1.501  17.238  0.00  0.00    +0.000 OA
BRANCH  28  29
ATOM     29  C   UNL     1      36.709  -1.006  18.327  0.00  0.00    +0.000 C 
ATOM     30  C   UNL     1      35.743  -0.161  19.191  0.00  0.00    +0.000 C 
ENDBRANCH  28  29
ENDBRANCH  23  28
ENDBRANCH  22  23
ENDBRANCH   1  22
TORSDOF 8
ENDMDL
MODEL 3
REMARK VINA RESULT:      -6.6      4.270      6.773
REMARK  Name = 
REMARK  8 active torsions:
REMARK  status: ('A' for Active; 'I' for Inactive)
REMARK    1  A    between atoms: C_2  and  O_3
REMARK    2  A    between atoms: O_3  and  P_4
REMARK    3  A    between atoms: P_4  and  C_6
REMARK    4  A    between atoms: P_4  and  O_28
REMARK    5  A    between atoms: C_6  and  C_7
REMARK    6  A    between atoms: C_10  and  C_11
REMARK    7  A    between atoms: C_19  and  C_20
REMARK    8  A    between atoms: O_28  and  C_29
REMARK                            x       y       z     vdW  Elec       q    Type
REMARK                         _______ _______ _______ _____ _____    ______ ____
ROOT
ATOM      1  C   UNL     1      41.605  -2.261  13.228  0.00  0.00    +0.000 A 
ATOM      2  C   UNL     1      41.479  -1.218  14.088  0.00  0.00    +0.000 A 
ATOM      3  C   UNL     1      40.241  -0.675  14.261  0.00  0.00    +0.000 A 
ATOM      4  C   UNL     1      39.142  -1.220  13.537  0.00  0.00    +0.000 A 
ATOM      5  C   UNL     1      39.310  -2.209  12.703  0.00  0.00    +0.000 A 
ATOM      6  C   UNL     1      40.541  -2.765  12.515  0.00  0.00    +0.000 A 
ENDROOT
BRANCH   4   7
ATOM      7  C   UNL     1      37.863  -0.700  14.148  0.00  0.00    +0.000 A 
ATOM      8  N   UNL     1      37.286   0.510  13.752  0.00  0.00    +0.000 NA
ATOM      9  C   UNL     1      36.378   0.812  14.688  0.00  0.00    +0.000 A 
ATOM     10  C   UNL     1      35.572   1.923  14.920  0.00  0.00    +0.000 A 
ATOM     11  C   UNL     1      34.811   2.040  16.075  0.00  0.00    +0.000 A 
ATOM     12  C   UNL     1      34.793   1.056  17.063  0.00  0.00    +0.000 A 
ATOM     13  C   UNL     1      35.586  -0.104  16.843  0.00  0.00    +0.000 A 
ATOM     14  C   UNL     1      36.306  -0.129  15.687  0.00  0.00    +0.000 A 
ATOM     15  C   UNL     1      37.290  -1.093  15.292  0.00  0.00    +0.000 A 
BRANCH  15  16
ATOM     16  C   UNL     1      37.459  -2.375  16.033  0.00  0.00    +0.000 A 
ATOM     17  C   UNL     1      38.448  -2.480  16.976  0.00  0.00    +0.000 A 
ATOM     18  C   UNL     1      38.799  -3.663  17.591  0.00  0.00    +0.000 A 
ATOM     19  C   UNL     1      38.098  -4.810  17.228  0.00  0.00    +0.000 A 
ATOM     20  C   UNL     1      37.115  -4.727  16.299  0.00  0.00    +0.000 A 
ATOM     21  C   UNL     1      36.763  -3.474  15.654  0.00  0.00    +0.000 A 
ENDBRANCH  15  16
ENDBRANCH   4   7
BRANCH   1  22
ATOM     22  C   UNL     1      43.009  -2.870  13.177  0.00  0.00    +0.000 C 
BRANCH  22  23
ATOM     23  P   UNL     1      44.031  -1.867  12.167  0.00  0.00    +0.000 P 
ATOM     24  O   UNL     1      45.154  -2.739  11.593  0.00  0.00    +0.000 OA
BRANCH  23  25
ATOM     25  O   UNL     1      43.240  -1.175  10.810  0.00  0.00    +0.000 OA
BRANCH  25  27
ATOM     26  C   UNL     1      41.775   0.726  10.942  0.00  0.00    +0.000 C 
ATOM     27  C   UNL     1      43.187   0.248  11.045  0.00  0.00    +0.000 C 
ENDBRANCH  25  27
ENDBRANCH  23  25
BRANCH  23  28
ATOM     28  O   UNL     1      44.737  -0.571  13.006  0.00  0.00    +0.000 OA
BRANCH  28  29
ATOM     29  C   UNL     1      45.203  -1.264  14.219  0.00  0.00    +0.000 C 
ATOM     30  C   UNL     1      44.826  -0.287  15.358  0.00  0.00    +0.000 C 
ENDBRANCH  28  29
ENDBRANCH  23  28
ENDBRANCH  22  23
ENDBRANCH   1  22
TORSDOF 8
ENDMDL
MODEL 4
REMARK VINA RESULT:      -6.6      3.579      6.822
REMARK  Name = 
REMARK  8 active torsions:
REMARK  status: ('A' for Active; 'I' for Inactive)
REMARK    1  A    between atoms: C_2  and  O_3
REMARK    2  A    between atoms: O_3  and  P_4
REMARK    3  A    between atoms: P_4  and  C_6
REMARK    4  A    between atoms: P_4  and  O_28
REMARK    5  A    between atoms: C_6  and  C_7
REMARK    6  A    between atoms: C_10  and  C_11
REMARK    7  A    between atoms: C_19  and  C_20
REMARK    8  A    between atoms: O_28  and  C_29
REMARK                            x       y       z     vdW  Elec       q    Type
REMARK                         _______ _______ _______ _____ _____    ______ ____
ROOT
ATOM      1  C   UNL     1      37.317  -2.662  15.826  0.00  0.00    +0.000 A 
ATOM      2  C   UNL     1      38.597  -2.847  16.241  0.00  0.00    +0.000 A 
ATOM      3  C   UNL     1      39.579  -2.875  15.296  0.00  0.00    +0.000 A 
ATOM      4  C   UNL     1      39.224  -2.710  13.927  0.00  0.00    +0.000 A 
ATOM      5  C   UNL     1      37.978  -2.556  13.569  0.00  0.00    +0.000 A 
ATOM      6  C   UNL     1      36.981  -2.528  14.498  0.00  0.00    +0.000 A 
ENDROOT
BRANCH   4   7
ATOM      7  C   UNL     1      40.480  -2.429  13.138  0.00  0.00    +0.000 A 
ATOM      8  N   UNL     1      41.386  -3.437  12.795  0.00  0.00    +0.000 NA
ATOM      9  C   UNL     1      42.502  -2.813  12.399  0.00  0.00    +0.000 A 
ATOM     10  C   UNL     1      43.776  -3.254  12.052  0.00  0.00    +0.000 A 
ATOM     11  C   UNL     1      44.815  -2.363  11.818  0.00  0.00    +0.000 A 
ATOM     12  C   UNL     1      44.648  -0.980  11.900  0.00  0.00    +0.000 A 
ATOM     13  C   UNL     1      43.351  -0.498  12.227  0.00  0.00    +0.000 A 
ATOM     14  C   UNL     1      42.396  -1.444  12.449  0.00  0.00    +0.000 A 
ATOM     15  C   UNL     1      41.063  -1.242  12.935  0.00  0.00    +0.000 A 
BRANCH  15  16
ATOM     16  C   UNL     1      40.468   0.122  13.017  0.00  0.00    +0.000 A 
ATOM     17  C   UNL     1      40.334   0.724  14.242  0.00  0.00    +0.000 A 
ATOM     18  C   UNL     1      39.645   1.900  14.448  0.00  0.00    +0.000 A 
ATOM     19  C   UNL     1      39.060   2.505  13.340  0.00  0.00    +0.000 A 
ATOM     20  C   UNL     1      39.183   1.929  12.120  0.00  0.00    +0.000 A 
ATOM     21  C   UNL     1      39.904   0.684  11.920  0.00  0.00    +0.000 A 
ENDBRANCH  15  16
ENDBRANCH   4   7
BRANCH   1  22
ATOM     22  C   UNL     1      36.297  -2.544  16.962  0.00  0.00    +0.000 C 
BRANCH  22  23
ATOM     23  P   UNL     1      36.567  -1.039  17.818  0.00  0.00    +0.000 P 
ATOM     24  O   UNL     1      35.270  -0.650  18.539  0.00  0.00    +0.000 OA
BRANCH  23  25
ATOM     25  O   UNL     1      37.771  -1.114  19.038  0.00  0.00    +0.000 OA
BRANCH  25  27
ATOM     26  C   UNL     1      38.601  -3.247  19.773  0.00  0.00    +0.000 C 
ATOM     27  C   UNL     1      37.470  -2.272  19.845  0.00  0.00    +0.000 C 
ENDBRANCH  25  27
ENDBRANCH  23  25
BRANCH  23  28
ATOM     28  O   UNL     1      37.016   0.241  16.798  0.00  0.00    +0.000 OA
BRANCH  28  29
ATOM     29  C   UNL     1      35.696   0.647  16.286  0.00  0.00    +0.000 C 
ATOM     30  C   UNL     1      35.986   1.041  14.818  0.00  0.00    +0.000 C 
ENDBRANCH  28  29
ENDBRANCH  23  28
ENDBRANCH  22  23
ENDBRANCH   1  22
TORSDOF 8
ENDMDL
MODEL 5
REMARK VINA RESULT:      -6.5     27.748     30.517
REMARK  Name = 
REMARK  8 active torsions:
REMARK  status: ('A' for Active; 'I' for Inactive)
REMARK    1  A    between atoms: C_2  and  O_3
REMARK    2  A    between atoms: O_3  and  P_4
REMARK    3  A    between atoms: P_4  and  C_6
REMARK    4  A    between atoms: P_4  and  O_28
REMARK    5  A    between atoms: C_6  and  C_7
REMARK    6  A    between atoms: C_10  and  C_11
REMARK    7  A    between atoms: C_19  and  C_20
REMARK    8  A    between atoms: O_28  and  C_29
REMARK                            x       y       z     vdW  Elec       q    Type
REMARK                         _______ _______ _______ _____ _____    ______ ____
ROOT
ATOM      1  C   UNL     1      24.791  17.693  39.526  0.00  0.00    +0.000 A 
ATOM      2  C   UNL     1      23.628  17.924  38.864  0.00  0.00    +0.000 A 
ATOM      3  C   UNL     1      23.690  18.566  37.663  0.00  0.00    +0.000 A 
ATOM      4  C   UNL     1      24.962  18.962  37.158  0.00  0.00    +0.000 A 
ATOM      5  C   UNL     1      26.054  18.740  37.836  0.00  0.00    +0.000 A 
ATOM      6  C   UNL     1      26.013  18.101  39.040  0.00  0.00    +0.000 A 
ENDROOT
BRANCH   4   7
ATOM      7  C   UNL     1      24.806  19.320  35.699  0.00  0.00    +0.000 A 
ATOM      8  N   UNL     1      24.102  20.453  35.281  0.00  0.00    +0.000 NA
ATOM      9  C   UNL     1      23.891  20.295  33.969  0.00  0.00    +0.000 A 
ATOM     10  C   UNL     1      23.161  21.007  33.021  0.00  0.00    +0.000 A 
ATOM     11  C   UNL     1      22.984  20.529  31.730  0.00  0.00    +0.000 A 
ATOM     12  C   UNL     1      23.532  19.321  31.297  0.00  0.00    +0.000 A 
ATOM     13  C   UNL     1      24.305  18.582  32.234  0.00  0.00    +0.000 A 
ATOM     14  C   UNL     1      24.418  19.124  33.480  0.00  0.00    +0.000 A 
ATOM     15  C   UNL     1      25.004  18.524  34.642  0.00  0.00    +0.000 A 
BRANCH  15  16
ATOM     16  C   UNL     1      25.817  17.279  34.545  0.00  0.00    +0.000 A 
ATOM     17  C   UNL     1      25.267  16.085  34.935  0.00  0.00    +0.000 A 
ATOM     18  C   UNL     1      25.981  14.912  35.049  0.00  0.00    +0.000 A 
ATOM     19  C   UNL     1      27.338  14.952  34.740  0.00  0.00    +0.000 A 
ATOM     20  C   UNL     1      27.901  16.121  34.349  0.00  0.00    +0.000 A 
ATOM     21  C   UNL     1      27.136  17.352  34.243  0.00  0.00    +0.000 A 
ENDBRANCH  15  16
ENDBRANCH   4   7
BRANCH   1  22
ATOM     22  C   UNL     1      24.633  16.879  40.813  0.00  0.00    +0.000 C 
BRANCH  22  23
ATOM     23  P   UNL     1      24.181  15.237  40.399  0.00  0.00    +0.000 P 
ATOM     24  O   UNL     1      24.651  14.305  41.524  0.00  0.00    +0.000 OA
BRANCH  23  25
ATOM     25  O   UNL     1      22.492  14.974  40.254  0.00  0.00    +0.000 OA
BRANCH  25  27
ATOM     26  C   UNL     1      20.996  14.698  42.115  0.00  0.00    +0.000 C 
ATOM     27  C   UNL     1      21.871  15.652  41.367  0.00  0.00    +0.000 C 
ENDBRANCH  25  27
ENDBRANCH  23  25
BRANCH  23  28
ATOM     28  O   UNL     1      24.863  14.701  38.941  0.00  0.00    +0.000 OA
BRANCH  28  29
ATOM     29  C   UNL     1      26.115  14.106  39.438  0.00  0.00    +0.000 C 
ATOM     30  C   UNL     1      27.212  14.907  38.698  0.00  0.00    +0.000 C 
ENDBRANCH  28  29
ENDBRANCH  23  28
ENDBRANCH  22  23
ENDBRANCH   1  22
TORSDOF 8
ENDMDL
MODEL 6
REMARK VINA RESULT:      -6.5      3.822      7.568
REMARK  Name = 
REMARK  8 active torsions:
REMARK  status: ('A' for Active; 'I' for Inactive)
REMARK    1  A    between atoms: C_2  and  O_3
REMARK    2  A    between atoms: O_3  and  P_4
REMARK    3  A    between atoms: P_4  and  C_6
REMARK    4  A    between atoms: P_4  and  O_28
REMARK    5  A    between atoms: C_6  and  C_7
REMARK    6  A    between atoms: C_10  and  C_11
REMARK    7  A    between atoms: C_19  and  C_20
REMARK    8  A    between atoms: O_28  and  C_29
REMARK                            x       y       z     vdW  Elec       q    Type
REMARK                         _______ _______ _______ _____ _____    ______ ____
ROOT
ATOM      1  C   UNL     1      36.463   0.770  15.464  0.00  0.00    +0.000 A 
ATOM      2  C   UNL     1      37.577   1.296  14.892  0.00  0.00    +0.000 A 
ATOM      3  C   UNL     1      37.987   2.529  15.301  0.00  0.00    +0.000 A 
ATOM      4  C   UNL     1      37.235   3.209  16.303  0.00  0.00    +0.000 A 
ATOM      5  C   UNL     1      36.157   2.677  16.811  0.00  0.00    +0.000 A 
ATOM      6  C   UNL     1      35.729   1.445  16.414  0.00  0.00    +0.000 A 
ENDROOT
BRANCH   4   7
ATOM      7  C   UNL     1      38.063   4.359  16.824  0.00  0.00    +0.000 A 
ATOM      8  N   UNL     1      38.604   4.363  18.113  0.00  0.00    +0.000 NA
ATOM      9  C   UNL     1      38.987   5.624  18.350  0.00  0.00    +0.000 A 
ATOM     10  C   UNL     1      39.480   6.283  19.473  0.00  0.00    +0.000 A 
ATOM     11  C   UNL     1      39.660   7.659  19.487  0.00  0.00    +0.000 A 
ATOM     12  C   UNL     1      39.376   8.463  18.383  0.00  0.00    +0.000 A 
ATOM     13  C   UNL     1      38.895   7.817  17.212  0.00  0.00    +0.000 A 
ATOM     14  C   UNL     1      38.741   6.465  17.291  0.00  0.00    +0.000 A 
ATOM     15  C   UNL     1      38.140   5.597  16.323  0.00  0.00    +0.000 A 
BRANCH  15  16
ATOM     16  C   UNL     1      37.828   6.072  14.945  0.00  0.00    +0.000 A 
ATOM     17  C   UNL     1      36.544   6.441  14.636  0.00  0.00    +0.000 A 
ATOM     18  C   UNL     1      36.114   6.728  13.358  0.00  0.00    +0.000 A 
ATOM     19  C   UNL     1      37.049   6.639  12.330  0.00  0.00    +0.000 A 
ATOM     20  C   UNL     1      38.323   6.279  12.614  0.00  0.00    +0.000 A 
ATOM     21  C   UNL     1      38.759   5.971  13.965  0.00  0.00    +0.000 A 
ENDBRANCH  15  16
ENDBRANCH   4   7
BRANCH   1  22
ATOM     22  C   UNL     1      36.138  -0.658  15.017  0.00  0.00    +0.000 C 
BRANCH  22  23
ATOM     23  P   UNL     1      36.837  -1.788  16.159  0.00  0.00    +0.000 P 
ATOM     24  O   UNL     1      37.035  -3.135  15.452  0.00  0.00    +0.000 OA
BRANCH  23  25
ATOM     25  O   UNL     1      38.385  -1.343  16.751  0.00  0.00    +0.000 OA
BRANCH  25  27
ATOM     26  C   UNL     1      40.087  -1.365  15.055  0.00  0.00    +0.000 C 
ATOM     27  C   UNL     1      39.344  -2.176  16.066  0.00  0.00    +0.000 C 
ENDBRANCH  25  27
ENDBRANCH  23  25
BRANCH  23  28
ATOM     28  O   UNL     1      35.868  -2.040  17.529  0.00  0.00    +0.000 OA
BRANCH  28  29
ATOM     29  C   UNL     1      36.738  -1.474  18.575  0.00  0.00    +0.000 C 
ATOM     30  C   UNL     1      35.846  -0.399  19.240  0.00  0.00    +0.000 C 
ENDBRANCH  28  29
ENDBRANCH  23  28
ENDBRANCH  22  23
ENDBRANCH   1  22
TORSDOF 8
ENDMDL
MODEL 7
REMARK VINA RESULT:      -6.5      0.930      2.169
REMARK  Name = 
REMARK  8 active torsions:
REMARK  status: ('A' for Active; 'I' for Inactive)
REMARK    1  A    between atoms: C_2  and  O_3
REMARK    2  A    between atoms: O_3  and  P_4
REMARK    3  A    between atoms: P_4  and  C_6
REMARK    4  A    between atoms: P_4  and  O_28
REMARK    5  A    between atoms: C_6  and  C_7
REMARK    6  A    between atoms: C_10  and  C_11
REMARK    7  A    between atoms: C_19  and  C_20
REMARK    8  A    between atoms: O_28  and  C_29
REMARK                            x       y       z     vdW  Elec       q    Type
REMARK                         _______ _______ _______ _____ _____    ______ ____
ROOT
ATOM      1  C   UNL     1      35.795   2.810  14.960  0.00  0.00    +0.000 A 
ATOM      2  C   UNL     1      35.734   2.773  16.316  0.00  0.00    +0.000 A 
ATOM      3  C   UNL     1      35.838   1.561  16.930  0.00  0.00    +0.000 A 
ATOM      4  C   UNL     1      36.006   0.395  16.128  0.00  0.00    +0.000 A 
ATOM      5  C   UNL     1      36.037   0.472  14.826  0.00  0.00    +0.000 A 
ATOM      6  C   UNL     1      35.933   1.675  14.193  0.00  0.00    +0.000 A 
ENDROOT
BRANCH   4   7
ATOM      7  C   UNL     1      36.441  -0.741  17.023  0.00  0.00    +0.000 A 
ATOM      8  N   UNL     1      36.104  -0.792  18.379  0.00  0.00    +0.000 NA
ATOM      9  C   UNL     1      36.895  -1.726  18.923  0.00  0.00    +0.000 A 
ATOM     10  C   UNL     1      37.119  -2.152  20.228  0.00  0.00    +0.000 A 
ATOM     11  C   UNL     1      38.127  -3.057  20.535  0.00  0.00    +0.000 A 
ATOM     12  C   UNL     1      38.964  -3.603  19.562  0.00  0.00    +0.000 A 
ATOM     13  C   UNL     1      38.744  -3.207  18.214  0.00  0.00    +0.000 A 
ATOM     14  C   UNL     1      37.739  -2.309  18.009  0.00  0.00    +0.000 A 
ATOM     15  C   UNL     1      37.406  -1.637  16.788  0.00  0.00    +0.000 A 
BRANCH  15  16
ATOM     16  C   UNL     1      37.998  -2.057  15.486  0.00  0.00    +0.000 A 
ATOM     17  C   UNL     1      39.111  -1.411  15.014  0.00  0.00    +0.000 A 
ATOM     18  C   UNL     1      39.632  -1.601  13.752  0.00  0.00    +0.000 A 
ATOM     19  C   UNL     1      38.985  -2.511  12.920  0.00  0.00    +0.000 A 
ATOM     20  C   UNL     1      37.885  -3.163  13.368  0.00  0.00    +0.000 A 
ATOM     21  C   UNL     1      37.342  -2.944  14.697  0.00  0.00    +0.000 A 
ENDBRANCH  15  16
ENDBRANCH   4   7
BRANCH   1  22
ATOM     22  C   UNL     1      35.772   4.222  14.366  0.00  0.00    +0.000 C 
BRANCH  22  23
ATOM     23  P   UNL     1      37.392   4.887  14.408  0.00  0.00    +0.000 P 
ATOM     24  O   UNL     1      38.393   3.743  14.205  0.00  0.00    +0.000 OA
BRANCH  23  25
ATOM     25  O   UNL     1      37.731   6.027  13.172  0.00  0.00    +0.000 OA
BRANCH  25  27
ATOM     26  C   UNL     1      36.986   5.121  11.073  0.00  0.00    +0.000 C 
ATOM     27  C   UNL     1      38.139   5.270  12.013  0.00  0.00    +0.000 C 
ENDBRANCH  25  27
ENDBRANCH  23  25
BRANCH  23  28
ATOM     28  O   UNL     1      37.759   5.664  15.872  0.00  0.00    +0.000 OA
BRANCH  28  29
ATOM     29  C   UNL     1      38.868   4.820  16.348  0.00  0.00    +0.000 C 
ATOM     30  C   UNL     1      38.658   4.782  17.880  0.00  0.00    +0.000 C 
ENDBRANCH  28  29
ENDBRANCH  23  28
ENDBRANCH  22  23
ENDBRANCH   1  22
TORSDOF 8
ENDMDL
MODEL 8
REMARK VINA RESULT:      -6.4      3.864      8.193
REMARK  Name = 
REMARK  8 active torsions:
REMARK  status: ('A' for Active; 'I' for Inactive)
REMARK    1  A    between atoms: C_2  and  O_3
REMARK    2  A    between atoms: O_3  and  P_4
REMARK    3  A    between atoms: P_4  and  C_6
REMARK    4  A    between atoms: P_4  and  O_28
REMARK    5  A    between atoms: C_6  and  C_7
REMARK    6  A    between atoms: C_10  and  C_11
REMARK    7  A    between atoms: C_19  and  C_20
REMARK    8  A    between atoms: O_28  and  C_29
REMARK                            x       y       z     vdW  Elec       q    Type
REMARK                         _______ _______ _______ _____ _____    ______ ____
ROOT
ATOM      1  C   UNL     1      37.884   0.302  14.868  0.00  0.00    +0.000 A 
ATOM      2  C   UNL     1      36.674   0.773  15.265  0.00  0.00    +0.000 A 
ATOM      3  C   UNL     1      36.537   2.117  15.447  0.00  0.00    +0.000 A 
ATOM      4  C   UNL     1      37.660   2.962  15.214  0.00  0.00    +0.000 A 
ATOM      5  C   UNL     1      38.812   2.466  14.855  0.00  0.00    +0.000 A 
ATOM      6  C   UNL     1      38.970   1.124  14.669  0.00  0.00    +0.000 A 
ENDROOT
BRANCH   4   7
ATOM      7  C   UNL     1      37.175   4.390  15.138  0.00  0.00    +0.000 A 
ATOM      8  N   UNL     1      36.147   4.783  14.277  0.00  0.00    +0.000 NA
ATOM      9  C   UNL     1      36.193   6.120  14.229  0.00  0.00    +0.000 A 
ATOM     10  C   UNL     1      35.521   7.078  13.475  0.00  0.00    +0.000 A 
ATOM     11  C   UNL     1      35.876   8.419  13.520  0.00  0.00    +0.000 A 
ATOM     12  C   UNL     1      36.910   8.893  14.328  0.00  0.00    +0.000 A 
ATOM     13  C   UNL     1      37.599   7.943  15.130  0.00  0.00    +0.000 A 
ATOM     14  C   UNL     1      37.189   6.649  15.015  0.00  0.00    +0.000 A 
ATOM     15  C   UNL     1      37.800   5.485  15.586  0.00  0.00    +0.000 A 
BRANCH  15  16
ATOM     16  C   UNL     1      38.861   5.599  16.627  0.00  0.00    +0.000 A 
ATOM     17  C   UNL     1      38.511   5.553  17.951  0.00  0.00    +0.000 A 
ATOM     18  C   UNL     1      39.383   5.820  18.985  0.00  0.00    +0.000 A 
ATOM     19  C   UNL     1      40.694   6.149  18.653  0.00  0.00    +0.000 A 
ATOM     20  C   UNL     1      41.061   6.196  17.350  0.00  0.00    +0.000 A 
ATOM     21  C   UNL     1      40.128   5.922  16.271  0.00  0.00    +0.000 A 
ENDBRANCH  15  16
ENDBRANCH   4   7
BRANCH   1  22
ATOM     22  C   UNL     1      37.915  -1.204  14.592  0.00  0.00    +0.000 C 
BRANCH  22  23
ATOM     23  P   UNL     1      37.673  -2.067  16.097  0.00  0.00    +0.000 P 
ATOM     24  O   UNL     1      38.645  -3.254  16.139  0.00  0.00    +0.000 OA
BRANCH  23  25
ATOM     25  O   UNL     1      38.001  -1.149  17.510  0.00  0.00    +0.000 OA
BRANCH  25  27
ATOM     26  C   UNL     1      36.331  -0.083  18.870  0.00  0.00    +0.000 C 
ATOM     27  C   UNL     1      36.906  -1.387  18.419  0.00  0.00    +0.000 C 
ENDBRANCH  25  27
ENDBRANCH  23  25
BRANCH  23  28
ATOM     28  O   UNL     1      36.095  -2.661  16.284  0.00  0.00    +0.000 OA
BRANCH  28  29
ATOM     29  C   UNL     1      35.804  -3.078  14.901  0.00  0.00    +0.000 C 
ATOM     30  C   UNL     1      35.355  -4.550  15.057  0.00  0.00    +0.000 C 
ENDBRANCH  28  29
ENDBRANCH  23  28
ENDBRANCH  22  23
ENDBRANCH   1  22
TORSDOF 8
ENDMDL
MODEL 9
REMARK VINA RESULT:      -6.4      3.566      5.164
REMARK  Name = 
REMARK  8 active torsions:
REMARK  status: ('A' for Active; 'I' for Inactive)
REMARK    1  A    between atoms: C_2  and  O_3
REMARK    2  A    between atoms: O_3  and  P_4
REMARK    3  A    between atoms: P_4  and  C_6
REMARK    4  A    between atoms: P_4  and  O_28
REMARK    5  A    between atoms: C_6  and  C_7
REMARK    6  A    between atoms: C_10  and  C_11
REMARK    7  A    between atoms: C_19  and  C_20
REMARK    8  A    between atoms: O_28  and  C_29
REMARK                            x       y       z     vdW  Elec       q    Type
REMARK                         _______ _______ _______ _____ _____    ______ ____
ROOT
ATOM      1  C   UNL     1      38.682   5.601  16.741  0.00  0.00    +0.000 A 
ATOM      2  C   UNL     1      38.553   4.630  17.682  0.00  0.00    +0.000 A 
ATOM      3  C   UNL     1      37.669   3.620  17.444  0.00  0.00    +0.000 A 
ATOM      4  C   UNL     1      36.926   3.626  16.229  0.00  0.00    +0.000 A 
ATOM      5  C   UNL     1      37.064   4.591  15.360  0.00  0.00    +0.000 A 
ATOM      6  C   UNL     1      37.942   5.611  15.581  0.00  0.00    +0.000 A 
ENDROOT
BRANCH   4   7
ATOM      7  C   UNL     1      36.302   2.264  16.044  0.00  0.00    +0.000 A 
ATOM      8  N   UNL     1      35.273   1.797  16.867  0.00  0.00    +0.000 NA
ATOM      9  C   UNL     1      35.184   0.481  16.641  0.00  0.00    +0.000 A 
ATOM     10  C   UNL     1      34.449  -0.546  17.225  0.00  0.00    +0.000 A 
ATOM     11  C   UNL     1      34.663  -1.876  16.890  0.00  0.00    +0.000 A 
ATOM     12  C   UNL     1      35.612  -2.266  15.944  0.00  0.00    +0.000 A 
ATOM     13  C   UNL     1      36.362  -1.237  15.310  0.00  0.00    +0.000 A 
ATOM     14  C   UNL     1      36.090   0.037  15.708  0.00  0.00    +0.000 A 
ATOM     15  C   UNL     1      36.794   1.232  15.348  0.00  0.00    +0.000 A 
BRANCH  15  16
ATOM     16  C   UNL     1      37.797   1.239  14.245  0.00  0.00    +0.000 A 
ATOM     17  C   UNL     1      39.132   1.199  14.552  0.00  0.00    +0.000 A 
ATOM     18  C   UNL     1      40.138   1.373  13.625  0.00  0.00    +0.000 A 
ATOM     19  C   UNL     1      39.763   1.596  12.303  0.00  0.00    +0.000 A 
ATOM     20  C   UNL     1      38.448   1.636  11.979  0.00  0.00    +0.000 A 
ATOM     21  C   UNL     1      37.400   1.459  12.969  0.00  0.00    +0.000 A 
ENDBRANCH  15  16
ENDBRANCH   4   7
BRANCH   1  22
ATOM     22  C   UNL     1      39.769   6.635  17.047  0.00  0.00    +0.000 C 
BRANCH  22  23
ATOM     23  P   UNL     1      39.325   7.520  18.493  0.00  0.00    +0.000 P 
ATOM     24  O   UNL     1      39.769   8.979  18.326  0.00  0.00    +0.000 OA
BRANCH  23  25
ATOM     25  O   UNL     1      37.639   7.580  18.807  0.00  0.00    +0.000 OA
BRANCH  25  27
ATOM     26  C   UNL     1      36.271   9.457  18.189  0.00  0.00    +0.000 C 
ATOM     27  C   UNL     1      37.327   8.954  19.119  0.00  0.00    +0.000 C 
ENDBRANCH  25  27
ENDBRANCH  23  25
BRANCH  23  28
ATOM     28  O   UNL     1      40.040   6.901  19.903  0.00  0.00    +0.000 OA
BRANCH  28  29
ATOM     29  C   UNL     1      41.358   6.505  19.379  0.00  0.00    +0.000 C 
ATOM     30  C   UNL     1      42.182   6.223  20.657  0.00  0.00    +0.000 C 
ENDBRANCH  28  29
ENDBRANCH  23  28
ENDBRANCH  22  23
ENDBRANCH   1  22
TORSDOF 8
ENDMDL
MODEL 10
REMARK VINA RESULT:      -6.3      3.800      8.121
REMARK  Name = 
REMARK  8 active torsions:
REMARK  status: ('A' for Active; 'I' for Inactive)
REMARK    1  A    between atoms: C_2  and  O_3
REMARK    2  A    between atoms: O_3  and  P_4
REMARK    3  A    between atoms: P_4  and  C_6
REMARK    4  A    between atoms: P_4  and  O_28
REMARK    5  A    between atoms: C_6  and  C_7
REMARK    6  A    between atoms: C_10  and  C_11
REMARK    7  A    between atoms: C_19  and  C_20
REMARK    8  A    between atoms: O_28  and  C_29
REMARK                            x       y       z     vdW  Elec       q    Type
REMARK                         _______ _______ _______ _____ _____    ______ ____
ROOT
ATOM      1  C   UNL     1      37.994   0.162  14.643  0.00  0.00    +0.000 A 
ATOM      2  C   UNL     1      36.744   0.564  14.991  0.00  0.00    +0.000 A 
ATOM      3  C   UNL     1      36.537   1.892  15.218  0.00  0.00    +0.000 A 
ATOM      4  C   UNL     1      37.632   2.793  15.081  0.00  0.00    +0.000 A 
ATOM      5  C   UNL     1      38.823   2.362  14.766  0.00  0.00    +0.000 A 
ATOM      6  C   UNL     1      39.050   1.038  14.537  0.00  0.00    +0.000 A 
ENDROOT
BRANCH   4   7
ATOM      7  C   UNL     1      37.088   4.201  15.035  0.00  0.00    +0.000 A 
ATOM      8  N   UNL     1      36.015   4.559  14.214  0.00  0.00    +0.000 NA
ATOM      9  C   UNL     1      36.006   5.897  14.178  0.00  0.00    +0.000 A 
ATOM     10  C   UNL     1      35.270   6.833  13.456  0.00  0.00    +0.000 A 
ATOM     11  C   UNL     1      35.573   8.187  13.501  0.00  0.00    +0.000 A 
ATOM     12  C   UNL     1      36.615   8.696  14.276  0.00  0.00    +0.000 A 
ATOM     13  C   UNL     1      37.369   7.768  15.046  0.00  0.00    +0.000 A 
ATOM     14  C   UNL     1      37.007   6.459  14.933  0.00  0.00    +0.000 A 
ATOM     15  C   UNL     1      37.684   5.317  15.472  0.00  0.00    +0.000 A 
BRANCH  15  16
ATOM     16  C   UNL     1      38.776   5.466  16.475  0.00  0.00    +0.000 A 
ATOM     17  C   UNL     1      38.479   5.371  17.810  0.00  0.00    +0.000 A 
ATOM     18  C   UNL     1      39.373   5.662  18.818  0.00  0.00    +0.000 A 
ATOM     19  C   UNL     1      40.651   6.069  18.446  0.00  0.00    +0.000 A 
ATOM     20  C   UNL     1      40.966   6.166  17.132  0.00  0.00    +0.000 A 
ATOM     21  C   UNL     1      40.010   5.865  16.081  0.00  0.00    +0.000 A 
ENDBRANCH  15  16
ENDBRANCH   4   7
BRANCH   1  22
ATOM     22  C   UNL     1      38.107  -1.328  14.309  0.00  0.00    +0.000 C 
BRANCH  22  23
ATOM     23  P   UNL     1      38.571  -2.204  15.753  0.00  0.00    +0.000 P 
ATOM     24  O   UNL     1      37.552  -3.326  15.991  0.00  0.00    +0.000 OA
BRANCH  23  25
ATOM     25  O   UNL     1      40.100  -2.978  15.662  0.00  0.00    +0.000 OA
BRANCH  25  27
ATOM     26  C   UNL     1      41.379  -2.955  13.627  0.00  0.00    +0.000 C 
ATOM     27  C   UNL     1      40.927  -2.159  14.807  0.00  0.00    +0.000 C 
ENDBRANCH  25  27
ENDBRANCH  23  25
BRANCH  23  28
ATOM     28  O   UNL     1      38.625  -1.229  17.141  0.00  0.00    +0.000 OA
BRANCH  28  29
ATOM     29  C   UNL     1      37.662  -1.938  18.000  0.00  0.00    +0.000 C 
ATOM     30  C   UNL     1      36.696  -0.819  18.456  0.00  0.00    +0.000 C 
ENDBRANCH  28  29
ENDBRANCH  23  28
ENDBRANCH  22  23
ENDBRANCH   1  22
TORSDOF 8
ENDMDL
