MODEL 1
REMARK VINA RESULT:      -7.4      0.000      0.000
REMARK  Name = 
REMARK  3 active torsions:
REMARK  status: ('A' for Active; 'I' for Inactive)
REMARK    1  A    between atoms: C_2  and  C_3
REMARK    2  A    between atoms: C_10  and  S_11
REMARK    3  A    between atoms: S_11  and  C_12
REMARK                            x       y       z     vdW  Elec       q    Type
REMARK                         _______ _______ _______ _____ _____    ______ ____
ROOT
ATOM      1  C   UNL     1      14.616  12.549  31.837  0.00  0.00    +0.000 A 
ATOM      2  C   UNL     1      15.343  11.677  31.054  0.00  0.00    +0.000 A 
ATOM      3  C   UNL     1      16.220  10.767  31.594  0.00  0.00    +0.000 A 
ATOM      4  C   UNL     1      16.379  10.725  32.975  0.00  0.00    +0.000 A 
ATOM      5  N   UNL     1      17.145   9.962  33.777  0.00  0.00    +0.000 NA
ATOM      6  C   UNL     1      16.952  10.296  35.073  0.00  0.00    +0.000 A 
ATOM      7  N   UNL     1      17.468   9.844  36.249  0.00  0.00    +0.000 NA
ATOM      8  C   UNL     1      17.072  10.391  37.411  0.00  0.00    +0.000 A 
ATOM      9  N   UNL     1      16.156  11.389  37.351  0.00  0.00    +0.000 NA
ATOM     10  N   UNL     1      15.640  11.844  36.227  0.00  0.00    +0.000 NA
ATOM     11  C   UNL     1      16.018  11.316  35.046  0.00  0.00    +0.000 A 
ATOM     12  C   UNL     1      15.650  11.596  33.743  0.00  0.00    +0.000 A 
ATOM     13  C   UNL     1      14.764  12.517  33.206  0.00  0.00    +0.000 A 
ENDROOT
BRANCH   1  15
ATOM     14  C   UNL     1      13.603  14.777  32.077  0.00  0.00    +0.000 C 
ATOM     15  C   UNL     1      13.672  13.537  31.256  0.00  0.00    +0.000 C 
ENDBRANCH   1  15
BRANCH   8  16
ATOM     16  S   UNL     1      17.712   9.845  38.994  0.00  0.00    +0.000 S 
BRANCH  16  17
ATOM     17  C   UNL     1      19.414  10.421  39.120  0.00  0.00    +0.000 C 
ATOM     18  C   UNL     1      19.955  10.342  40.529  0.00  0.00    +0.000 C 
ATOM     19  C   UNL     1      19.598  11.802  38.530  0.00  0.00    +0.000 C 
ENDBRANCH  16  17
ENDBRANCH   8  16
TORSDOF 3
ENDMDL
MODEL 2
REMARK VINA RESULT:      -7.1      1.667      1.919
REMARK  Name = 
REMARK  3 active torsions:
REMARK  status: ('A' for Active; 'I' for Inactive)
REMARK    1  A    between atoms: C_2  and  C_3
REMARK    2  A    between atoms: C_10  and  S_11
REMARK    3  A    between atoms: S_11  and  C_12
REMARK                            x       y       z     vdW  Elec       q    Type
REMARK                         _______ _______ _______ _____ _____    ______ ____
ROOT
ATOM      1  C   UNL     1      14.692  12.730  32.807  0.00  0.00    +0.000 A 
ATOM      2  C   UNL     1      15.358  11.953  31.882  0.00  0.00    +0.000 A 
ATOM      3  C   UNL     1      16.260  10.985  32.255  0.00  0.00    +0.000 A 
ATOM      4  C   UNL     1      16.510  10.784  33.608  0.00  0.00    +0.000 A 
ATOM      5  N   UNL     1      17.321   9.933  34.264  0.00  0.00    +0.000 NA
ATOM      6  C   UNL     1      17.217  10.116  35.599  0.00  0.00    +0.000 A 
ATOM      7  N   UNL     1      17.805   9.531  36.679  0.00  0.00    +0.000 NA
ATOM      8  C   UNL     1      17.493   9.940  37.920  0.00  0.00    +0.000 A 
ATOM      9  N   UNL     1      16.584  10.940  38.037  0.00  0.00    +0.000 NA
ATOM     10  N   UNL     1      15.998  11.522  37.009  0.00  0.00    +0.000 NA
ATOM     11  C   UNL     1      16.292  11.134  35.753  0.00  0.00    +0.000 A 
ATOM     12  C   UNL     1      15.842  11.562  34.518  0.00  0.00    +0.000 A 
ATOM     13  C   UNL     1      14.929  12.540  34.151  0.00  0.00    +0.000 A 
ENDROOT
BRANCH   1  15
ATOM     14  C   UNL     1      13.351  14.649  33.559  0.00  0.00    +0.000 C 
ATOM     15  C   UNL     1      13.720  13.779  32.409  0.00  0.00    +0.000 C 
ENDBRANCH   1  15
BRANCH   8  16
ATOM     16  S   UNL     1      18.231   9.215  39.384  0.00  0.00    +0.000 S 
BRANCH  16  17
ATOM     17  C   UNL     1      16.890   8.630  40.435  0.00  0.00    +0.000 C 
ATOM     18  C   UNL     1      16.522   9.618  41.517  0.00  0.00    +0.000 C 
ATOM     19  C   UNL     1      17.165   7.256  41.006  0.00  0.00    +0.000 C 
ENDBRANCH  16  17
ENDBRANCH   8  16
TORSDOF 3
ENDMDL
MODEL 3
REMARK VINA RESULT:      -6.2     20.665     22.634
REMARK  Name = 
REMARK  3 active torsions:
REMARK  status: ('A' for Active; 'I' for Inactive)
REMARK    1  A    between atoms: C_2  and  C_3
REMARK    2  A    between atoms: C_10  and  S_11
REMARK    3  A    between atoms: S_11  and  C_12
REMARK                            x       y       z     vdW  Elec       q    Type
REMARK                         _______ _______ _______ _____ _____    ______ ____
ROOT
ATOM      1  C   UNL     1      18.098  -8.369  27.574  0.00  0.00    +0.000 A 
ATOM      2  C   UNL     1      17.544  -7.144  27.268  0.00  0.00    +0.000 A 
ATOM      3  C   UNL     1      18.201  -6.218  26.493  0.00  0.00    +0.000 A 
ATOM      4  C   UNL     1      19.465  -6.527  26.003  0.00  0.00    +0.000 A 
ATOM      5  N   UNL     1      20.335  -5.841  25.237  0.00  0.00    +0.000 NA
ATOM      6  C   UNL     1      21.452  -6.570  25.021  0.00  0.00    +0.000 A 
ATOM      7  N   UNL     1      22.605  -6.346  24.333  0.00  0.00    +0.000 NA
ATOM      8  C   UNL     1      23.564  -7.287  24.300  0.00  0.00    +0.000 A 
ATOM      9  N   UNL     1      23.328  -8.441  24.972  0.00  0.00    +0.000 NA
ATOM     10  N   UNL     1      22.220  -8.685  25.644  0.00  0.00    +0.000 NA
ATOM     11  C   UNL     1      21.242  -7.761  25.695  0.00  0.00    +0.000 A 
ATOM     12  C   UNL     1      20.005  -7.748  26.314  0.00  0.00    +0.000 A 
ATOM     13  C   UNL     1      19.350  -8.688  27.094  0.00  0.00    +0.000 A 
ENDROOT
BRANCH   1  15
ATOM     14  C   UNL     1      18.112  -9.614  29.696  0.00  0.00    +0.000 C 
ATOM     15  C   UNL     1      17.393  -9.370  28.415  0.00  0.00    +0.000 C 
ENDBRANCH   1  15
BRANCH   8  16
ATOM     16  S   UNL     1      25.105  -7.055  23.415  0.00  0.00    +0.000 S 
BRANCH  16  17
ATOM     17  C   UNL     1      25.607  -8.660  22.769  0.00  0.00    +0.000 C 
ATOM     18  C   UNL     1      27.061  -8.698  22.361  0.00  0.00    +0.000 C 
ATOM     19  C   UNL     1      24.703  -9.137  21.653  0.00  0.00    +0.000 C 
ENDBRANCH  16  17
ENDBRANCH   8  16
TORSDOF 3
ENDMDL
MODEL 4
REMARK VINA RESULT:      -6.0     20.216     22.333
REMARK  Name = 
REMARK  3 active torsions:
REMARK  status: ('A' for Active; 'I' for Inactive)
REMARK    1  A    between atoms: C_2  and  C_3
REMARK    2  A    between atoms: C_10  and  S_11
REMARK    3  A    between atoms: S_11  and  C_12
REMARK                            x       y       z     vdW  Elec       q    Type
REMARK                         _______ _______ _______ _____ _____    ______ ____
ROOT
ATOM      1  C   UNL     1      21.160  -7.318  25.193  0.00  0.00    +0.000 A 
ATOM      2  C   UNL     1      20.868  -6.026  25.575  0.00  0.00    +0.000 A 
ATOM      3  C   UNL     1      19.613  -5.654  25.996  0.00  0.00    +0.000 A 
ATOM      4  C   UNL     1      18.606  -6.613  26.037  0.00  0.00    +0.000 A 
ATOM      5  N   UNL     1      17.309  -6.552  26.394  0.00  0.00    +0.000 NA
ATOM      6  C   UNL     1      16.726  -7.764  26.264  0.00  0.00    +0.000 A 
ATOM      7  N   UNL     1      15.467  -8.233  26.486  0.00  0.00    +0.000 NA
ATOM      8  C   UNL     1      15.179  -9.525  26.256  0.00  0.00    +0.000 A 
ATOM      9  N   UNL     1      16.183 -10.317  25.804  0.00  0.00    +0.000 NA
ATOM     10  N   UNL     1      17.410  -9.890  25.582  0.00  0.00    +0.000 NA
ATOM     11  C   UNL     1      17.729  -8.599  25.802  0.00  0.00    +0.000 A 
ATOM     12  C   UNL     1      18.909  -7.894  25.655  0.00  0.00    +0.000 A 
ATOM     13  C   UNL     1      20.171  -8.278  25.230  0.00  0.00    +0.000 A 
ENDROOT
BRANCH   1  15
ATOM     14  C   UNL     1      23.365  -6.539  24.433  0.00  0.00    +0.000 C 
ATOM     15  C   UNL     1      22.513  -7.723  24.734  0.00  0.00    +0.000 C 
ENDBRANCH   1  15
BRANCH   8  16
ATOM     16  S   UNL     1      13.543 -10.206  26.526  0.00  0.00    +0.000 S 
BRANCH  16  17
ATOM     17  C   UNL     1      12.373  -8.837  26.495  0.00  0.00    +0.000 C 
ATOM     18  C   UNL     1      11.088  -9.149  27.225  0.00  0.00    +0.000 C 
ATOM     19  C   UNL     1      12.109  -8.338  25.091  0.00  0.00    +0.000 C 
ENDBRANCH  16  17
ENDBRANCH   8  16
TORSDOF 3
ENDMDL
MODEL 5
REMARK VINA RESULT:      -5.9     28.531     30.745
REMARK  Name = 
REMARK  3 active torsions:
REMARK  status: ('A' for Active; 'I' for Inactive)
REMARK    1  A    between atoms: C_2  and  C_3
REMARK    2  A    between atoms: C_10  and  S_11
REMARK    3  A    between atoms: S_11  and  C_12
REMARK                            x       y       z     vdW  Elec       q    Type
REMARK                         _______ _______ _______ _____ _____    ______ ____
ROOT
ATOM      1  C   UNL     1      27.696  22.919  12.561  0.00  0.00    +0.000 A 
ATOM      2  C   UNL     1      28.590  23.390  13.500  0.00  0.00    +0.000 A 
ATOM      3  C   UNL     1      29.949  23.233  13.358  0.00  0.00    +0.000 A 
ATOM      4  C   UNL     1      30.436  22.577  12.233  0.00  0.00    +0.000 A 
ATOM      5  N   UNL     1      31.684  22.277  11.827  0.00  0.00    +0.000 NA
ATOM      6  C   UNL     1      31.652  21.620  10.646  0.00  0.00    +0.000 A 
ATOM      7  N   UNL     1      32.611  21.106   9.827  0.00  0.00    +0.000 NA
ATOM      8  C   UNL     1      32.262  20.488   8.686  0.00  0.00    +0.000 A 
ATOM      9  N   UNL     1      30.939  20.406   8.402  0.00  0.00    +0.000 NA
ATOM     10  N   UNL     1      29.990  20.896   9.175  0.00  0.00    +0.000 NA
ATOM     11  C   UNL     1      30.309  21.520  10.326  0.00  0.00    +0.000 A 
ATOM     12  C   UNL     1      29.537  22.113  11.308  0.00  0.00    +0.000 A 
ATOM     13  C   UNL     1      28.166  22.267  11.442  0.00  0.00    +0.000 A 
ENDROOT
BRANCH   1  15
ATOM     14  C   UNL     1      25.714  24.206  11.881  0.00  0.00    +0.000 C 
ATOM     15  C   UNL     1      26.228  23.083  12.713  0.00  0.00    +0.000 C 
ENDBRANCH   1  15
BRANCH   8  16
ATOM     16  S   UNL     1      33.473  19.789   7.565  0.00  0.00    +0.000 S 
BRANCH  16  17
ATOM     17  C   UNL     1      32.596  18.701   6.429  0.00  0.00    +0.000 C 
ATOM     18  C   UNL     1      33.167  17.302   6.400  0.00  0.00    +0.000 C 
ATOM     19  C   UNL     1      32.490  19.288   5.038  0.00  0.00    +0.000 C 
ENDBRANCH  16  17
ENDBRANCH   8  16
TORSDOF 3
ENDMDL
MODEL 6
REMARK VINA RESULT:      -5.9      2.873      4.144
REMARK  Name = 
REMARK  3 active torsions:
REMARK  status: ('A' for Active; 'I' for Inactive)
REMARK    1  A    between atoms: C_2  and  C_3
REMARK    2  A    between atoms: C_10  and  S_11
REMARK    3  A    between atoms: S_11  and  C_12
REMARK                            x       y       z     vdW  Elec       q    Type
REMARK                         _______ _______ _______ _____ _____    ______ ____
ROOT
ATOM      1  C   UNL     1      14.961  11.943  36.028  0.00  0.00    +0.000 A 
ATOM      2  C   UNL     1      15.734  11.649  34.924  0.00  0.00    +0.000 A 
ATOM      3  C   UNL     1      16.854  10.857  35.006  0.00  0.00    +0.000 A 
ATOM      4  C   UNL     1      17.220  10.336  36.243  0.00  0.00    +0.000 A 
ATOM      5  N   UNL     1      18.240   9.547  36.630  0.00  0.00    +0.000 NA
ATOM      6  C   UNL     1      18.174   9.305  37.957  0.00  0.00    +0.000 A 
ATOM      7  N   UNL     1      18.941   8.588  38.824  0.00  0.00    +0.000 NA
ATOM      8  C   UNL     1      18.614   8.533  40.126  0.00  0.00    +0.000 A 
ATOM      9  N   UNL     1      17.508   9.211  40.520  0.00  0.00    +0.000 NA
ATOM     10  N   UNL     1      16.747   9.911  39.702  0.00  0.00    +0.000 NA
ATOM     11  C   UNL     1      17.050   9.986  38.392  0.00  0.00    +0.000 A 
ATOM     12  C   UNL     1      16.444  10.635  37.333  0.00  0.00    +0.000 A 
ATOM     13  C   UNL     1      15.312  11.433  37.259  0.00  0.00    +0.000 A 
ENDROOT
BRANCH   1  15
ATOM     14  C   UNL     1      13.786  13.677  34.739  0.00  0.00    +0.000 C 
ATOM     15  C   UNL     1      13.753  12.802  35.944  0.00  0.00    +0.000 C 
ENDBRANCH   1  15
BRANCH   8  16
ATOM     16  S   UNL     1      19.581   7.609  41.319  0.00  0.00    +0.000 S 
BRANCH  16  17
ATOM     17  C   UNL     1      18.966   5.916  41.324  0.00  0.00    +0.000 C 
ATOM     18  C   UNL     1      19.590   5.065  40.243  0.00  0.00    +0.000 C 
ATOM     19  C   UNL     1      17.455   5.854  41.279  0.00  0.00    +0.000 C 
ENDBRANCH  16  17
ENDBRANCH   8  16
TORSDOF 3
ENDMDL
MODEL 7
REMARK VINA RESULT:      -5.9     23.431     24.589
REMARK  Name = 
REMARK  3 active torsions:
REMARK  status: ('A' for Active; 'I' for Inactive)
REMARK    1  A    between atoms: C_2  and  C_3
REMARK    2  A    between atoms: C_10  and  S_11
REMARK    3  A    between atoms: S_11  and  C_12
REMARK                            x       y       z     vdW  Elec       q    Type
REMARK                         _______ _______ _______ _____ _____    ______ ____
ROOT
ATOM      1  C   UNL     1      30.219  28.479  17.887  0.00  0.00    +0.000 A 
ATOM      2  C   UNL     1      29.957  29.611  18.630  0.00  0.00    +0.000 A 
ATOM      3  C   UNL     1      29.590  29.548  19.953  0.00  0.00    +0.000 A 
ATOM      4  C   UNL     1      29.478  28.302  20.561  0.00  0.00    +0.000 A 
ATOM      5  N   UNL     1      29.145  27.928  21.811  0.00  0.00    +0.000 NA
ATOM      6  C   UNL     1      29.176  26.582  21.927  0.00  0.00    +0.000 A 
ATOM      7  N   UNL     1      28.929  25.718  22.950  0.00  0.00    +0.000 NA
ATOM      8  C   UNL     1      29.045  24.394  22.755  0.00  0.00    +0.000 A 
ATOM      9  N   UNL     1      29.411  23.975  21.518  0.00  0.00    +0.000 NA
ATOM     10  N   UNL     1      29.658  24.789  20.512  0.00  0.00    +0.000 NA
ATOM     11  C   UNL     1      29.550  26.122  20.676  0.00  0.00    +0.000 A 
ATOM     12  C   UNL     1      29.741  27.184  19.812  0.00  0.00    +0.000 A 
ATOM     13  C   UNL     1      30.113  27.239  18.478  0.00  0.00    +0.000 A 
ENDROOT
BRANCH   1  15
ATOM     14  C   UNL     1      29.586  29.246  15.638  0.00  0.00    +0.000 C 
ATOM     15  C   UNL     1      30.612  28.544  16.457  0.00  0.00    +0.000 C 
ENDBRANCH   1  15
BRANCH   8  16
ATOM     16  S   UNL     1      28.733  23.202  24.057  0.00  0.00    +0.000 S 
BRANCH  16  17
ATOM     17  C   UNL     1      30.119  23.277  25.205  0.00  0.00    +0.000 C 
ATOM     18  C   UNL     1      31.458  23.186  24.512  0.00  0.00    +0.000 C 
ATOM     19  C   UNL     1      29.998  22.260  26.319  0.00  0.00    +0.000 C 
ENDBRANCH  16  17
ENDBRANCH   8  16
TORSDOF 3
ENDMDL
MODEL 8
REMARK VINA RESULT:      -5.8     19.107     20.953
REMARK  Name = 
REMARK  3 active torsions:
REMARK  status: ('A' for Active; 'I' for Inactive)
REMARK    1  A    between atoms: C_2  and  C_3
REMARK    2  A    between atoms: C_10  and  S_11
REMARK    3  A    between atoms: S_11  and  C_12
REMARK                            x       y       z     vdW  Elec       q    Type
REMARK                         _______ _______ _______ _____ _____    ______ ____
ROOT
ATOM      1  C   UNL     1      33.854   4.169  35.326  0.00  0.00    +0.000 A 
ATOM      2  C   UNL     1      33.616   4.350  33.980  0.00  0.00    +0.000 A 
ATOM      3  C   UNL     1      33.452   3.292  33.118  0.00  0.00    +0.000 A 
ATOM      4  C   UNL     1      33.531   1.997  33.620  0.00  0.00    +0.000 A 
ATOM      5  N   UNL     1      33.418   0.789  33.036  0.00  0.00    +0.000 NA
ATOM      6  C   UNL     1      33.572  -0.194  33.951  0.00  0.00    +0.000 A 
ATOM      7  N   UNL     1      33.550  -1.554  33.885  0.00  0.00    +0.000 NA
ATOM      8  C   UNL     1      33.744  -2.285  34.996  0.00  0.00    +0.000 A 
ATOM      9  N   UNL     1      33.956  -1.614  36.155  0.00  0.00    +0.000 NA
ATOM     10  N   UNL     1      33.980  -0.299  36.247  0.00  0.00    +0.000 NA
ATOM     11  C   UNL     1      33.791   0.461  35.150  0.00  0.00    +0.000 A 
ATOM     12  C   UNL     1      33.769   1.830  34.960  0.00  0.00    +0.000 A 
ATOM     13  C   UNL     1      33.934   2.891  35.837  0.00  0.00    +0.000 A 
ENDROOT
BRANCH   1  15
ATOM     14  C   UNL     1      33.264   5.114  37.518  0.00  0.00    +0.000 C 
ATOM     15  C   UNL     1      34.035   5.309  36.260  0.00  0.00    +0.000 C 
ENDBRANCH   1  15
BRANCH   8  16
ATOM     16  S   UNL     1      33.729  -4.077  34.979  0.00  0.00    +0.000 S 
BRANCH  16  17
ATOM     17  C   UNL     1      32.903  -4.599  33.466  0.00  0.00    +0.000 C 
ATOM     18  C   UNL     1      32.023  -5.811  33.669  0.00  0.00    +0.000 C 
ATOM     19  C   UNL     1      33.872  -4.801  32.323  0.00  0.00    +0.000 C 
ENDBRANCH  16  17
ENDBRANCH   8  16
TORSDOF 3
ENDMDL
MODEL 9
REMARK VINA RESULT:      -5.8     21.531     23.315
REMARK  Name = 
REMARK  3 active torsions:
REMARK  status: ('A' for Active; 'I' for Inactive)
REMARK    1  A    between atoms: C_2  and  C_3
REMARK    2  A    between atoms: C_10  and  S_11
REMARK    3  A    between atoms: S_11  and  C_12
REMARK                            x       y       z     vdW  Elec       q    Type
REMARK                         _______ _______ _______ _____ _____    ______ ____
ROOT
ATOM      1  C   UNL     1      19.443  -7.057  26.287  0.00  0.00    +0.000 A 
ATOM      2  C   UNL     1      19.334  -8.367  26.706  0.00  0.00    +0.000 A 
ATOM      3  C   UNL     1      20.313  -9.299  26.455  0.00  0.00    +0.000 A 
ATOM      4  C   UNL     1      21.449  -8.908  25.755  0.00  0.00    +0.000 A 
ATOM      5  N   UNL     1      22.551  -9.577  25.366  0.00  0.00    +0.000 NA
ATOM      6  C   UNL     1      23.393  -8.756  24.700  0.00  0.00    +0.000 A 
ATOM      7  N   UNL     1      24.610  -8.929  24.113  0.00  0.00    +0.000 NA
ATOM      8  C   UNL     1      25.218  -7.895  23.509  0.00  0.00    +0.000 A 
ATOM      9  N   UNL     1      24.573  -6.702  23.515  0.00  0.00    +0.000 NA
ATOM     10  N   UNL     1      23.397  -6.507  24.077  0.00  0.00    +0.000 NA
ATOM     11  C   UNL     1      22.762  -7.524  24.690  0.00  0.00    +0.000 A 
ATOM     12  C   UNL     1      21.547  -7.603  25.344  0.00  0.00    +0.000 A 
ATOM     13  C   UNL     1      20.565  -6.657  25.593  0.00  0.00    +0.000 A 
ENDROOT
BRANCH   1  15
ATOM     14  C   UNL     1      18.954  -4.677  26.668  0.00  0.00    +0.000 C 
ATOM     15  C   UNL     1      18.386  -6.049  26.553  0.00  0.00    +0.000 C 
ENDBRANCH   1  15
BRANCH   8  16
ATOM     16  S   UNL     1      26.818  -8.053  22.716  0.00  0.00    +0.000 S 
BRANCH  16  17
ATOM     17  C   UNL     1      27.608  -9.531  23.378  0.00  0.00    +0.000 C 
ATOM     18  C   UNL     1      29.109  -9.395  23.480  0.00  0.00    +0.000 C 
ATOM     19  C   UNL     1      27.212 -10.781  22.624  0.00  0.00    +0.000 C 
ENDBRANCH  16  17
ENDBRANCH   8  16
TORSDOF 3
ENDMDL
MODEL 10
REMARK VINA RESULT:      -5.7     17.931     19.497
REMARK  Name = 
REMARK  3 active torsions:
REMARK  status: ('A' for Active; 'I' for Inactive)
REMARK    1  A    between atoms: C_2  and  C_3
REMARK    2  A    between atoms: C_10  and  S_11
REMARK    3  A    between atoms: S_11  and  C_12
REMARK                            x       y       z     vdW  Elec       q    Type
REMARK                         _______ _______ _______ _____ _____    ______ ____
ROOT
ATOM      1  C   UNL     1      33.742   0.888  35.039  0.00  0.00    +0.000 A 
ATOM      2  C   UNL     1      33.559   1.193  33.707  0.00  0.00    +0.000 A 
ATOM      3  C   UNL     1      33.539   2.490  33.251  0.00  0.00    +0.000 A 
ATOM      4  C   UNL     1      33.708   3.526  34.163  0.00  0.00    +0.000 A 
ATOM      5  N   UNL     1      33.734   4.865  34.021  0.00  0.00    +0.000 NA
ATOM      6  C   UNL     1      33.929   5.464  35.217  0.00  0.00    +0.000 A 
ATOM      7  N   UNL     1      34.032   6.762  35.615  0.00  0.00    +0.000 NA
ATOM      8  C   UNL     1      34.230   7.054  36.912  0.00  0.00    +0.000 A 
ATOM      9  N   UNL     1      34.320   6.015  37.779  0.00  0.00    +0.000 NA
ATOM     10  N   UNL     1      34.226   4.750  37.420  0.00  0.00    +0.000 NA
ATOM     11  C   UNL     1      34.027   4.426  36.128  0.00  0.00    +0.000 A 
ATOM     12  C   UNL     1      33.890   3.210  35.484  0.00  0.00    +0.000 A 
ATOM     13  C   UNL     1      33.912   1.905  35.953  0.00  0.00    +0.000 A 
ENDROOT
BRANCH   1  15
ATOM     14  C   UNL     1      33.931  -1.486  34.423  0.00  0.00    +0.000 C 
ATOM     15  C   UNL     1      33.761  -0.511  35.536  0.00  0.00    +0.000 C 
ENDBRANCH   1  15
BRANCH   8  16
ATOM     16  S   UNL     1      34.372   8.740  37.503  0.00  0.00    +0.000 S 
BRANCH  16  17
ATOM     17  C   UNL     1      34.547   9.808  36.063  0.00  0.00    +0.000 C 
ATOM     18  C   UNL     1      35.985   9.975  35.631  0.00  0.00    +0.000 C 
ATOM     19  C   UNL     1      33.863  11.144  36.253  0.00  0.00    +0.000 C 
ENDBRANCH  16  17
ENDBRANCH   8  16
TORSDOF 3
ENDMDL
