MODEL 1
REMARK VINA RESULT:      -7.6      0.000      0.000
REMARK  Name = 
REMARK  1 active torsions:
REMARK  status: ('A' for Active; 'I' for Inactive)
REMARK    1  A    between atoms: C_4  and  C_5
REMARK                            x       y       z     vdW  Elec       q    Type
REMARK                         _______ _______ _______ _____ _____    ______ ____
ROOT
ATOM      1  C   UNL     1      28.277  25.771  28.294  0.00  0.00    +0.000 C 
ATOM      2  C   UNL     1      27.155  24.823  27.945  0.00  0.00    +0.000 C 
ATOM      3  C   UNL     1      27.372  23.438  28.004  0.00  0.00    +0.000 C 
ATOM      4  C   UNL     1      28.449  23.385  26.793  0.00  0.00    +0.000 C 
ATOM      5  C   UNL     1      27.328  22.833  25.665  0.00  0.00    +0.000 C 
ATOM      6  C   UNL     1      27.990  23.327  24.410  0.00  0.00    +0.000 A 
ATOM      7  C   UNL     1      29.318  23.569  24.304  0.00  0.00    +0.000 A 
ATOM      8  C   UNL     1      29.869  24.011  23.073  0.00  0.00    +0.000 A 
ATOM      9  C   UNL     1      29.063  24.196  21.980  0.00  0.00    +0.000 A 
ATOM     10  O   UNL     1      29.609  24.635  20.752  0.00  0.00    +0.000 OA
ATOM     11  C   UNL     1      27.714  23.949  22.092  0.00  0.00    +0.000 A 
ATOM     12  C   UNL     1      27.215  23.519  23.313  0.00  0.00    +0.000 A 
ATOM     13  C   UNL     1      25.754  23.245  23.543  0.00  0.00    +0.000 C 
ATOM     14  C   UNL     1      25.534  24.326  24.605  0.00  0.00    +0.000 C 
ATOM     15  C   UNL     1      26.041  23.794  26.004  0.00  0.00    +0.000 C 
ATOM     16  C   UNL     1      26.818  25.233  26.423  0.00  0.00    +0.000 C 
ATOM     17  C   UNL     1      25.437  26.012  26.717  0.00  0.00    +0.000 C 
ATOM     18  C   UNL     1      24.778  25.015  27.594  0.00  0.00    +0.000 C 
ATOM     19  C   UNL     1      25.898  25.415  28.785  0.00  0.00    +0.000 C 
ATOM     20  O   UNL     1      25.616  24.131  29.570  0.00  0.00    +0.000 OA
ENDROOT
BRANCH   4  21
ATOM     21  C   UNL     1      29.036  21.926  27.148  0.00  0.00    +0.000 C 
ATOM     22 CL   UNL     1      30.747  21.986  27.404  0.00  0.00    +0.000 Cl
ENDBRANCH   4  21
TORSDOF 1
ENDMDL
MODEL 2
REMARK VINA RESULT:      -7.3      2.034      5.837
REMARK  Name = 
REMARK  1 active torsions:
REMARK  status: ('A' for Active; 'I' for Inactive)
REMARK    1  A    between atoms: C_4  and  C_5
REMARK                            x       y       z     vdW  Elec       q    Type
REMARK                         _______ _______ _______ _____ _____    ______ ____
ROOT
ATOM      1  C   UNL     1      28.298  26.415  24.008  0.00  0.00    +0.000 C 
ATOM      2  C   UNL     1      28.618  24.939  24.020  0.00  0.00    +0.000 C 
ATOM      3  C   UNL     1      27.648  24.015  23.602  0.00  0.00    +0.000 C 
ATOM      4  C   UNL     1      26.612  24.298  24.816  0.00  0.00    +0.000 C 
ATOM      5  C   UNL     1      27.073  22.931  25.684  0.00  0.00    +0.000 C 
ATOM      6  C   UNL     1      26.684  23.381  27.063  0.00  0.00    +0.000 A 
ATOM      7  C   UNL     1      25.738  24.319  27.310  0.00  0.00    +0.000 A 
ATOM      8  C   UNL     1      25.411  24.669  28.646  0.00  0.00    +0.000 A 
ATOM      9  C   UNL     1      26.047  24.063  29.697  0.00  0.00    +0.000 A 
ATOM     10  O   UNL     1      25.722  24.410  31.029  0.00  0.00    +0.000 OA
ATOM     11  C   UNL     1      27.007  23.111  29.441  0.00  0.00    +0.000 A 
ATOM     12  C   UNL     1      27.299  22.797  28.122  0.00  0.00    +0.000 A 
ATOM     13  C   UNL     1      28.346  21.788  27.738  0.00  0.00    +0.000 C 
ATOM     14  C   UNL     1      29.267  22.761  26.997  0.00  0.00    +0.000 C 
ATOM     15  C   UNL     1      28.707  23.003  25.539  0.00  0.00    +0.000 C 
ATOM     16  C   UNL     1      28.957  24.672  25.573  0.00  0.00    +0.000 C 
ATOM     17  C   UNL     1      30.557  24.538  25.417  0.00  0.00    +0.000 C 
ATOM     18  C   UNL     1      30.611  23.606  24.265  0.00  0.00    +0.000 C 
ATOM     19  C   UNL     1      30.070  24.872  23.297  0.00  0.00    +0.000 C 
ATOM     20  O   UNL     1      29.644  23.917  22.179  0.00  0.00    +0.000 OA
ENDROOT
BRANCH   4  21
ATOM     21  C   UNL     1      25.334  23.610  24.117  0.00  0.00    +0.000 C 
ATOM     22 CL   UNL     1      25.705  23.091  22.508  0.00  0.00    +0.000 Cl
ENDBRANCH   4  21
TORSDOF 1
ENDMDL
MODEL 3
REMARK VINA RESULT:      -7.2      2.706      5.401
REMARK  Name = 
REMARK  1 active torsions:
REMARK  status: ('A' for Active; 'I' for Inactive)
REMARK    1  A    between atoms: C_4  and  C_5
REMARK                            x       y       z     vdW  Elec       q    Type
REMARK                         _______ _______ _______ _____ _____    ______ ____
ROOT
ATOM      1  C   UNL     1      27.014  26.930  24.676  0.00  0.00    +0.000 C 
ATOM      2  C   UNL     1      27.607  25.926  23.718  0.00  0.00    +0.000 C 
ATOM      3  C   UNL     1      26.918  24.733  23.448  0.00  0.00    +0.000 C 
ATOM      4  C   UNL     1      27.054  24.119  24.942  0.00  0.00    +0.000 C 
ATOM      5  C   UNL     1      28.327  23.096  24.532  0.00  0.00    +0.000 C 
ATOM      6  C   UNL     1      28.956  22.942  25.887  0.00  0.00    +0.000 A 
ATOM      7  C   UNL     1      28.285  23.110  27.052  0.00  0.00    +0.000 A 
ATOM      8  C   UNL     1      28.948  22.921  28.293  0.00  0.00    +0.000 A 
ATOM      9  C   UNL     1      30.271  22.566  28.325  0.00  0.00    +0.000 A 
ATOM     10  O   UNL     1      30.933  22.375  29.560  0.00  0.00    +0.000 OA
ATOM     11  C   UNL     1      30.948  22.397  27.139  0.00  0.00    +0.000 A 
ATOM     12  C   UNL     1      30.265  22.591  25.948  0.00  0.00    +0.000 A 
ATOM     13  C   UNL     1      30.921  22.453  24.602  0.00  0.00    +0.000 C 
ATOM     14  C   UNL     1      30.730  23.907  24.160  0.00  0.00    +0.000 C 
ATOM     15  C   UNL     1      29.256  24.100  23.623  0.00  0.00    +0.000 C 
ATOM     16  C   UNL     1      29.013  25.568  24.419  0.00  0.00    +0.000 C 
ATOM     17  C   UNL     1      29.965  26.389  23.409  0.00  0.00    +0.000 C 
ATOM     18  C   UNL     1      29.408  25.922  22.117  0.00  0.00    +0.000 C 
ATOM     19  C   UNL     1      28.037  26.840  22.447  0.00  0.00    +0.000 C 
ATOM     20  O   UNL     1      27.201  26.077  21.416  0.00  0.00    +0.000 OA
ENDROOT
BRANCH   4  21
ATOM     21  C   UNL     1      25.904  23.002  24.775  0.00  0.00    +0.000 C 
ATOM     22 CL   UNL     1      25.278  22.985  23.162  0.00  0.00    +0.000 Cl
ENDBRANCH   4  21
TORSDOF 1
ENDMDL
MODEL 4
REMARK VINA RESULT:      -6.9      2.205      2.836
REMARK  Name = 
REMARK  1 active torsions:
REMARK  status: ('A' for Active; 'I' for Inactive)
REMARK    1  A    between atoms: C_4  and  C_5
REMARK                            x       y       z     vdW  Elec       q    Type
REMARK                         _______ _______ _______ _____ _____    ______ ____
ROOT
ATOM      1  C   UNL     1      27.734  26.283  30.190  0.00  0.00    +0.000 C 
ATOM      2  C   UNL     1      26.593  25.459  29.644  0.00  0.00    +0.000 C 
ATOM      3  C   UNL     1      26.406  24.145  30.100  0.00  0.00    +0.000 C 
ATOM      4  C   UNL     1      27.779  23.552  29.472  0.00  0.00    +0.000 C 
ATOM      5  C   UNL     1      27.010  22.856  28.146  0.00  0.00    +0.000 C 
ATOM      6  C   UNL     1      28.166  22.827  27.188  0.00  0.00    +0.000 A 
ATOM      7  C   UNL     1      29.464  22.816  27.575  0.00  0.00    +0.000 A 
ATOM      8  C   UNL     1      30.499  22.763  26.604  0.00  0.00    +0.000 A 
ATOM      9  C   UNL     1      30.195  22.720  25.269  0.00  0.00    +0.000 A 
ATOM     10  O   UNL     1      31.224  22.666  24.301  0.00  0.00    +0.000 OA
ATOM     11  C   UNL     1      28.875  22.732  24.881  0.00  0.00    +0.000 A 
ATOM     12  C   UNL     1      27.894  22.785  25.860  0.00  0.00    +0.000 A 
ATOM     13  C   UNL     1      26.425  22.825  25.538  0.00  0.00    +0.000 C 
ATOM     14  C   UNL     1      26.147  24.203  26.143  0.00  0.00    +0.000 C 
ATOM     15  C   UNL     1      25.985  24.062  27.710  0.00  0.00    +0.000 C 
ATOM     16  C   UNL     1      26.919  25.421  28.066  0.00  0.00    +0.000 C 
ATOM     17  C   UNL     1      25.777  26.457  27.593  0.00  0.00    +0.000 C 
ATOM     18  C   UNL     1      24.620  25.896  28.331  0.00  0.00    +0.000 C 
ATOM     19  C   UNL     1      25.327  26.469  29.747  0.00  0.00    +0.000 C 
ATOM     20  O   UNL     1      24.467  25.553  30.622  0.00  0.00    +0.000 OA
ENDROOT
BRANCH   4  21
ATOM     21  C   UNL     1      27.805  22.204  30.356  0.00  0.00    +0.000 C 
ATOM     22 CL   UNL     1      26.227  21.502  30.474  0.00  0.00    +0.000 Cl
ENDBRANCH   4  21
TORSDOF 1
ENDMDL
MODEL 5
REMARK VINA RESULT:      -6.5      2.866      5.152
REMARK  Name = 
REMARK  1 active torsions:
REMARK  status: ('A' for Active; 'I' for Inactive)
REMARK    1  A    between atoms: C_4  and  C_5
REMARK                            x       y       z     vdW  Elec       q    Type
REMARK                         _______ _______ _______ _____ _____    ______ ____
ROOT
ATOM      1  C   UNL     1      31.103  25.804  25.097  0.00  0.00    +0.000 C 
ATOM      2  C   UNL     1      30.478  24.481  24.729  0.00  0.00    +0.000 C 
ATOM      3  C   UNL     1      30.134  24.223  23.392  0.00  0.00    +0.000 C 
ATOM      4  C   UNL     1      28.975  25.353  23.296  0.00  0.00    +0.000 C 
ATOM      5  C   UNL     1      27.720  24.250  23.492  0.00  0.00    +0.000 C 
ATOM      6  C   UNL     1      26.672  25.175  24.043  0.00  0.00    +0.000 A 
ATOM      7  C   UNL     1      26.661  26.512  23.828  0.00  0.00    +0.000 A 
ATOM      8  C   UNL     1      25.619  27.313  24.365  0.00  0.00    +0.000 A 
ATOM      9  C   UNL     1      24.616  26.743  25.104  0.00  0.00    +0.000 A 
ATOM     10  O   UNL     1      23.577  27.539  25.639  0.00  0.00    +0.000 OA
ATOM     11  C   UNL     1      24.633  25.384  25.320  0.00  0.00    +0.000 A 
ATOM     12  C   UNL     1      25.668  24.636  24.780  0.00  0.00    +0.000 A 
ATOM     13  C   UNL     1      25.788  23.150  24.978  0.00  0.00    +0.000 C 
ATOM     14  C   UNL     1      27.115  23.178  25.741  0.00  0.00    +0.000 C 
ATOM     15  C   UNL     1      28.306  23.320  24.711  0.00  0.00    +0.000 C 
ATOM     16  C   UNL     1      29.136  24.473  25.622  0.00  0.00    +0.000 C 
ATOM     17  C   UNL     1      29.625  23.400  26.723  0.00  0.00    +0.000 C 
ATOM     18  C   UNL     1      30.164  22.355  25.820  0.00  0.00    +0.000 C 
ATOM     19  C   UNL     1      31.435  23.401  25.472  0.00  0.00    +0.000 C 
ATOM     20  O   UNL     1      31.809  22.626  24.205  0.00  0.00    +0.000 OA
ENDROOT
BRANCH   4  21
ATOM     21  C   UNL     1      28.899  25.386  21.687  0.00  0.00    +0.000 C 
ATOM     22 CL   UNL     1      29.482  26.891  21.062  0.00  0.00    +0.000 Cl
ENDBRANCH   4  21
TORSDOF 1
ENDMDL
MODEL 6
REMARK VINA RESULT:      -6.4     20.673     22.398
REMARK  Name = 
REMARK  1 active torsions:
REMARK  status: ('A' for Active; 'I' for Inactive)
REMARK    1  A    between atoms: C_4  and  C_5
REMARK                            x       y       z     vdW  Elec       q    Type
REMARK                         _______ _______ _______ _____ _____    ______ ____
ROOT
ATOM      1  C   UNL     1      26.584   6.366  14.453  0.00  0.00    +0.000 C 
ATOM      2  C   UNL     1      27.070   5.781  15.757  0.00  0.00    +0.000 C 
ATOM      3  C   UNL     1      27.695   4.524  15.764  0.00  0.00    +0.000 C 
ATOM      4  C   UNL     1      26.384   3.683  15.312  0.00  0.00    +0.000 C 
ATOM      5  C   UNL     1      26.038   3.158  16.873  0.00  0.00    +0.000 C 
ATOM      6  C   UNL     1      24.564   2.914  16.722  0.00  0.00    +0.000 A 
ATOM      7  C   UNL     1      23.962   2.651  15.537  0.00  0.00    +0.000 A 
ATOM      8  C   UNL     1      22.565   2.406  15.484  0.00  0.00    +0.000 A 
ATOM      9  C   UNL     1      21.812   2.433  16.629  0.00  0.00    +0.000 A 
ATOM     10  O   UNL     1      20.420   2.189  16.578  0.00  0.00    +0.000 OA
ATOM     11  C   UNL     1      22.428   2.702  17.829  0.00  0.00    +0.000 A 
ATOM     12  C   UNL     1      23.795   2.936  17.840  0.00  0.00    +0.000 A 
ATOM     13  C   UNL     1      24.556   3.260  19.096  0.00  0.00    +0.000 C 
ATOM     14  C   UNL     1      25.006   4.661  18.675  0.00  0.00    +0.000 C 
ATOM     15  C   UNL     1      26.265   4.542  17.727  0.00  0.00    +0.000 C 
ATOM     16  C   UNL     1      25.714   5.693  16.624  0.00  0.00    +0.000 C 
ATOM     17  C   UNL     1      26.016   6.933  17.610  0.00  0.00    +0.000 C 
ATOM     18  C   UNL     1      27.408   6.600  17.999  0.00  0.00    +0.000 C 
ATOM     19  C   UNL     1      27.876   7.016  16.437  0.00  0.00    +0.000 C 
ATOM     20  O   UNL     1      29.210   6.276  16.573  0.00  0.00    +0.000 OA
ENDROOT
BRANCH   4  21
ATOM     21  C   UNL     1      27.177   2.349  14.877  0.00  0.00    +0.000 C 
ATOM     22 CL   UNL     1      28.049   1.675  16.211  0.00  0.00    +0.000 Cl
ENDBRANCH   4  21
TORSDOF 1
ENDMDL
MODEL 7
REMARK VINA RESULT:      -6.3      2.067      2.725
REMARK  Name = 
REMARK  1 active torsions:
REMARK  status: ('A' for Active; 'I' for Inactive)
REMARK    1  A    between atoms: C_4  and  C_5
REMARK                            x       y       z     vdW  Elec       q    Type
REMARK                         _______ _______ _______ _____ _____    ______ ____
ROOT
ATOM      1  C   UNL     1      26.327  27.130  28.071  0.00  0.00    +0.000 C 
ATOM      2  C   UNL     1      25.448  26.194  27.277  0.00  0.00    +0.000 C 
ATOM      3  C   UNL     1      25.128  24.931  27.798  0.00  0.00    +0.000 C 
ATOM      4  C   UNL     1      26.637  24.341  27.749  0.00  0.00    +0.000 C 
ATOM      5  C   UNL     1      26.374  23.465  26.336  0.00  0.00    +0.000 C 
ATOM      6  C   UNL     1      27.788  23.387  25.836  0.00  0.00    +0.000 A 
ATOM      7  C   UNL     1      28.876  23.484  26.637  0.00  0.00    +0.000 A 
ATOM      8  C   UNL     1      30.181  23.374  26.088  0.00  0.00    +0.000 A 
ATOM      9  C   UNL     1      30.351  23.168  24.744  0.00  0.00    +0.000 A 
ATOM     10  O   UNL     1      31.650  23.057  24.195  0.00  0.00    +0.000 OA
ATOM     11  C   UNL     1      29.243  23.071  23.934  0.00  0.00    +0.000 A 
ATOM     12  C   UNL     1      27.986  23.184  24.509  0.00  0.00    +0.000 A 
ATOM     13  C   UNL     1      26.716  23.114  23.707  0.00  0.00    +0.000 C 
ATOM     14  C   UNL     1      26.235  24.536  24.011  0.00  0.00    +0.000 C 
ATOM     15  C   UNL     1      25.549  24.562  25.435  0.00  0.00    +0.000 C 
ATOM     16  C   UNL     1      26.294  25.997  25.918  0.00  0.00    +0.000 C 
ATOM     17  C   UNL     1      25.372  26.915  24.965  0.00  0.00    +0.000 C 
ATOM     18  C   UNL     1      24.038  26.384  25.331  0.00  0.00    +0.000 C 
ATOM     19  C   UNL     1      24.214  27.145  26.821  0.00  0.00    +0.000 C 
ATOM     20  O   UNL     1      23.115  26.290  27.458  0.00  0.00    +0.000 OA
ENDROOT
BRANCH   4  21
ATOM     21  C   UNL     1      26.372  23.103  28.746  0.00  0.00    +0.000 C 
ATOM     22 CL   UNL     1      26.260  23.636  30.389  0.00  0.00    +0.000 Cl
ENDBRANCH   4  21
TORSDOF 1
ENDMDL
MODEL 8
REMARK VINA RESULT:      -6.3     17.865     20.284
REMARK  Name = 
REMARK  1 active torsions:
REMARK  status: ('A' for Active; 'I' for Inactive)
REMARK    1  A    between atoms: C_4  and  C_5
REMARK                            x       y       z     vdW  Elec       q    Type
REMARK                         _______ _______ _______ _____ _____    ______ ____
ROOT
ATOM      1  C   UNL     1      24.580  10.283  39.412  0.00  0.00    +0.000 C 
ATOM      2  C   UNL     1      23.829  10.873  38.243  0.00  0.00    +0.000 C 
ATOM      3  C   UNL     1      23.186  12.112  38.385  0.00  0.00    +0.000 C 
ATOM      4  C   UNL     1      22.087  11.609  39.466  0.00  0.00    +0.000 C 
ATOM      5  C   UNL     1      20.858  11.469  38.325  0.00  0.00    +0.000 C 
ATOM      6  C   UNL     1      20.001  10.450  39.021  0.00  0.00    +0.000 A 
ATOM      7  C   UNL     1      20.003  10.254  40.361  0.00  0.00    +0.000 A 
ATOM      8  C   UNL     1      19.143   9.286  40.943  0.00  0.00    +0.000 A 
ATOM      9  C   UNL     1      18.304   8.541  40.156  0.00  0.00    +0.000 A 
ATOM     10  O   UNL     1      17.447   7.577  40.734  0.00  0.00    +0.000 OA
ATOM     11  C   UNL     1      18.307   8.743  38.795  0.00  0.00    +0.000 A 
ATOM     12  C   UNL     1      19.162   9.698  38.265  0.00  0.00    +0.000 A 
ATOM     13  C   UNL     1      19.255   9.977  36.790  0.00  0.00    +0.000 C 
ATOM     14  C   UNL     1      20.718   9.558  36.622  0.00  0.00    +0.000 C 
ATOM     15  C   UNL     1      21.657  10.741  37.090  0.00  0.00    +0.000 C 
ATOM     16  C   UNL     1      22.720   9.743  37.940  0.00  0.00    +0.000 C 
ATOM     17  C   UNL     1      23.391   9.145  36.601  0.00  0.00    +0.000 C 
ATOM     18  C   UNL     1      23.669  10.412  35.883  0.00  0.00    +0.000 C 
ATOM     19  C   UNL     1      24.878  10.715  37.014  0.00  0.00    +0.000 C 
ATOM     20  O   UNL     1      24.925  12.203  36.658  0.00  0.00    +0.000 OA
ENDROOT
BRANCH   4  21
ATOM     21  C   UNL     1      21.657  13.078  39.971  0.00  0.00    +0.000 C 
ATOM     22 CL   UNL     1      20.899  13.980  38.704  0.00  0.00    +0.000 Cl
ENDBRANCH   4  21
TORSDOF 1
ENDMDL
MODEL 9
REMARK VINA RESULT:      -6.3     16.940     18.927
REMARK  Name = 
REMARK  1 active torsions:
REMARK  status: ('A' for Active; 'I' for Inactive)
REMARK    1  A    between atoms: C_4  and  C_5
REMARK                            x       y       z     vdW  Elec       q    Type
REMARK                         _______ _______ _______ _____ _____    ______ ____
ROOT
ATOM      1  C   UNL     1      25.821  11.108  40.979  0.00  0.00    +0.000 C 
ATOM      2  C   UNL     1      26.194  11.097  39.516  0.00  0.00    +0.000 C 
ATOM      3  C   UNL     1      26.116  12.283  38.770  0.00  0.00    +0.000 C 
ATOM      4  C   UNL     1      24.504  12.432  38.860  0.00  0.00    +0.000 C 
ATOM      5  C   UNL     1      24.244  11.824  37.313  0.00  0.00    +0.000 C 
ATOM      6  C   UNL     1      22.839  11.323  37.486  0.00  0.00    +0.000 A 
ATOM      7  C   UNL     1      21.977  11.804  38.413  0.00  0.00    +0.000 A 
ATOM      8  C   UNL     1      20.655  11.292  38.495  0.00  0.00    +0.000 A 
ATOM      9  C   UNL     1      20.240  10.307  37.637  0.00  0.00    +0.000 A 
ATOM     10  O   UNL     1      18.923   9.796  37.717  0.00  0.00    +0.000 OA
ATOM     11  C   UNL     1      21.119   9.821  36.698  0.00  0.00    +0.000 A 
ATOM     12  C   UNL     1      22.402  10.347  36.651  0.00  0.00    +0.000 A 
ATOM     13  C   UNL     1      23.442   9.867  35.677  0.00  0.00    +0.000 C 
ATOM     14  C   UNL     1      24.431   9.337  36.719  0.00  0.00    +0.000 C 
ATOM     15  C   UNL     1      25.271  10.543  37.302  0.00  0.00    +0.000 C 
ATOM     16  C   UNL     1      25.156  10.027  38.904  0.00  0.00    +0.000 C 
ATOM     17  C   UNL     1      26.201   8.817  38.696  0.00  0.00    +0.000 C 
ATOM     18  C   UNL     1      27.299   9.556  38.028  0.00  0.00    +0.000 C 
ATOM     19  C   UNL     1      27.610  10.302  39.504  0.00  0.00    +0.000 C 
ATOM     20  O   UNL     1      28.413  11.423  38.839  0.00  0.00    +0.000 OA
ENDROOT
BRANCH   4  21
ATOM     21  C   UNL     1      24.450  13.983  38.425  0.00  0.00    +0.000 C 
ATOM     22 CL   UNL     1      26.038  14.666  38.344  0.00  0.00    +0.000 Cl
ENDBRANCH   4  21
TORSDOF 1
ENDMDL
MODEL 10
REMARK VINA RESULT:      -6.1     20.170     22.558
REMARK  Name = 
REMARK  1 active torsions:
REMARK  status: ('A' for Active; 'I' for Inactive)
REMARK    1  A    between atoms: C_4  and  C_5
REMARK                            x       y       z     vdW  Elec       q    Type
REMARK                         _______ _______ _______ _____ _____    ______ ____
ROOT
ATOM      1  C   UNL     1      20.329  12.426  39.195  0.00  0.00    +0.000 C 
ATOM      2  C   UNL     1      20.611  11.057  38.624  0.00  0.00    +0.000 C 
ATOM      3  C   UNL     1      19.823  10.569  37.570  0.00  0.00    +0.000 C 
ATOM      4  C   UNL     1      18.447  10.467  38.422  0.00  0.00    +0.000 C 
ATOM      5  C   UNL     1      18.581   8.807  38.661  0.00  0.00    +0.000 C 
ATOM      6  C   UNL     1      17.763   8.679  39.914  0.00  0.00    +0.000 A 
ATOM      7  C   UNL     1      16.800   9.559  40.278  0.00  0.00    +0.000 A 
ATOM      8  C   UNL     1      16.054   9.352  41.467  0.00  0.00    +0.000 A 
ATOM      9  C   UNL     1      16.301   8.261  42.259  0.00  0.00    +0.000 A 
ATOM     10  O   UNL     1      15.558   8.052  43.444  0.00  0.00    +0.000 OA
ATOM     11  C   UNL     1      17.281   7.370  41.887  0.00  0.00    +0.000 A 
ATOM     12  C   UNL     1      17.988   7.608  40.717  0.00  0.00    +0.000 A 
ATOM     13  C   UNL     1      19.092   6.707  40.236  0.00  0.00    +0.000 C 
ATOM     14  C   UNL     1      20.217   7.742  40.323  0.00  0.00    +0.000 C 
ATOM     15  C   UNL     1      20.171   8.671  39.044  0.00  0.00    +0.000 C 
ATOM     16  C   UNL     1      20.415  10.101  39.907  0.00  0.00    +0.000 C 
ATOM     17  C   UNL     1      21.975   9.792  40.176  0.00  0.00    +0.000 C 
ATOM     18  C   UNL     1      22.396   9.447  38.797  0.00  0.00    +0.000 C 
ATOM     19  C   UNL     1      22.219  11.074  38.404  0.00  0.00    +0.000 C 
ATOM     20  O   UNL     1      22.175  10.771  36.904  0.00  0.00    +0.000 OA
ENDROOT
BRANCH   4  21
ATOM     21  C   UNL     1      17.464  10.358  37.150  0.00  0.00    +0.000 C 
ATOM     22 CL   UNL     1      18.023   9.166  36.027  0.00  0.00    +0.000 Cl
ENDBRANCH   4  21
TORSDOF 1
ENDMDL
