MODEL 1
REMARK VINA RESULT:      -7.7      0.000      0.000
REMARK  Name = 
REMARK  8 active torsions:
REMARK  status: ('A' for Active; 'I' for Inactive)
REMARK    1  A    between atoms: O_2  and  C_3
REMARK    2  A    between atoms: C_6  and  O_7
REMARK    3  A    between atoms: C_9  and  N_10
REMARK    4  A    between atoms: C_11  and  C_13
REMARK    5  A    between atoms: C_13  and  S_14
REMARK    6  A    between atoms: S_14  and  C_15
REMARK    7  A    between atoms: C_24  and  C_25
REMARK    8  A    between atoms: C_25  and  C_26
REMARK                            x       y       z     vdW  Elec       q    Type
REMARK                         _______ _______ _______ _____ _____    ______ ____
ROOT
ATOM      1  C   UNL     1      37.781   3.400  15.988  0.00  0.00    +0.000 A 
ATOM      2  N   UNL     1      37.860   3.938  17.211  0.00  0.00    +0.000 NA
ATOM      3  C   UNL     1      38.812   4.844  17.509  0.00  0.00    +0.000 A 
ATOM      4  C   UNL     1      38.871   5.385  18.780  0.00  0.00    +0.000 A 
ATOM      5  C   UNL     1      39.835   6.304  19.087  0.00  0.00    +0.000 A 
ATOM      6  C   UNL     1      40.745   6.678  18.105  0.00  0.00    +0.000 A 
ATOM      7  C   UNL     1      40.680   6.135  16.840  0.00  0.00    +0.000 A 
ATOM      8  C   UNL     1      39.697   5.192  16.512  0.00  0.00    +0.000 A 
ATOM      9  C   UNL     1      39.657   4.665  15.236  0.00  0.00    +0.000 A 
ATOM     10  C   UNL     1      38.654   3.736  14.989  0.00  0.00    +0.000 A 
ENDROOT
BRANCH   1  11
ATOM     11  S   UNL     1      36.492   2.221  15.640  0.00  0.00    +0.000 S 
BRANCH  11  12
ATOM     12  C   UNL     1      35.881   1.615  17.236  0.00  0.00    +0.000 C 
BRANCH  12  14
ATOM     13  N   UNL     1      37.418  -0.296  16.950  0.00  0.00    +0.000 NA
ATOM     14  C   UNL     1      36.187   0.198  17.456  0.00  0.00    +0.000 C 
ATOM     15  O   UNL     1      35.352  -0.508  18.077  0.00  0.00    +0.000 OA
BRANCH  13  20
ATOM     16  C   UNL     1      38.498  -3.525  18.490  0.00  0.00    +0.000 A 
ATOM     17  C   UNL     1      38.291  -4.412  17.452  0.00  0.00    +0.000 A 
ATOM     18  C   UNL     1      37.795  -3.892  16.274  0.00  0.00    +0.000 A 
ATOM     19  C   UNL     1      37.514  -2.554  16.122  0.00  0.00    +0.000 A 
ATOM     20  C   UNL     1      37.722  -1.668  17.161  0.00  0.00    +0.000 A 
ATOM     21  C   UNL     1      38.217  -2.186  18.339  0.00  0.00    +0.000 A 
BRANCH  16  23
ATOM     22  C   UNL     1      39.144  -5.377  19.951  0.00  0.00    +0.000 C 
ATOM     23  O   UNL     1      38.994  -3.993  19.700  0.00  0.00    +0.000 OA
ENDBRANCH  16  23
BRANCH  19  24
ATOM     24  O   UNL     1      37.019  -2.073  14.921  0.00  0.00    +0.000 OA
ATOM     25  C   UNL     1      37.813  -2.050  13.752  0.00  0.00    +0.000 C 
ENDBRANCH  19  24
ENDBRANCH  13  20
ENDBRANCH  12  14
ENDBRANCH  11  12
ENDBRANCH   1  11
BRANCH  10  26
ATOM     26  C   UNL     1      38.515   3.091  13.672  0.00  0.00    +0.000 C 
BRANCH  26  27
ATOM     27  C   UNL     1      39.639   2.163  13.481  0.00  0.00    +0.000 A 
ATOM     28  C   UNL     1      40.533   2.318  12.442  0.00  0.00    +0.000 A 
ATOM     29  C   UNL     1      41.589   1.444  12.251  0.00  0.00    +0.000 A 
ATOM     30  C   UNL     1      41.784   0.382  13.100  0.00  0.00    +0.000 A 
ATOM     31  C   UNL     1      40.904   0.211  14.141  0.00  0.00    +0.000 A 
ATOM     32  C   UNL     1      39.857   1.096  14.311  0.00  0.00    +0.000 A 
ENDBRANCH  26  27
ENDBRANCH  10  26
TORSDOF 8
ENDMDL
MODEL 2
REMARK VINA RESULT:      -7.6      3.182      8.028
REMARK  Name = 
REMARK  8 active torsions:
REMARK  status: ('A' for Active; 'I' for Inactive)
REMARK    1  A    between atoms: O_2  and  C_3
REMARK    2  A    between atoms: C_6  and  O_7
REMARK    3  A    between atoms: C_9  and  N_10
REMARK    4  A    between atoms: C_11  and  C_13
REMARK    5  A    between atoms: C_13  and  S_14
REMARK    6  A    between atoms: S_14  and  C_15
REMARK    7  A    between atoms: C_24  and  C_25
REMARK    8  A    between atoms: C_25  and  C_26
REMARK                            x       y       z     vdW  Elec       q    Type
REMARK                         _______ _______ _______ _____ _____    ______ ____
ROOT
ATOM      1  C   UNL     1      38.418   1.549  14.435  0.00  0.00    +0.000 A 
ATOM      2  N   UNL     1      39.736   1.442  14.221  0.00  0.00    +0.000 NA
ATOM      3  C   UNL     1      40.359   0.252  14.327  0.00  0.00    +0.000 A 
ATOM      4  C   UNL     1      41.721   0.168  14.101  0.00  0.00    +0.000 A 
ATOM      5  C   UNL     1      42.357  -1.037  14.206  0.00  0.00    +0.000 A 
ATOM      6  C   UNL     1      41.614  -2.163  14.542  0.00  0.00    +0.000 A 
ATOM      7  C   UNL     1      40.258  -2.073  14.766  0.00  0.00    +0.000 A 
ATOM      8  C   UNL     1      39.593  -0.844  14.661  0.00  0.00    +0.000 A 
ATOM      9  C   UNL     1      38.232  -0.784  14.890  0.00  0.00    +0.000 A 
ATOM     10  C   UNL     1      37.646   0.470  14.768  0.00  0.00    +0.000 A 
ENDROOT
BRANCH   1  11
ATOM     11  S   UNL     1      37.640   3.142  14.265  0.00  0.00    +0.000 S 
BRANCH  11  12
ATOM     12  C   UNL     1      38.917   4.393  14.566  0.00  0.00    +0.000 C 
BRANCH  12  14
ATOM     13  N   UNL     1      39.584   6.049  16.272  0.00  0.00    +0.000 NA
ATOM     14  C   UNL     1      38.998   4.790  15.975  0.00  0.00    +0.000 C 
ATOM     15  O   UNL     1      38.550   4.003  16.848  0.00  0.00    +0.000 OA
BRANCH  13  20
ATOM     16  C   UNL     1      40.695   6.462  19.815  0.00  0.00    +0.000 A 
ATOM     17  C   UNL     1      39.707   7.283  20.323  0.00  0.00    +0.000 A 
ATOM     18  C   UNL     1      38.705   7.668  19.456  0.00  0.00    +0.000 A 
ATOM     19  C   UNL     1      38.675   7.262  18.142  0.00  0.00    +0.000 A 
ATOM     20  C   UNL     1      39.664   6.441  17.636  0.00  0.00    +0.000 A 
ATOM     21  C   UNL     1      40.666   6.056  18.501  0.00  0.00    +0.000 A 
BRANCH  16  23
ATOM     22  C   UNL     1      42.767   6.926  21.030  0.00  0.00    +0.000 C 
ATOM     23  O   UNL     1      41.729   6.045  20.644  0.00  0.00    +0.000 OA
ENDBRANCH  16  23
BRANCH  19  24
ATOM     24  O   UNL     1      37.650   7.670  17.305  0.00  0.00    +0.000 OA
ATOM     25  C   UNL     1      37.533   9.013  16.883  0.00  0.00    +0.000 C 
ENDBRANCH  19  24
ENDBRANCH  13  20
ENDBRANCH  12  14
ENDBRANCH  11  12
ENDBRANCH   1  11
BRANCH  10  26
ATOM     26  C   UNL     1      36.205   0.668  15.002  0.00  0.00    +0.000 C 
BRANCH  26  27
ATOM     27  C   UNL     1      35.884   0.223  16.366  0.00  0.00    +0.000 A 
ATOM     28  C   UNL     1      35.129  -0.908  16.597  0.00  0.00    +0.000 A 
ATOM     29  C   UNL     1      34.816  -1.328  17.878  0.00  0.00    +0.000 A 
ATOM     30  C   UNL     1      35.253  -0.624  18.974  0.00  0.00    +0.000 A 
ATOM     31  C   UNL     1      36.007   0.505  18.764  0.00  0.00    +0.000 A 
ATOM     32  C   UNL     1      36.306   0.905  17.477  0.00  0.00    +0.000 A 
ENDBRANCH  26  27
ENDBRANCH  10  26
TORSDOF 8
ENDMDL
MODEL 3
REMARK VINA RESULT:      -7.6      2.871      7.779
REMARK  Name = 
REMARK  8 active torsions:
REMARK  status: ('A' for Active; 'I' for Inactive)
REMARK    1  A    between atoms: O_2  and  C_3
REMARK    2  A    between atoms: C_6  and  O_7
REMARK    3  A    between atoms: C_9  and  N_10
REMARK    4  A    between atoms: C_11  and  C_13
REMARK    5  A    between atoms: C_13  and  S_14
REMARK    6  A    between atoms: S_14  and  C_15
REMARK    7  A    between atoms: C_24  and  C_25
REMARK    8  A    between atoms: C_25  and  C_26
REMARK                            x       y       z     vdW  Elec       q    Type
REMARK                         _______ _______ _______ _____ _____    ______ ____
ROOT
ATOM      1  C   UNL     1      37.636  -0.986  16.267  0.00  0.00    +0.000 A 
ATOM      2  N   UNL     1      38.574  -0.326  15.577  0.00  0.00    +0.000 NA
ATOM      3  C   UNL     1      39.665  -0.963  15.109  0.00  0.00    +0.000 A 
ATOM      4  C   UNL     1      40.619  -0.258  14.398  0.00  0.00    +0.000 A 
ATOM      5  C   UNL     1      41.728  -0.900  13.922  0.00  0.00    +0.000 A 
ATOM      6  C   UNL     1      41.874  -2.261  14.164  0.00  0.00    +0.000 A 
ATOM      7  C   UNL     1      40.919  -2.957  14.873  0.00  0.00    +0.000 A 
ATOM      8  C   UNL     1      39.778  -2.312  15.367  0.00  0.00    +0.000 A 
ATOM      9  C   UNL     1      38.838  -3.036  16.073  0.00  0.00    +0.000 A 
ATOM     10  C   UNL     1      37.735  -2.325  16.531  0.00  0.00    +0.000 A 
ENDROOT
BRANCH   1  11
ATOM     11  S   UNL     1      36.203  -0.102  16.848  0.00  0.00    +0.000 S 
BRANCH  11  12
ATOM     12  C   UNL     1      35.844   1.190  15.626  0.00  0.00    +0.000 C 
BRANCH  12  14
ATOM     13  N   UNL     1      37.579   2.908  15.990  0.00  0.00    +0.000 NA
ATOM     14  C   UNL     1      36.215   2.529  16.095  0.00  0.00    +0.000 C 
ATOM     15  O   UNL     1      35.315   3.272  16.564  0.00  0.00    +0.000 OA
BRANCH  13  20
ATOM     16  C   UNL     1      38.759   5.765  18.091  0.00  0.00    +0.000 A 
ATOM     17  C   UNL     1      38.634   6.825  17.215  0.00  0.00    +0.000 A 
ATOM     18  C   UNL     1      38.160   6.540  15.950  0.00  0.00    +0.000 A 
ATOM     19  C   UNL     1      37.821   5.264  15.563  0.00  0.00    +0.000 A 
ATOM     20  C   UNL     1      37.946   4.205  16.441  0.00  0.00    +0.000 A 
ATOM     21  C   UNL     1      38.421   4.488  17.704  0.00  0.00    +0.000 A 
BRANCH  16  23
ATOM     22  C   UNL     1      39.213   7.285  19.952  0.00  0.00    +0.000 C 
ATOM     23  O   UNL     1      39.233   5.993  19.376  0.00  0.00    +0.000 OA
ENDBRANCH  16  23
BRANCH  19  24
ATOM     24  O   UNL     1      37.347   5.022  14.284  0.00  0.00    +0.000 OA
ATOM     25  C   UNL     1      36.077   5.484  13.869  0.00  0.00    +0.000 C 
ENDBRANCH  19  24
ENDBRANCH  13  20
ENDBRANCH  12  14
ENDBRANCH  11  12
ENDBRANCH   1  11
BRANCH  10  26
ATOM     26  C   UNL     1      36.671  -2.980  17.310  0.00  0.00    +0.000 C 
BRANCH  26  27
ATOM     27  C   UNL     1      35.885  -3.836  16.408  0.00  0.00    +0.000 A 
ATOM     28  C   UNL     1      34.959  -3.305  15.535  0.00  0.00    +0.000 A 
ATOM     29  C   UNL     1      34.210  -4.104  14.690  0.00  0.00    +0.000 A 
ATOM     30  C   UNL     1      34.368  -5.469  14.692  0.00  0.00    +0.000 A 
ATOM     31  C   UNL     1      35.286  -6.017  15.555  0.00  0.00    +0.000 A 
ATOM     32  C   UNL     1      36.021  -5.199  16.390  0.00  0.00    +0.000 A 
ENDBRANCH  26  27
ENDBRANCH  10  26
TORSDOF 8
ENDMDL
MODEL 4
REMARK VINA RESULT:      -7.6      3.222      7.636
REMARK  Name = 
REMARK  8 active torsions:
REMARK  status: ('A' for Active; 'I' for Inactive)
REMARK    1  A    between atoms: O_2  and  C_3
REMARK    2  A    between atoms: C_6  and  O_7
REMARK    3  A    between atoms: C_9  and  N_10
REMARK    4  A    between atoms: C_11  and  C_13
REMARK    5  A    between atoms: C_13  and  S_14
REMARK    6  A    between atoms: S_14  and  C_15
REMARK    7  A    between atoms: C_24  and  C_25
REMARK    8  A    between atoms: C_25  and  C_26
REMARK                            x       y       z     vdW  Elec       q    Type
REMARK                         _______ _______ _______ _____ _____    ______ ____
ROOT
ATOM      1  C   UNL     1      37.591   1.372  15.163  0.00  0.00    +0.000 A 
ATOM      2  N   UNL     1      36.710   1.284  16.167  0.00  0.00    +0.000 NA
ATOM      3  C   UNL     1      36.018   0.148  16.382  0.00  0.00    +0.000 A 
ATOM      4  C   UNL     1      35.114   0.083  17.427  0.00  0.00    +0.000 A 
ATOM      5  C   UNL     1      34.410  -1.067  17.649  0.00  0.00    +0.000 A 
ATOM      6  C   UNL     1      34.619  -2.157  16.812  0.00  0.00    +0.000 A 
ATOM      7  C   UNL     1      35.521  -2.085  15.773  0.00  0.00    +0.000 A 
ATOM      8  C   UNL     1      36.250  -0.913  15.533  0.00  0.00    +0.000 A 
ATOM      9  C   UNL     1      37.148  -0.870  14.485  0.00  0.00    +0.000 A 
ATOM     10  C   UNL     1      37.831   0.327  14.313  0.00  0.00    +0.000 A 
ENDROOT
BRANCH   1  11
ATOM     11  S   UNL     1      38.495   2.889  14.932  0.00  0.00    +0.000 S 
BRANCH  11  12
ATOM     12  C   UNL     1      37.579   4.191  15.801  0.00  0.00    +0.000 C 
BRANCH  12  14
ATOM     13  N   UNL     1      38.844   5.959  16.971  0.00  0.00    +0.000 NA
ATOM     14  C   UNL     1      38.271   4.660  17.005  0.00  0.00    +0.000 C 
ATOM     15  O   UNL     1      38.325   3.897  18.003  0.00  0.00    +0.000 OA
BRANCH  13  20
ATOM     16  C   UNL     1      41.422   6.586  19.603  0.00  0.00    +0.000 A 
ATOM     17  C   UNL     1      40.732   7.399  20.481  0.00  0.00    +0.000 A 
ATOM     18  C   UNL     1      39.427   7.707  20.155  0.00  0.00    +0.000 A 
ATOM     19  C   UNL     1      38.824   7.234  19.012  0.00  0.00    +0.000 A 
ATOM     20  C   UNL     1      39.516   6.422  18.135  0.00  0.00    +0.000 A 
ATOM     21  C   UNL     1      40.820   6.114  18.459  0.00  0.00    +0.000 A 
BRANCH  16  23
ATOM     22  C   UNL     1      43.234   6.223  21.205  0.00  0.00    +0.000 C 
ATOM     23  O   UNL     1      42.740   6.245  19.879  0.00  0.00    +0.000 OA
ENDBRANCH  16  23
BRANCH  19  24
ATOM     24  O   UNL     1      37.510   7.566  18.724  0.00  0.00    +0.000 OA
ATOM     25  C   UNL     1      36.871   8.658  19.352  0.00  0.00    +0.000 C 
ENDBRANCH  19  24
ENDBRANCH  13  20
ENDBRANCH  12  14
ENDBRANCH  11  12
ENDBRANCH   1  11
BRANCH  10  26
ATOM     26  C   UNL     1      38.804   0.503  13.221  0.00  0.00    +0.000 C 
BRANCH  26  27
ATOM     27  C   UNL     1      39.814  -0.561  13.313  0.00  0.00    +0.000 A 
ATOM     28  C   UNL     1      40.727  -0.602  14.346  0.00  0.00    +0.000 A 
ATOM     29  C   UNL     1      41.686  -1.595  14.435  0.00  0.00    +0.000 A 
ATOM     30  C   UNL     1      41.760  -2.586  13.487  0.00  0.00    +0.000 A 
ATOM     31  C   UNL     1      40.859  -2.563  12.450  0.00  0.00    +0.000 A 
ATOM     32  C   UNL     1      39.911  -1.561  12.382  0.00  0.00    +0.000 A 
ENDBRANCH  26  27
ENDBRANCH  10  26
TORSDOF 8
ENDMDL
MODEL 5
REMARK VINA RESULT:      -7.5      2.640      6.949
REMARK  Name = 
REMARK  8 active torsions:
REMARK  status: ('A' for Active; 'I' for Inactive)
REMARK    1  A    between atoms: O_2  and  C_3
REMARK    2  A    between atoms: C_6  and  O_7
REMARK    3  A    between atoms: C_9  and  N_10
REMARK    4  A    between atoms: C_11  and  C_13
REMARK    5  A    between atoms: C_13  and  S_14
REMARK    6  A    between atoms: S_14  and  C_15
REMARK    7  A    between atoms: C_24  and  C_25
REMARK    8  A    between atoms: C_25  and  C_26
REMARK                            x       y       z     vdW  Elec       q    Type
REMARK                         _______ _______ _______ _____ _____    ______ ____
ROOT
ATOM      1  C   UNL     1      37.781  -0.736  15.494  0.00  0.00    +0.000 A 
ATOM      2  N   UNL     1      37.163  -0.582  16.671  0.00  0.00    +0.000 NA
ATOM      3  C   UNL     1      37.477  -1.361  17.725  0.00  0.00    +0.000 A 
ATOM      4  C   UNL     1      36.823  -1.181  18.931  0.00  0.00    +0.000 A 
ATOM      5  C   UNL     1      37.138  -1.969  20.002  0.00  0.00    +0.000 A 
ATOM      6  C   UNL     1      38.118  -2.944  19.855  0.00  0.00    +0.000 A 
ATOM      7  C   UNL     1      38.765  -3.118  18.651  0.00  0.00    +0.000 A 
ATOM      8  C   UNL     1      38.452  -2.318  17.545  0.00  0.00    +0.000 A 
ATOM      9  C   UNL     1      39.118  -2.515  16.351  0.00  0.00    +0.000 A 
ATOM     10  C   UNL     1      38.751  -1.682  15.301  0.00  0.00    +0.000 A 
ENDROOT
BRANCH   1  11
ATOM     11  S   UNL     1      37.343   0.332  14.138  0.00  0.00    +0.000 S 
BRANCH  11  12
ATOM     12  C   UNL     1      36.663   1.852  14.856  0.00  0.00    +0.000 C 
BRANCH  12  14
ATOM     13  N   UNL     1      37.298   4.006  15.881  0.00  0.00    +0.000 NA
ATOM     14  C   UNL     1      37.702   2.733  15.400  0.00  0.00    +0.000 C 
ATOM     15  O   UNL     1      38.890   2.323  15.413  0.00  0.00    +0.000 OA
BRANCH  13  20
ATOM     16  C   UNL     1      39.626   5.779  18.205  0.00  0.00    +0.000 A 
ATOM     17  C   UNL     1      40.300   6.617  17.339  0.00  0.00    +0.000 A 
ATOM     18  C   UNL     1      39.948   6.554  16.006  0.00  0.00    +0.000 A 
ATOM     19  C   UNL     1      38.972   5.702  15.544  0.00  0.00    +0.000 A 
ATOM     20  C   UNL     1      38.299   4.865  16.412  0.00  0.00    +0.000 A 
ATOM     21  C   UNL     1      38.650   4.926  17.744  0.00  0.00    +0.000 A 
BRANCH  16  23
ATOM     22  C   UNL     1      41.063   6.508  20.046  0.00  0.00    +0.000 C 
ATOM     23  O   UNL     1      39.940   5.799  19.558  0.00  0.00    +0.000 OA
ENDBRANCH  16  23
BRANCH  19  24
ATOM     24  O   UNL     1      38.649   5.672  14.197  0.00  0.00    +0.000 OA
ATOM     25  C   UNL     1      39.550   5.166  13.233  0.00  0.00    +0.000 C 
ENDBRANCH  19  24
ENDBRANCH  13  20
ENDBRANCH  12  14
ENDBRANCH  11  12
ENDBRANCH   1  11
BRANCH  10  26
ATOM     26  C   UNL     1      39.376  -1.804  13.973  0.00  0.00    +0.000 C 
BRANCH  26  27
ATOM     27  C   UNL     1      40.769  -1.343  14.064  0.00  0.00    +0.000 A 
ATOM     28  C   UNL     1      41.102  -0.014  13.903  0.00  0.00    +0.000 A 
ATOM     29  C   UNL     1      42.411   0.425  13.979  0.00  0.00    +0.000 A 
ATOM     30  C   UNL     1      43.436  -0.458  14.220  0.00  0.00    +0.000 A 
ATOM     31  C   UNL     1      43.124  -1.786  14.383  0.00  0.00    +0.000 A 
ATOM     32  C   UNL     1      41.810  -2.201  14.303  0.00  0.00    +0.000 A 
ENDBRANCH  26  27
ENDBRANCH  10  26
TORSDOF 8
ENDMDL
MODEL 6
REMARK VINA RESULT:      -7.4      2.329      4.490
REMARK  Name = 
REMARK  8 active torsions:
REMARK  status: ('A' for Active; 'I' for Inactive)
REMARK    1  A    between atoms: O_2  and  C_3
REMARK    2  A    between atoms: C_6  and  O_7
REMARK    3  A    between atoms: C_9  and  N_10
REMARK    4  A    between atoms: C_11  and  C_13
REMARK    5  A    between atoms: C_13  and  S_14
REMARK    6  A    between atoms: S_14  and  C_15
REMARK    7  A    between atoms: C_24  and  C_25
REMARK    8  A    between atoms: C_25  and  C_26
REMARK                            x       y       z     vdW  Elec       q    Type
REMARK                         _______ _______ _______ _____ _____    ______ ____
ROOT
ATOM      1  C   UNL     1      37.997   4.275  14.299  0.00  0.00    +0.000 A 
ATOM      2  N   UNL     1      39.122   4.887  14.691  0.00  0.00    +0.000 NA
ATOM      3  C   UNL     1      39.339   5.171  15.990  0.00  0.00    +0.000 A 
ATOM      4  C   UNL     1      40.509   5.804  16.368  0.00  0.00    +0.000 A 
ATOM      5  C   UNL     1      40.733   6.094  17.684  0.00  0.00    +0.000 A 
ATOM      6  C   UNL     1      39.770   5.744  18.624  0.00  0.00    +0.000 A 
ATOM      7  C   UNL     1      38.607   5.114  18.240  0.00  0.00    +0.000 A 
ATOM      8  C   UNL     1      38.364   4.810  16.895  0.00  0.00    +0.000 A 
ATOM      9  C   UNL     1      37.188   4.178  16.540  0.00  0.00    +0.000 A 
ATOM     10  C   UNL     1      37.022   3.912  15.186  0.00  0.00    +0.000 A 
ENDROOT
BRANCH   1  11
ATOM     11  S   UNL     1      37.767   3.905  12.572  0.00  0.00    +0.000 S 
BRANCH  11  12
ATOM     12  C   UNL     1      39.258   3.037  12.011  0.00  0.00    +0.000 C 
BRANCH  12  14
ATOM     13  N   UNL     1      40.280   1.388  13.539  0.00  0.00    +0.000 NA
ATOM     14  C   UNL     1      39.334   1.662  12.516  0.00  0.00    +0.000 C 
ATOM     15  O   UNL     1      38.565   0.798  12.023  0.00  0.00    +0.000 OA
BRANCH  13  20
ATOM     16  C   UNL     1      39.702  -1.738  15.503  0.00  0.00    +0.000 A 
ATOM     17  C   UNL     1      40.613  -2.601  14.928  0.00  0.00    +0.000 A 
ATOM     18  C   UNL     1      41.387  -2.102  13.900  0.00  0.00    +0.000 A 
ATOM     19  C   UNL     1      41.270  -0.805  13.456  0.00  0.00    +0.000 A 
ATOM     20  C   UNL     1      40.358   0.057  14.034  0.00  0.00    +0.000 A 
ATOM     21  C   UNL     1      39.584  -0.441  15.060  0.00  0.00    +0.000 A 
BRANCH  16  23
ATOM     22  C   UNL     1      38.980  -3.517  17.019  0.00  0.00    +0.000 C 
ATOM     23  O   UNL     1      38.896  -2.188  16.541  0.00  0.00    +0.000 OA
ENDBRANCH  16  23
BRANCH  19  24
ATOM     24  O   UNL     1      42.067  -0.343  12.423  0.00  0.00    +0.000 OA
ATOM     25  C   UNL     1      41.986  -0.895  11.124  0.00  0.00    +0.000 C 
ENDBRANCH  19  24
ENDBRANCH  13  20
ENDBRANCH  12  14
ENDBRANCH  11  12
ENDBRANCH   1  11
BRANCH  10  26
ATOM     26  C   UNL     1      35.804   3.255  14.680  0.00  0.00    +0.000 C 
BRANCH  26  27
ATOM     27  C   UNL     1      35.666   1.947  15.337  0.00  0.00    +0.000 A 
ATOM     28  C   UNL     1      34.956   1.800  16.511  0.00  0.00    +0.000 A 
ATOM     29  C   UNL     1      34.828   0.574  17.138  0.00  0.00    +0.000 A 
ATOM     30  C   UNL     1      35.411  -0.551  16.607  0.00  0.00    +0.000 A 
ATOM     31  C   UNL     1      36.122  -0.425  15.438  0.00  0.00    +0.000 A 
ATOM     32  C   UNL     1      36.236   0.810  14.829  0.00  0.00    +0.000 A 
ENDBRANCH  26  27
ENDBRANCH  10  26
TORSDOF 8
ENDMDL
MODEL 7
REMARK VINA RESULT:      -7.3      2.511      5.905
REMARK  Name = 
REMARK  8 active torsions:
REMARK  status: ('A' for Active; 'I' for Inactive)
REMARK    1  A    between atoms: O_2  and  C_3
REMARK    2  A    between atoms: C_6  and  O_7
REMARK    3  A    between atoms: C_9  and  N_10
REMARK    4  A    between atoms: C_11  and  C_13
REMARK    5  A    between atoms: C_13  and  S_14
REMARK    6  A    between atoms: S_14  and  C_15
REMARK    7  A    between atoms: C_24  and  C_25
REMARK    8  A    between atoms: C_25  and  C_26
REMARK                            x       y       z     vdW  Elec       q    Type
REMARK                         _______ _______ _______ _____ _____    ______ ____
ROOT
ATOM      1  C   UNL     1      39.716   5.474  16.429  0.00  0.00    +0.000 A 
ATOM      2  N   UNL     1      40.529   5.601  15.374  0.00  0.00    +0.000 NA
ATOM      3  C   UNL     1      41.776   6.091  15.515  0.00  0.00    +0.000 A 
ATOM      4  C   UNL     1      42.597   6.211  14.409  0.00  0.00    +0.000 A 
ATOM      5  C   UNL     1      43.862   6.707  14.548  0.00  0.00    +0.000 A 
ATOM      6  C   UNL     1      44.302   7.085  15.812  0.00  0.00    +0.000 A 
ATOM      7  C   UNL     1      43.479   6.963  16.910  0.00  0.00    +0.000 A 
ATOM      8  C   UNL     1      42.180   6.455  16.782  0.00  0.00    +0.000 A 
ATOM      9  C   UNL     1      41.378   6.344  17.901  0.00  0.00    +0.000 A 
ATOM     10  C   UNL     1      40.103   5.833  17.692  0.00  0.00    +0.000 A 
ENDROOT
BRANCH   1  11
ATOM     11  S   UNL     1      38.083   4.804  16.191  0.00  0.00    +0.000 S 
BRANCH  11  12
ATOM     12  C   UNL     1      38.116   3.863  14.641  0.00  0.00    +0.000 C 
BRANCH  12  14
ATOM     13  N   UNL     1      37.136   1.610  14.891  0.00  0.00    +0.000 NA
ATOM     14  C   UNL     1      38.299   2.424  14.858  0.00  0.00    +0.000 C 
ATOM     15  O   UNL     1      39.468   1.983  15.003  0.00  0.00    +0.000 OA
BRANCH  13  20
ATOM     16  C   UNL     1      37.860  -2.020  14.382  0.00  0.00    +0.000 A 
ATOM     17  C   UNL     1      37.602  -2.535  15.638  0.00  0.00    +0.000 A 
ATOM     18  C   UNL     1      37.196  -1.643  16.609  0.00  0.00    +0.000 A 
ATOM     19  C   UNL     1      37.049  -0.298  16.356  0.00  0.00    +0.000 A 
ATOM     20  C   UNL     1      37.307   0.214  15.099  0.00  0.00    +0.000 A 
ATOM     21  C   UNL     1      37.714  -0.677  14.128  0.00  0.00    +0.000 A 
BRANCH  16  23
ATOM     22  C   UNL     1      39.254  -2.480  12.426  0.00  0.00    +0.000 C 
ATOM     23  O   UNL     1      38.273  -2.873  13.366  0.00  0.00    +0.000 OA
ENDBRANCH  16  23
BRANCH  19  24
ATOM     24  O   UNL     1      36.637   0.563  17.359  0.00  0.00    +0.000 OA
ATOM     25  C   UNL     1      35.953   0.091  18.502  0.00  0.00    +0.000 C 
ENDBRANCH  19  24
ENDBRANCH  13  20
ENDBRANCH  12  14
ENDBRANCH  11  12
ENDBRANCH   1  11
BRANCH  10  26
ATOM     26  C   UNL     1      39.148   5.679  18.802  0.00  0.00    +0.000 C 
BRANCH  26  27
ATOM     27  C   UNL     1      38.731   7.015  19.254  0.00  0.00    +0.000 A 
ATOM     28  C   UNL     1      39.229   7.572  20.414  0.00  0.00    +0.000 A 
ATOM     29  C   UNL     1      38.835   8.825  20.849  0.00  0.00    +0.000 A 
ATOM     30  C   UNL     1      37.925   9.564  20.132  0.00  0.00    +0.000 A 
ATOM     31  C   UNL     1      37.418   9.026  18.974  0.00  0.00    +0.000 A 
ATOM     32  C   UNL     1      37.826   7.773  18.560  0.00  0.00    +0.000 A 
ENDBRANCH  26  27
ENDBRANCH  10  26
TORSDOF 8
ENDMDL
MODEL 8
REMARK VINA RESULT:      -7.3      2.777      4.682
REMARK  Name = 
REMARK  8 active torsions:
REMARK  status: ('A' for Active; 'I' for Inactive)
REMARK    1  A    between atoms: O_2  and  C_3
REMARK    2  A    between atoms: C_6  and  O_7
REMARK    3  A    between atoms: C_9  and  N_10
REMARK    4  A    between atoms: C_11  and  C_13
REMARK    5  A    between atoms: C_13  and  S_14
REMARK    6  A    between atoms: S_14  and  C_15
REMARK    7  A    between atoms: C_24  and  C_25
REMARK    8  A    between atoms: C_25  and  C_26
REMARK                            x       y       z     vdW  Elec       q    Type
REMARK                         _______ _______ _______ _____ _____    ______ ____
ROOT
ATOM      1  C   UNL     1      36.379   4.097  15.198  0.00  0.00    +0.000 A 
ATOM      2  N   UNL     1      35.257   4.632  14.702  0.00  0.00    +0.000 NA
ATOM      3  C   UNL     1      35.292   5.771  13.982  0.00  0.00    +0.000 A 
ATOM      4  C   UNL     1      34.119   6.303  13.481  0.00  0.00    +0.000 A 
ATOM      5  C   UNL     1      34.150   7.458  12.750  0.00  0.00    +0.000 A 
ATOM      6  C   UNL     1      35.374   8.078  12.525  0.00  0.00    +0.000 A 
ATOM      7  C   UNL     1      36.539   7.543  13.028  0.00  0.00    +0.000 A 
ATOM      8  C   UNL     1      36.522   6.360  13.778  0.00  0.00    +0.000 A 
ATOM      9  C   UNL     1      37.706   5.846  14.269  0.00  0.00    +0.000 A 
ATOM     10  C   UNL     1      37.605   4.671  15.003  0.00  0.00    +0.000 A 
ENDROOT
BRANCH   1  11
ATOM     11  S   UNL     1      36.280   2.581  16.127  0.00  0.00    +0.000 S 
BRANCH  11  12
ATOM     12  C   UNL     1      35.707   1.294  14.985  0.00  0.00    +0.000 C 
BRANCH  12  14
ATOM     13  N   UNL     1      37.871   0.259  15.574  0.00  0.00    +0.000 NA
ATOM     14  C   UNL     1      36.602   0.133  14.949  0.00  0.00    +0.000 C 
ATOM     15  O   UNL     1      36.208  -0.912  14.370  0.00  0.00    +0.000 OA
BRANCH  13  20
ATOM     16  C   UNL     1      39.503  -3.022  16.300  0.00  0.00    +0.000 A 
ATOM     17  C   UNL     1      40.542  -3.024  15.390  0.00  0.00    +0.000 A 
ATOM     18  C   UNL     1      40.654  -1.924  14.565  0.00  0.00    +0.000 A 
ATOM     19  C   UNL     1      39.781  -0.863  14.633  0.00  0.00    +0.000 A 
ATOM     20  C   UNL     1      38.743  -0.863  15.544  0.00  0.00    +0.000 A 
ATOM     21  C   UNL     1      38.629  -1.963  16.368  0.00  0.00    +0.000 A 
BRANCH  16  23
ATOM     22  C   UNL     1      38.147  -4.865  17.167  0.00  0.00    +0.000 C 
ATOM     23  O   UNL     1      39.341  -4.106  17.154  0.00  0.00    +0.000 OA
ENDBRANCH  16  23
BRANCH  19  24
ATOM     24  O   UNL     1      39.930   0.224  13.787  0.00  0.00    +0.000 OA
ATOM     25  C   UNL     1      41.183   0.852  13.608  0.00  0.00    +0.000 C 
ENDBRANCH  19  24
ENDBRANCH  13  20
ENDBRANCH  12  14
ENDBRANCH  11  12
ENDBRANCH   1  11
BRANCH  10  26
ATOM     26  C   UNL     1      38.795   4.033  15.593  0.00  0.00    +0.000 C 
BRANCH  26  27
ATOM     27  C   UNL     1      39.313   4.897  16.664  0.00  0.00    +0.000 A 
ATOM     28  C   UNL     1      38.765   4.885  17.929  0.00  0.00    +0.000 A 
ATOM     29  C   UNL     1      39.241   5.701  18.939  0.00  0.00    +0.000 A 
ATOM     30  C   UNL     1      40.289   6.561  18.712  0.00  0.00    +0.000 A 
ATOM     31  C   UNL     1      40.848   6.588  17.458  0.00  0.00    +0.000 A 
ATOM     32  C   UNL     1      40.355   5.763  16.465  0.00  0.00    +0.000 A 
ENDBRANCH  26  27
ENDBRANCH  10  26
TORSDOF 8
ENDMDL
MODEL 9
REMARK VINA RESULT:      -7.3      2.996      4.590
REMARK  Name = 
REMARK  8 active torsions:
REMARK  status: ('A' for Active; 'I' for Inactive)
REMARK    1  A    between atoms: O_2  and  C_3
REMARK    2  A    between atoms: C_6  and  O_7
REMARK    3  A    between atoms: C_9  and  N_10
REMARK    4  A    between atoms: C_11  and  C_13
REMARK    5  A    between atoms: C_13  and  S_14
REMARK    6  A    between atoms: S_14  and  C_15
REMARK    7  A    between atoms: C_24  and  C_25
REMARK    8  A    between atoms: C_25  and  C_26
REMARK                            x       y       z     vdW  Elec       q    Type
REMARK                         _______ _______ _______ _____ _____    ______ ____
ROOT
ATOM      1  C   UNL     1      36.308   4.519  14.524  0.00  0.00    +0.000 A 
ATOM      2  N   UNL     1      35.138   5.105  14.240  0.00  0.00    +0.000 NA
ATOM      3  C   UNL     1      35.036   6.446  14.162  0.00  0.00    +0.000 A 
ATOM      4  C   UNL     1      33.816   7.026  13.867  0.00  0.00    +0.000 A 
ATOM      5  C   UNL     1      33.708   8.386  13.786  0.00  0.00    +0.000 A 
ATOM      6  C   UNL     1      34.839   9.164  14.005  0.00  0.00    +0.000 A 
ATOM      7  C   UNL     1      36.051   8.580  14.298  0.00  0.00    +0.000 A 
ATOM      8  C   UNL     1      36.176   7.188  14.384  0.00  0.00    +0.000 A 
ATOM      9  C   UNL     1      37.405   6.630  14.680  0.00  0.00    +0.000 A 
ATOM     10  C   UNL     1      37.447   5.243  14.748  0.00  0.00    +0.000 A 
ENDROOT
BRANCH   1  11
ATOM     11  S   UNL     1      36.393   2.742  14.598  0.00  0.00    +0.000 S 
BRANCH  11  12
ATOM     12  C   UNL     1      35.938   2.257  16.286  0.00  0.00    +0.000 C 
BRANCH  12  14
ATOM     13  N   UNL     1      36.472  -0.049  15.584  0.00  0.00    +0.000 NA
ATOM     14  C   UNL     1      36.400   0.909  16.630  0.00  0.00    +0.000 C 
ATOM     15  O   UNL     1      36.707   0.666  17.824  0.00  0.00    +0.000 OA
BRANCH  13  20
ATOM     16  C   UNL     1      38.621  -3.040  16.215  0.00  0.00    +0.000 A 
ATOM     17  C   UNL     1      37.682  -3.987  16.573  0.00  0.00    +0.000 A 
ATOM     18  C   UNL     1      36.362  -3.585  16.590  0.00  0.00    +0.000 A 
ATOM     19  C   UNL     1      35.980  -2.303  16.268  0.00  0.00    +0.000 A 
ATOM     20  C   UNL     1      36.921  -1.358  15.910  0.00  0.00    +0.000 A 
ATOM     21  C   UNL     1      38.241  -1.758  15.893  0.00  0.00    +0.000 A 
BRANCH  16  23
ATOM     22  C   UNL     1      40.819  -2.944  15.144  0.00  0.00    +0.000 C 
ATOM     23  O   UNL     1      39.965  -3.389  16.181  0.00  0.00    +0.000 OA
ENDBRANCH  16  23
BRANCH  19  24
ATOM     24  O   UNL     1      34.644  -1.942  16.297  0.00  0.00    +0.000 OA
ATOM     25  C   UNL     1      33.965  -1.723  17.517  0.00  0.00    +0.000 C 
ENDBRANCH  19  24
ENDBRANCH  13  20
ENDBRANCH  12  14
ENDBRANCH  11  12
ENDBRANCH   1  11
BRANCH  10  26
ATOM     26  C   UNL     1      38.695   4.530  15.070  0.00  0.00    +0.000 C 
BRANCH  26  27
ATOM     27  C   UNL     1      39.222   5.051  16.340  0.00  0.00    +0.000 A 
ATOM     28  C   UNL     1      38.588   4.804  17.540  0.00  0.00    +0.000 A 
ATOM     29  C   UNL     1      39.074   5.298  18.737  0.00  0.00    +0.000 A 
ATOM     30  C   UNL     1      40.217   6.060  18.771  0.00  0.00    +0.000 A 
ATOM     31  C   UNL     1      40.862   6.317  17.586  0.00  0.00    +0.000 A 
ATOM     32  C   UNL     1      40.359   5.813  16.402  0.00  0.00    +0.000 A 
ENDBRANCH  26  27
ENDBRANCH  10  26
TORSDOF 8
ENDMDL
MODEL 10
REMARK VINA RESULT:      -7.3      3.006      8.104
REMARK  Name = 
REMARK  8 active torsions:
REMARK  status: ('A' for Active; 'I' for Inactive)
REMARK    1  A    between atoms: O_2  and  C_3
REMARK    2  A    between atoms: C_6  and  O_7
REMARK    3  A    between atoms: C_9  and  N_10
REMARK    4  A    between atoms: C_11  and  C_13
REMARK    5  A    between atoms: C_13  and  S_14
REMARK    6  A    between atoms: S_14  and  C_15
REMARK    7  A    between atoms: C_24  and  C_25
REMARK    8  A    between atoms: C_25  and  C_26
REMARK                            x       y       z     vdW  Elec       q    Type
REMARK                         _______ _______ _______ _____ _____    ______ ____
ROOT
ATOM      1  C   UNL     1      36.178  -1.811  16.672  0.00  0.00    +0.000 A 
ATOM      2  N   UNL     1      34.960  -2.223  16.296  0.00  0.00    +0.000 NA
ATOM      3  C   UNL     1      34.771  -3.461  15.801  0.00  0.00    +0.000 A 
ATOM      4  C   UNL     1      33.503  -3.861  15.420  0.00  0.00    +0.000 A 
ATOM      5  C   UNL     1      33.306  -5.117  14.918  0.00  0.00    +0.000 A 
ATOM      6  C   UNL     1      34.395  -5.973  14.799  0.00  0.00    +0.000 A 
ATOM      7  C   UNL     1      35.655  -5.568  15.181  0.00  0.00    +0.000 A 
ATOM      8  C   UNL     1      35.872  -4.284  15.697  0.00  0.00    +0.000 A 
ATOM      9  C   UNL     1      37.146  -3.906  16.072  0.00  0.00    +0.000 A 
ATOM     10  C   UNL     1      37.279  -2.617  16.574  0.00  0.00    +0.000 A 
ENDROOT
BRANCH   1  11
ATOM     11  S   UNL     1      36.372  -0.171  17.337  0.00  0.00    +0.000 S 
BRANCH  11  12
ATOM     12  C   UNL     1      36.374   0.976  15.933  0.00  0.00    +0.000 C 
BRANCH  12  14
ATOM     13  N   UNL     1      37.919   2.880  16.224  0.00  0.00    +0.000 NA
ATOM     14  C   UNL     1      36.600   2.367  16.339  0.00  0.00    +0.000 C 
ATOM     15  O   UNL     1      35.624   3.033  16.768  0.00  0.00    +0.000 OA
BRANCH  13  20
ATOM     16  C   UNL     1      38.732   5.942  18.206  0.00  0.00    +0.000 A 
ATOM     17  C   UNL     1      38.555   6.938  17.265  0.00  0.00    +0.000 A 
ATOM     18  C   UNL     1      38.171   6.544  16.000  0.00  0.00    +0.000 A 
ATOM     19  C   UNL     1      37.967   5.223  15.673  0.00  0.00    +0.000 A 
ATOM     20  C   UNL     1      38.144   4.228  16.615  0.00  0.00    +0.000 A 
ATOM     21  C   UNL     1      38.530   4.621  17.879  0.00  0.00    +0.000 A 
BRANCH  16  23
ATOM     22  C   UNL     1      39.799   7.493  19.768  0.00  0.00    +0.000 C 
ATOM     23  O   UNL     1      39.121   6.281  19.495  0.00  0.00    +0.000 OA
ENDBRANCH  16  23
BRANCH  19  24
ATOM     24  O   UNL     1      37.579   4.870  14.391  0.00  0.00    +0.000 OA
ATOM     25  C   UNL     1      36.294   5.187  13.895  0.00  0.00    +0.000 C 
ENDBRANCH  19  24
ENDBRANCH  13  20
ENDBRANCH  12  14
ENDBRANCH  11  12
ENDBRANCH   1  11
BRANCH  10  26
ATOM     26  C   UNL     1      38.589  -2.090  16.994  0.00  0.00    +0.000 C 
BRANCH  26  27
ATOM     27  C   UNL     1      39.419  -1.881  15.798  0.00  0.00    +0.000 A 
ATOM     28  C   UNL     1      40.352  -2.814  15.395  0.00  0.00    +0.000 A 
ATOM     29  C   UNL     1      41.142  -2.620  14.276  0.00  0.00    +0.000 A 
ATOM     30  C   UNL     1      41.020  -1.480  13.520  0.00  0.00    +0.000 A 
ATOM     31  C   UNL     1      40.096  -0.539  13.904  0.00  0.00    +0.000 A 
ATOM     32  C   UNL     1      39.319  -0.754  15.026  0.00  0.00    +0.000 A 
ENDBRANCH  26  27
ENDBRANCH  10  26
TORSDOF 8
ENDMDL
