MODEL 1
REMARK VINA RESULT:      -7.7      0.000      0.000
REMARK  Name = 
REMARK  1 active torsions:
REMARK  status: ('A' for Active; 'I' for Inactive)
REMARK    1  A    between atoms: C_4  and  C_5
REMARK                            x       y       z     vdW  Elec       q    Type
REMARK                         _______ _______ _______ _____ _____    ______ ____
ROOT
ATOM      1  N   UNL     1      15.833   9.830  40.028  0.00  0.00    +0.000 NA
ATOM      2  C   UNL     1      16.378  10.444  38.858  0.00  0.00    +0.000 A 
ATOM      3  N   UNL     1      17.680  10.344  38.672  0.00  0.00    +0.000 NA
ATOM      4  C   UNL     1      18.336  10.863  37.629  0.00  0.00    +0.000 A 
ATOM      5  N   UNL     1      17.589  11.534  36.712  0.00  0.00    +0.000 NA
ATOM      6  C   UNL     1      16.232  11.659  36.870  0.00  0.00    +0.000 A 
ATOM      7  S   UNL     1      14.999  12.405  35.958  0.00  0.00    +0.000 S 
ATOM      8  C   UNL     1      13.659  12.033  36.941  0.00  0.00    +0.000 A 
ATOM      9  C   UNL     1      14.219  11.328  37.966  0.00  0.00    +0.000 A 
ATOM     10  C   UNL     1      15.560  11.130  37.933  0.00  0.00    +0.000 A 
ATOM     11  C   UNL     1      13.199  10.874  39.000  0.00  0.00    +0.000 C 
ATOM     12  C   UNL     1      12.087  10.196  38.270  0.00  0.00    +0.000 C 
ATOM     13  C   UNL     1      11.383  11.087  37.281  0.00  0.00    +0.000 C 
ATOM     14  C   UNL     1      12.169  12.300  36.899  0.00  0.00    +0.000 C 
ENDROOT
BRANCH   4  15
ATOM     15  C   UNL     1      19.772  10.727  37.466  0.00  0.00    +0.000 A 
ATOM     16  C   UNL     1      20.588  11.589  38.140  0.00  0.00    +0.000 A 
ATOM     17  C   UNL     1      21.965  11.554  38.062  0.00  0.00    +0.000 A 
ATOM     18  N   UNL     1      22.508  10.614  37.273  0.00  0.00    +0.000 NA
ATOM     19  C   UNL     1      21.737   9.751  36.595  0.00  0.00    +0.000 A 
ATOM     20  C   UNL     1      20.345   9.774  36.665  0.00  0.00    +0.000 A 
ENDBRANCH   4  15
TORSDOF 1
ENDMDL
MODEL 2
REMARK VINA RESULT:      -7.4      3.500      5.433
REMARK  Name = 
REMARK  1 active torsions:
REMARK  status: ('A' for Active; 'I' for Inactive)
REMARK    1  A    between atoms: C_4  and  C_5
REMARK                            x       y       z     vdW  Elec       q    Type
REMARK                         _______ _______ _______ _____ _____    ______ ____
ROOT
ATOM      1  N   UNL     1      13.416  13.521  35.558  0.00  0.00    +0.000 NA
ATOM      2  C   UNL     1      14.446  12.534  35.645  0.00  0.00    +0.000 A 
ATOM      3  N   UNL     1      14.672  11.997  36.828  0.00  0.00    +0.000 NA
ATOM      4  C   UNL     1      15.599  11.064  37.069  0.00  0.00    +0.000 A 
ATOM      5  N   UNL     1      16.346  10.658  36.007  0.00  0.00    +0.000 NA
ATOM      6  C   UNL     1      16.139  11.193  34.761  0.00  0.00    +0.000 A 
ATOM      7  S   UNL     1      16.856  10.942  33.234  0.00  0.00    +0.000 S 
ATOM      8  C   UNL     1      15.946  12.047  32.312  0.00  0.00    +0.000 A 
ATOM      9  C   UNL     1      15.097  12.587  33.234  0.00  0.00    +0.000 A 
ATOM     10  C   UNL     1      15.195  12.145  34.512  0.00  0.00    +0.000 A 
ATOM     11  C   UNL     1      14.159  13.628  32.639  0.00  0.00    +0.000 C 
ATOM     12  C   UNL     1      13.518  13.021  31.435  0.00  0.00    +0.000 C 
ATOM     13  C   UNL     1      14.500  12.615  30.368  0.00  0.00    +0.000 C 
ATOM     14  C   UNL     1      15.904  12.484  30.863  0.00  0.00    +0.000 C 
ENDROOT
BRANCH   4  15
ATOM     15  C   UNL     1      15.813  10.501  38.390  0.00  0.00    +0.000 A 
ATOM     16  C   UNL     1      17.070  10.092  38.728  0.00  0.00    +0.000 A 
ATOM     17  C   UNL     1      17.390   9.544  39.953  0.00  0.00    +0.000 A 
ATOM     18  N   UNL     1      16.394   9.413  40.843  0.00  0.00    +0.000 NA
ATOM     19  C   UNL     1      15.145   9.804  40.545  0.00  0.00    +0.000 A 
ATOM     20  C   UNL     1      14.808  10.360  39.312  0.00  0.00    +0.000 A 
ENDBRANCH   4  15
TORSDOF 1
ENDMDL
MODEL 3
REMARK VINA RESULT:      -7.1     18.438     20.461
REMARK  Name = 
REMARK  1 active torsions:
REMARK  status: ('A' for Active; 'I' for Inactive)
REMARK    1  A    between atoms: C_4  and  C_5
REMARK                            x       y       z     vdW  Elec       q    Type
REMARK                         _______ _______ _______ _____ _____    ______ ____
ROOT
ATOM      1  N   UNL     1      33.861   0.962  37.678  0.00  0.00    +0.000 NA
ATOM      2  C   UNL     1      33.677   0.692  36.287  0.00  0.00    +0.000 A 
ATOM      3  N   UNL     1      33.432  -0.557  35.941  0.00  0.00    +0.000 NA
ATOM      4  C   UNL     1      33.239  -0.967  34.682  0.00  0.00    +0.000 A 
ATOM      5  N   UNL     1      33.302  -0.014  33.714  0.00  0.00    +0.000 NA
ATOM      6  C   UNL     1      33.553   1.295  34.036  0.00  0.00    +0.000 A 
ATOM      7  S   UNL     1      33.702   2.728  33.124  0.00  0.00    +0.000 S 
ATOM      8  C   UNL     1      34.014   3.832  34.383  0.00  0.00    +0.000 A 
ATOM      9  C   UNL     1      33.991   3.040  35.495  0.00  0.00    +0.000 A 
ATOM     10  C   UNL     1      33.752   1.717  35.317  0.00  0.00    +0.000 A 
ATOM     11  C   UNL     1      34.250   3.813  36.779  0.00  0.00    +0.000 C 
ATOM     12  C   UNL     1      33.326   4.986  36.793  0.00  0.00    +0.000 C 
ATOM     13  C   UNL     1      33.528   5.927  35.634  0.00  0.00    +0.000 C 
ATOM     14  C   UNL     1      34.274   5.319  34.490  0.00  0.00    +0.000 C 
ENDROOT
BRANCH   4  15
ATOM     15  C   UNL     1      32.972  -2.355  34.348  0.00  0.00    +0.000 A 
ATOM     16  C   UNL     1      33.614  -2.900  33.274  0.00  0.00    +0.000 A 
ATOM     17  C   UNL     1      33.439  -4.205  32.864  0.00  0.00    +0.000 A 
ATOM     18  N   UNL     1      32.585  -4.960  33.573  0.00  0.00    +0.000 NA
ATOM     19  C   UNL     1      31.936  -4.457  34.634  0.00  0.00    +0.000 A 
ATOM     20  C   UNL     1      32.104  -3.140  35.061  0.00  0.00    +0.000 A 
ENDBRANCH   4  15
TORSDOF 1
ENDMDL
MODEL 4
REMARK VINA RESULT:      -6.7      3.114      4.944
REMARK  Name = 
REMARK  1 active torsions:
REMARK  status: ('A' for Active; 'I' for Inactive)
REMARK    1  A    between atoms: C_4  and  C_5
REMARK                            x       y       z     vdW  Elec       q    Type
REMARK                         _______ _______ _______ _____ _____    ______ ____
ROOT
ATOM      1  N   UNL     1      14.554  12.036  37.209  0.00  0.00    +0.000 NA
ATOM      2  C   UNL     1      15.647  11.148  37.458  0.00  0.00    +0.000 A 
ATOM      3  N   UNL     1      15.864  10.792  38.709  0.00  0.00    +0.000 NA
ATOM      4  C   UNL     1      16.844   9.971  39.100  0.00  0.00    +0.000 A 
ATOM      5  N   UNL     1      17.658   9.484  38.125  0.00  0.00    +0.000 NA
ATOM      6  C   UNL     1      17.464   9.833  36.813  0.00  0.00    +0.000 A 
ATOM      7  S   UNL     1      18.255   9.436  35.355  0.00  0.00    +0.000 S 
ATOM      8  C   UNL     1      17.306  10.339  34.266  0.00  0.00    +0.000 A 
ATOM      9  C   UNL     1      16.386  10.931  35.082  0.00  0.00    +0.000 A 
ATOM     10  C   UNL     1      16.465  10.670  36.411  0.00  0.00    +0.000 A 
ATOM     11  C   UNL     1      15.401  11.811  34.326  0.00  0.00    +0.000 C 
ATOM     12  C   UNL     1      14.851  11.004  33.196  0.00  0.00    +0.000 C 
ATOM     13  C   UNL     1      15.900  10.535  32.223  0.00  0.00    +0.000 C 
ATOM     14  C   UNL     1      17.290  10.576  32.771  0.00  0.00    +0.000 C 
ENDROOT
BRANCH   4  15
ATOM     15  C   UNL     1      17.045   9.604  40.491  0.00  0.00    +0.000 A 
ATOM     16  C   UNL     1      18.323   9.511  40.962  0.00  0.00    +0.000 A 
ATOM     17  C   UNL     1      18.633   9.172  42.262  0.00  0.00    +0.000 A 
ATOM     18  N   UNL     1      17.607   8.923  43.090  0.00  0.00    +0.000 NA
ATOM     19  C   UNL     1      16.338   9.005  42.662  0.00  0.00    +0.000 A 
ATOM     20  C   UNL     1      16.010   9.347  41.352  0.00  0.00    +0.000 A 
ENDBRANCH   4  15
TORSDOF 1
ENDMDL
MODEL 5
REMARK VINA RESULT:      -6.6     21.763     24.322
REMARK  Name = 
REMARK  1 active torsions:
REMARK  status: ('A' for Active; 'I' for Inactive)
REMARK    1  A    between atoms: C_4  and  C_5
REMARK                            x       y       z     vdW  Elec       q    Type
REMARK                         _______ _______ _______ _____ _____    ______ ____
ROOT
ATOM      1  N   UNL     1      22.405 -10.671  25.071  0.00  0.00    +0.000 NA
ATOM      2  C   UNL     1      22.321  -9.246  25.005  0.00  0.00    +0.000 A 
ATOM      3  N   UNL     1      21.224  -8.682  25.474  0.00  0.00    +0.000 NA
ATOM      4  C   UNL     1      20.997  -7.364  25.482  0.00  0.00    +0.000 A 
ATOM      5  N   UNL     1      21.976  -6.573  24.967  0.00  0.00    +0.000 NA
ATOM      6  C   UNL     1      23.131  -7.123  24.471  0.00  0.00    +0.000 A 
ATOM      7  S   UNL     1      24.541  -6.473  23.766  0.00  0.00    +0.000 S 
ATOM      8  C   UNL     1      25.399  -7.915  23.473  0.00  0.00    +0.000 A 
ATOM      9  C   UNL     1      24.549  -8.875  23.940  0.00  0.00    +0.000 A 
ATOM     10  C   UNL     1      23.366  -8.467  24.461  0.00  0.00    +0.000 A 
ATOM     11  C   UNL     1      25.104 -10.284  23.785  0.00  0.00    +0.000 C 
ATOM     12  C   UNL     1      26.481 -10.292  24.362  0.00  0.00    +0.000 C 
ATOM     13  C   UNL     1      27.427  -9.341  23.677  0.00  0.00    +0.000 C 
ATOM     14  C   UNL     1      26.740  -8.283  22.875  0.00  0.00    +0.000 C 
ENDROOT
BRANCH   4  15
ATOM     15  C   UNL     1      19.773  -6.788  26.010  0.00  0.00    +0.000 A 
ATOM     16  C   UNL     1      19.693  -5.431  26.132  0.00  0.00    +0.000 A 
ATOM     17  C   UNL     1      18.582  -4.775  26.620  0.00  0.00    +0.000 A 
ATOM     18  N   UNL     1      17.538  -5.532  26.989  0.00  0.00    +0.000 NA
ATOM     19  C   UNL     1      17.581  -6.869  26.883  0.00  0.00    +0.000 A 
ATOM     20  C   UNL     1      18.696  -7.546  26.391  0.00  0.00    +0.000 A 
ENDBRANCH   4  15
TORSDOF 1
ENDMDL
MODEL 6
REMARK VINA RESULT:      -6.4     18.785     20.748
REMARK  Name = 
REMARK  1 active torsions:
REMARK  status: ('A' for Active; 'I' for Inactive)
REMARK    1  A    between atoms: C_4  and  C_5
REMARK                            x       y       z     vdW  Elec       q    Type
REMARK                         _______ _______ _______ _____ _____    ______ ____
ROOT
ATOM      1  N   UNL     1      31.713  23.255  27.099  0.00  0.00    +0.000 NA
ATOM      2  C   UNL     1      30.298  23.096  27.219  0.00  0.00    +0.000 A 
ATOM      3  N   UNL     1      29.582  23.192  26.115  0.00  0.00    +0.000 NA
ATOM      4  C   UNL     1      28.252  23.068  26.066  0.00  0.00    +0.000 A 
ATOM      5  N   UNL     1      27.617  22.827  27.244  0.00  0.00    +0.000 NA
ATOM      6  C   UNL     1      28.328  22.721  28.413  0.00  0.00    +0.000 A 
ATOM      7  S   UNL     1      27.895  22.433  30.037  0.00  0.00    +0.000 S 
ATOM      8  C   UNL     1      29.441  22.480  30.752  0.00  0.00    +0.000 A 
ATOM      9  C   UNL     1      30.261  22.721  29.688  0.00  0.00    +0.000 A 
ATOM     10  C   UNL     1      29.685  22.848  28.467  0.00  0.00    +0.000 A 
ATOM     11  C   UNL     1      31.729  22.808  30.079  0.00  0.00    +0.000 C 
ATOM     12  C   UNL     1      32.051  21.598  30.893  0.00  0.00    +0.000 C 
ATOM     13  C   UNL     1      31.238  21.487  32.156  0.00  0.00    +0.000 C 
ATOM     14  C   UNL     1      30.000  22.325  32.150  0.00  0.00    +0.000 C 
ENDROOT
BRANCH   4  15
ATOM     15  C   UNL     1      27.505  23.180  24.826  0.00  0.00    +0.000 A 
ATOM     16  C   UNL     1      28.191  23.431  23.673  0.00  0.00    +0.000 A 
ATOM     17  C   UNL     1      27.588  23.557  22.439  0.00  0.00    +0.000 A 
ATOM     18  N   UNL     1      26.253  23.423  22.395  0.00  0.00    +0.000 NA
ATOM     19  C   UNL     1      25.546  23.177  23.508  0.00  0.00    +0.000 A 
ATOM     20  C   UNL     1      26.142  23.046  24.761  0.00  0.00    +0.000 A 
ENDBRANCH   4  15
TORSDOF 1
ENDMDL
MODEL 7
REMARK VINA RESULT:      -6.4     19.594     21.368
REMARK  Name = 
REMARK  1 active torsions:
REMARK  status: ('A' for Active; 'I' for Inactive)
REMARK    1  A    between atoms: C_4  and  C_5
REMARK                            x       y       z     vdW  Elec       q    Type
REMARK                         _______ _______ _______ _____ _____    ______ ____
ROOT
ATOM      1  N   UNL     1      31.731  23.388  24.299  0.00  0.00    +0.000 NA
ATOM      2  C   UNL     1      30.804  23.101  25.348  0.00  0.00    +0.000 A 
ATOM      3  N   UNL     1      31.303  22.816  26.535  0.00  0.00    +0.000 NA
ATOM      4  C   UNL     1      30.567  22.527  27.613  0.00  0.00    +0.000 A 
ATOM      5  N   UNL     1      29.217  22.533  27.450  0.00  0.00    +0.000 NA
ATOM      6  C   UNL     1      28.661  22.824  26.230  0.00  0.00    +0.000 A 
ATOM      7  S   UNL     1      27.059  22.927  25.656  0.00  0.00    +0.000 S 
ATOM      8  C   UNL     1      27.368  23.341  24.033  0.00  0.00    +0.000 A 
ATOM      9  C   UNL     1      28.731  23.388  23.985  0.00  0.00    +0.000 A 
ATOM     10  C   UNL     1      29.409  23.120  25.129  0.00  0.00    +0.000 A 
ATOM     11  C   UNL     1      29.264  23.748  22.606  0.00  0.00    +0.000 C 
ATOM     12  C   UNL     1      28.550  24.978  22.153  0.00  0.00    +0.000 C 
ATOM     13  C   UNL     1      27.057  24.804  22.045  0.00  0.00    +0.000 C 
ATOM     14  C   UNL     1      26.534  23.627  22.803  0.00  0.00    +0.000 C 
ENDROOT
BRANCH   4  15
ATOM     15  C   UNL     1      31.161  22.220  28.903  0.00  0.00    +0.000 A 
ATOM     16  C   UNL     1      30.478  22.566  30.033  0.00  0.00    +0.000 A 
ATOM     17  C   UNL     1      30.944  22.324  31.308  0.00  0.00    +0.000 A 
ATOM     18  N   UNL     1      32.135  21.717  31.419  0.00  0.00    +0.000 NA
ATOM     19  C   UNL     1      32.835  21.363  30.330  0.00  0.00    +0.000 A 
ATOM     20  C   UNL     1      32.376  21.600  29.035  0.00  0.00    +0.000 A 
ENDBRANCH   4  15
TORSDOF 1
ENDMDL
MODEL 8
REMARK VINA RESULT:      -6.0     21.697     23.315
REMARK  Name = 
REMARK  1 active torsions:
REMARK  status: ('A' for Active; 'I' for Inactive)
REMARK    1  A    between atoms: C_4  and  C_5
REMARK                            x       y       z     vdW  Elec       q    Type
REMARK                         _______ _______ _______ _____ _____    ______ ____
ROOT
ATOM      1  N   UNL     1      21.008 -10.559  26.488  0.00  0.00    +0.000 NA
ATOM      2  C   UNL     1      21.463  -9.324  25.930  0.00  0.00    +0.000 A 
ATOM      3  N   UNL     1      22.638  -9.328  25.330  0.00  0.00    +0.000 NA
ATOM      4  C   UNL     1      23.198  -8.254  24.762  0.00  0.00    +0.000 A 
ATOM      5  N   UNL     1      22.490  -7.095  24.818  0.00  0.00    +0.000 NA
ATOM      6  C   UNL     1      21.265  -7.052  25.434  0.00  0.00    +0.000 A 
ATOM      7  S   UNL     1      20.117  -5.819  25.696  0.00  0.00    +0.000 S 
ATOM      8  C   UNL     1      18.934  -6.711  26.537  0.00  0.00    +0.000 A 
ATOM      9  C   UNL     1      19.476  -7.962  26.589  0.00  0.00    +0.000 A 
ATOM     10  C   UNL     1      20.691  -8.144  26.015  0.00  0.00    +0.000 A 
ATOM     11  C   UNL     1      18.585  -8.965  27.308  0.00  0.00    +0.000 C 
ATOM     12  C   UNL     1      17.221  -8.866  26.710  0.00  0.00    +0.000 C 
ATOM     13  C   UNL     1      16.597  -7.503  26.852  0.00  0.00    +0.000 C 
ATOM     14  C   UNL     1      17.582  -6.420  27.152  0.00  0.00    +0.000 C 
ENDROOT
BRANCH   4  15
ATOM     15  C   UNL     1      24.495  -8.306  24.111  0.00  0.00    +0.000 A 
ATOM     16  C   UNL     1      24.999  -7.158  23.572  0.00  0.00    +0.000 A 
ATOM     17  C   UNL     1      26.218  -7.087  22.931  0.00  0.00    +0.000 A 
ATOM     18  N   UNL     1      26.929  -8.222  22.844  0.00  0.00    +0.000 NA
ATOM     19  C   UNL     1      26.465  -9.370  23.362  0.00  0.00    +0.000 A 
ATOM     20  C   UNL     1      25.235  -9.455  24.013  0.00  0.00    +0.000 A 
ENDBRANCH   4  15
TORSDOF 1
ENDMDL
MODEL 9
REMARK VINA RESULT:      -5.9     19.766     22.236
REMARK  Name = 
REMARK  1 active torsions:
REMARK  status: ('A' for Active; 'I' for Inactive)
REMARK    1  A    between atoms: C_4  and  C_5
REMARK                            x       y       z     vdW  Elec       q    Type
REMARK                         _______ _______ _______ _____ _____    ______ ____
ROOT
ATOM      1  N   UNL     1      26.854  23.073  23.392  0.00  0.00    +0.000 NA
ATOM      2  C   UNL     1      27.078  24.060  24.401  0.00  0.00    +0.000 A 
ATOM      3  N   UNL     1      26.796  23.728  25.646  0.00  0.00    +0.000 NA
ATOM      4  C   UNL     1      26.951  24.540  26.697  0.00  0.00    +0.000 A 
ATOM      5  N   UNL     1      27.433  25.785  26.441  0.00  0.00    +0.000 NA
ATOM      6  C   UNL     1      27.738  26.167  25.159  0.00  0.00    +0.000 A 
ATOM      7  S   UNL     1      28.345  27.602  24.466  0.00  0.00    +0.000 S 
ATOM      8  C   UNL     1      28.387  27.129  22.831  0.00  0.00    +0.000 A 
ATOM      9  C   UNL     1      27.920  25.847  22.872  0.00  0.00    +0.000 A 
ATOM     10  C   UNL     1      27.581  25.342  24.084  0.00  0.00    +0.000 A 
ATOM     11  C   UNL     1      27.862  25.192  21.500  0.00  0.00    +0.000 C 
ATOM     12  C   UNL     1      29.194  25.383  20.853  0.00  0.00    +0.000 C 
ATOM     13  C   UNL     1      29.571  26.828  20.664  0.00  0.00    +0.000 C 
ATOM     14  C   UNL     1      28.788  27.771  21.520  0.00  0.00    +0.000 C 
ENDROOT
BRANCH   4  15
ATOM     15  C   UNL     1      26.628  24.130  28.052  0.00  0.00    +0.000 A 
ATOM     16  C   UNL     1      25.994  25.021  28.869  0.00  0.00    +0.000 A 
ATOM     17  C   UNL     1      25.639  24.743  30.172  0.00  0.00    +0.000 A 
ATOM     18  N   UNL     1      25.944  23.523  30.641  0.00  0.00    +0.000 NA
ATOM     19  C   UNL     1      26.567  22.621  29.867  0.00  0.00    +0.000 A 
ATOM     20  C   UNL     1      26.931  22.888  28.549  0.00  0.00    +0.000 A 
ENDBRANCH   4  15
TORSDOF 1
ENDMDL
MODEL 10
REMARK VINA RESULT:      -5.9      3.529      4.473
REMARK  Name = 
REMARK  1 active torsions:
REMARK  status: ('A' for Active; 'I' for Inactive)
REMARK    1  A    between atoms: C_4  and  C_5
REMARK                            x       y       z     vdW  Elec       q    Type
REMARK                         _______ _______ _______ _____ _____    ______ ____
ROOT
ATOM      1  N   UNL     1      20.810   8.373  41.676  0.00  0.00    +0.000 NA
ATOM      2  C   UNL     1      20.512   8.990  40.421  0.00  0.00    +0.000 A 
ATOM      3  N   UNL     1      21.526   9.259  39.623  0.00  0.00    +0.000 NA
ATOM      4  C   UNL     1      21.408   9.833  38.421  0.00  0.00    +0.000 A 
ATOM      5  N   UNL     1      20.149  10.151  38.017  0.00  0.00    +0.000 NA
ATOM      6  C   UNL     1      19.070   9.887  38.821  0.00  0.00    +0.000 A 
ATOM      7  S   UNL     1      17.390  10.135  38.662  0.00  0.00    +0.000 S 
ATOM      8  C   UNL     1      16.869   9.493  40.151  0.00  0.00    +0.000 A 
ATOM      9  C   UNL     1      18.036   9.098  40.737  0.00  0.00    +0.000 A 
ATOM     10  C   UNL     1      19.186   9.302  40.047  0.00  0.00    +0.000 A 
ATOM     11  C   UNL     1      17.830   8.478  42.111  0.00  0.00    +0.000 C 
ATOM     12  C   UNL     1      16.776   7.428  41.978  0.00  0.00    +0.000 C 
ATOM     13  C   UNL     1      15.450   7.961  41.503  0.00  0.00    +0.000 C 
ATOM     14  C   UNL     1      15.541   9.303  40.852  0.00  0.00    +0.000 C 
ENDROOT
BRANCH   4  15
ATOM     15  C   UNL     1      22.555  10.110  37.574  0.00  0.00    +0.000 A 
ATOM     16  C   UNL     1      23.285  11.237  37.815  0.00  0.00    +0.000 A 
ATOM     17  C   UNL     1      24.392  11.601  37.077  0.00  0.00    +0.000 A 
ATOM     18  N   UNL     1      24.751  10.787  36.072  0.00  0.00    +0.000 NA
ATOM     19  C   UNL     1      24.057   9.670  35.806  0.00  0.00    +0.000 A 
ATOM     20  C   UNL     1      22.937   9.290  36.544  0.00  0.00    +0.000 A 
ENDBRANCH   4  15
TORSDOF 1
ENDMDL
