MODEL 1
REMARK VINA RESULT:      -7.9      0.000      0.000
REMARK  Name = 
REMARK  8 active torsions:
REMARK  status: ('A' for Active; 'I' for Inactive)
REMARK    1  A    between atoms: C_2  and  O_3
REMARK    2  A    between atoms: O_3  and  C_4
REMARK    3  A    between atoms: C_7  and  N_8
REMARK    4  A    between atoms: C_11  and  N_12
REMARK    5  A    between atoms: N_12  and  C_13
REMARK    6  A    between atoms: C_18  and  C_19
REMARK    7  A    between atoms: C_21  and  S_22
REMARK    8  A    between atoms: S_22  and  C_23
REMARK                            x       y       z     vdW  Elec       q    Type
REMARK                         _______ _______ _______ _____ _____    ______ ____
ROOT
ATOM      1  N   UNL     1      36.962   3.650  15.922  0.00  0.00    +0.000 N 
ATOM      2  C   UNL     1      37.856   4.305  16.816  0.00  0.00    +0.000 C 
ATOM      3  O   UNL     1      38.358   3.846  17.876  0.00  0.00    +0.000 OA
ATOM      4  C   UNL     1      38.141   5.651  16.336  0.00  0.00    +0.000 C 
ATOM      5  C   UNL     1      37.465   5.818  15.213  0.00  0.00    +0.000 C 
ATOM      6  C   UNL     1      36.706   4.610  14.895  0.00  0.00    +0.000 C 
ATOM      7  O   UNL     1      35.964   4.436  13.903  0.00  0.00    +0.000 OA
ENDROOT
BRANCH   1  11
ATOM      8  C   UNL     1      35.449  -0.315  16.251  0.00  0.00    +0.000 A 
ATOM      9  C   UNL     1      36.583  -0.035  15.517  0.00  0.00    +0.000 A 
ATOM     10  C   UNL     1      37.072   1.250  15.413  0.00  0.00    +0.000 A 
ATOM     11  C   UNL     1      36.442   2.316  16.041  0.00  0.00    +0.000 A 
ATOM     12  C   UNL     1      35.309   2.023  16.770  0.00  0.00    +0.000 A 
ATOM     13  C   UNL     1      34.821   0.739  16.875  0.00  0.00    +0.000 A 
BRANCH   8  14
ATOM     14  O   UNL     1      34.929  -1.593  16.379  0.00  0.00    +0.000 OA
BRANCH  14  16
ATOM     15  C   UNL     1      34.565  -3.664  15.194  0.00  0.00    +0.000 C 
ATOM     16  C   UNL     1      35.547  -2.619  15.624  0.00  0.00    +0.000 C 
ENDBRANCH  14  16
ENDBRANCH   8  14
ENDBRANCH   1  11
BRANCH   4  17
ATOM     17  N   UNL     1      38.985   6.638  16.927  0.00  0.00    +0.000 NA
BRANCH  17  18
ATOM     18  C   UNL     1      38.664   7.280  18.147  0.00  0.00    +0.000 A 
ATOM     19  C   UNL     1      37.587   8.132  18.187  0.00  0.00    +0.000 A 
ATOM     20  C   UNL     1      37.207   8.798  19.333  0.00  0.00    +0.000 A 
ATOM     21  C   UNL     1      37.970   8.566  20.462  0.00  0.00    +0.000 A 
ATOM     22  C   UNL     1      39.037   7.726  20.439  0.00  0.00    +0.000 A 
ATOM     23  C   UNL     1      39.398   7.068  19.266  0.00  0.00    +0.000 A 
BRANCH  23  24
ATOM     24  C   UNL     1      40.569   6.161  19.285  0.00  0.00    +0.000 C 
ATOM     25  C   UNL     1      41.534   6.572  20.377  0.00  0.00    +0.000 C 
ENDBRANCH  23  24
ENDBRANCH  17  18
ENDBRANCH   4  17
BRANCH   5  26
ATOM     26  S   UNL     1      37.463   7.295  14.214  0.00  0.00    +0.000 S 
BRANCH  26  27
ATOM     27  C   UNL     1      36.129   8.380  14.693  0.00  0.00    +0.000 A 
ATOM     28  C   UNL     1      34.822   7.940  14.615  0.00  0.00    +0.000 A 
ATOM     29  C   UNL     1      33.741   8.739  14.974  0.00  0.00    +0.000 A 
ATOM     30  C   UNL     1      33.965  10.023  15.429  0.00  0.00    +0.000 A 
ATOM     31  C   UNL     1      35.285  10.470  15.510  0.00  0.00    +0.000 A 
ATOM     32  C   UNL     1      36.336   9.664  15.150  0.00  0.00    +0.000 A 
ENDBRANCH  26  27
ENDBRANCH   5  26
TORSDOF 8
ENDMDL
MODEL 2
REMARK VINA RESULT:      -7.9      2.059      5.644
REMARK  Name = 
REMARK  8 active torsions:
REMARK  status: ('A' for Active; 'I' for Inactive)
REMARK    1  A    between atoms: C_2  and  O_3
REMARK    2  A    between atoms: O_3  and  C_4
REMARK    3  A    between atoms: C_7  and  N_8
REMARK    4  A    between atoms: C_11  and  N_12
REMARK    5  A    between atoms: N_12  and  C_13
REMARK    6  A    between atoms: C_18  and  C_19
REMARK    7  A    between atoms: C_21  and  S_22
REMARK    8  A    between atoms: S_22  and  C_23
REMARK                            x       y       z     vdW  Elec       q    Type
REMARK                         _______ _______ _______ _____ _____    ______ ____
ROOT
ATOM      1  N   UNL     1      36.615   2.046  15.164  0.00  0.00    +0.000 N 
ATOM      2  C   UNL     1      35.722   3.127  14.919  0.00  0.00    +0.000 C 
ATOM      3  O   UNL     1      34.468   3.081  14.813  0.00  0.00    +0.000 OA
ATOM      4  C   UNL     1      36.469   4.372  14.799  0.00  0.00    +0.000 C 
ATOM      5  C   UNL     1      37.747   4.079  14.959  0.00  0.00    +0.000 C 
ATOM      6  C   UNL     1      37.912   2.645  15.191  0.00  0.00    +0.000 C 
ATOM      7  O   UNL     1      38.991   2.040  15.381  0.00  0.00    +0.000 OA
ENDROOT
BRANCH   1  11
ATOM      8  C   UNL     1      35.617  -2.061  15.666  0.00  0.00    +0.000 A 
ATOM      9  C   UNL     1      36.422  -1.637  14.631  0.00  0.00    +0.000 A 
ATOM     10  C   UNL     1      36.745  -0.306  14.470  0.00  0.00    +0.000 A 
ATOM     11  C   UNL     1      36.271   0.663  15.344  0.00  0.00    +0.000 A 
ATOM     12  C   UNL     1      35.466   0.227  16.375  0.00  0.00    +0.000 A 
ATOM     13  C   UNL     1      35.144  -1.104  16.535  0.00  0.00    +0.000 A 
BRANCH   8  14
ATOM     14  O   UNL     1      35.271  -3.389  15.860  0.00  0.00    +0.000 OA
BRANCH  14  16
ATOM     15  C   UNL     1      33.382  -4.456  14.800  0.00  0.00    +0.000 C 
ATOM     16  C   UNL     1      34.838  -4.114  14.723  0.00  0.00    +0.000 C 
ENDBRANCH  14  16
ENDBRANCH   8  14
ENDBRANCH   1  11
BRANCH   4  17
ATOM     17  N   UNL     1      35.964   5.684  14.556  0.00  0.00    +0.000 NA
BRANCH  17  18
ATOM     18  C   UNL     1      35.480   6.090  13.290  0.00  0.00    +0.000 A 
ATOM     19  C   UNL     1      36.161   5.702  12.161  0.00  0.00    +0.000 A 
ATOM     20  C   UNL     1      35.757   6.054  10.891  0.00  0.00    +0.000 A 
ATOM     21  C   UNL     1      34.617   6.829  10.799  0.00  0.00    +0.000 A 
ATOM     22  C   UNL     1      33.932   7.221  11.905  0.00  0.00    +0.000 A 
ATOM     23  C   UNL     1      34.364   6.849  13.176  0.00  0.00    +0.000 A 
BRANCH  23  24
ATOM     24  C   UNL     1      33.588   7.299  14.355  0.00  0.00    +0.000 C 
ATOM     25  C   UNL     1      33.886   8.752  14.657  0.00  0.00    +0.000 C 
ENDBRANCH  23  24
ENDBRANCH  17  18
ENDBRANCH   4  17
BRANCH   5  26
ATOM     26  S   UNL     1      39.094   5.246  14.906  0.00  0.00    +0.000 S 
BRANCH  26  27
ATOM     27  C   UNL     1      39.666   5.626  16.554  0.00  0.00    +0.000 A 
ATOM     28  C   UNL     1      40.919   6.178  16.738  0.00  0.00    +0.000 A 
ATOM     29  C   UNL     1      41.419   6.496  17.997  0.00  0.00    +0.000 A 
ATOM     30  C   UNL     1      40.647   6.258  19.116  0.00  0.00    +0.000 A 
ATOM     31  C   UNL     1      39.379   5.701  18.933  0.00  0.00    +0.000 A 
ATOM     32  C   UNL     1      38.907   5.395  17.682  0.00  0.00    +0.000 A 
ENDBRANCH  26  27
ENDBRANCH   5  26
TORSDOF 8
ENDMDL
MODEL 3
REMARK VINA RESULT:      -7.5      3.055      9.065
REMARK  Name = 
REMARK  8 active torsions:
REMARK  status: ('A' for Active; 'I' for Inactive)
REMARK    1  A    between atoms: C_2  and  O_3
REMARK    2  A    between atoms: O_3  and  C_4
REMARK    3  A    between atoms: C_7  and  N_8
REMARK    4  A    between atoms: C_11  and  N_12
REMARK    5  A    between atoms: N_12  and  C_13
REMARK    6  A    between atoms: C_18  and  C_19
REMARK    7  A    between atoms: C_21  and  S_22
REMARK    8  A    between atoms: S_22  and  C_23
REMARK                            x       y       z     vdW  Elec       q    Type
REMARK                         _______ _______ _______ _____ _____    ______ ____
ROOT
ATOM      1  N   UNL     1      38.235   3.752  16.044  0.00  0.00    +0.000 N 
ATOM      2  C   UNL     1      37.378   2.655  16.343  0.00  0.00    +0.000 C 
ATOM      3  O   UNL     1      36.633   2.512  17.349  0.00  0.00    +0.000 OA
ATOM      4  C   UNL     1      37.465   1.654  15.288  0.00  0.00    +0.000 C 
ATOM      5  C   UNL     1      38.323   2.104  14.391  0.00  0.00    +0.000 C 
ATOM      6  C   UNL     1      38.843   3.409  14.798  0.00  0.00    +0.000 C 
ATOM      7  O   UNL     1      39.672   4.108  14.174  0.00  0.00    +0.000 OA
ENDROOT
BRANCH   1  11
ATOM      8  C   UNL     1      38.829   7.242  18.408  0.00  0.00    +0.000 A 
ATOM      9  C   UNL     1      39.132   5.986  18.889  0.00  0.00    +0.000 A 
ATOM     10  C   UNL     1      38.940   4.857  18.121  0.00  0.00    +0.000 A 
ATOM     11  C   UNL     1      38.431   4.937  16.832  0.00  0.00    +0.000 A 
ATOM     12  C   UNL     1      38.130   6.198  16.363  0.00  0.00    +0.000 A 
ATOM     13  C   UNL     1      38.323   7.327  17.130  0.00  0.00    +0.000 A 
BRANCH   8  14
ATOM     14  O   UNL     1      39.008   8.399  19.149  0.00  0.00    +0.000 OA
BRANCH  14  16
ATOM     15  C   UNL     1      38.475   9.782  21.054  0.00  0.00    +0.000 C 
ATOM     16  C   UNL     1      38.498   8.403  20.470  0.00  0.00    +0.000 C 
ENDBRANCH  14  16
ENDBRANCH   8  14
ENDBRANCH   1  11
BRANCH   4  17
ATOM     17  N   UNL     1      36.774   0.409  15.194  0.00  0.00    +0.000 NA
BRANCH  17  18
ATOM     18  C   UNL     1      37.046  -0.678  16.058  0.00  0.00    +0.000 A 
ATOM     19  C   UNL     1      38.287  -1.267  16.017  0.00  0.00    +0.000 A 
ATOM     20  C   UNL     1      38.634  -2.330  16.823  0.00  0.00    +0.000 A 
ATOM     21  C   UNL     1      37.661  -2.787  17.691  0.00  0.00    +0.000 A 
ATOM     22  C   UNL     1      36.429  -2.217  17.745  0.00  0.00    +0.000 A 
ATOM     23  C   UNL     1      36.108  -1.144  16.917  0.00  0.00    +0.000 A 
BRANCH  23  24
ATOM     24  C   UNL     1      34.752  -0.552  17.007  0.00  0.00    +0.000 C 
ATOM     25  C   UNL     1      33.744  -1.607  17.407  0.00  0.00    +0.000 C 
ENDBRANCH  23  24
ENDBRANCH  17  18
ENDBRANCH   4  17
BRANCH   5  26
ATOM     26  S   UNL     1      38.795   1.261  12.892  0.00  0.00    +0.000 S 
BRANCH  26  27
ATOM     27  C   UNL     1      39.945  -0.058  13.245  0.00  0.00    +0.000 A 
ATOM     28  C   UNL     1      39.737  -1.315  12.711  0.00  0.00    +0.000 A 
ATOM     29  C   UNL     1      40.597  -2.382  12.950  0.00  0.00    +0.000 A 
ATOM     30  C   UNL     1      41.709  -2.194  13.748  0.00  0.00    +0.000 A 
ATOM     31  C   UNL     1      41.922  -0.924  14.287  0.00  0.00    +0.000 A 
ATOM     32  C   UNL     1      41.060   0.113  14.039  0.00  0.00    +0.000 A 
ENDBRANCH  26  27
ENDBRANCH   5  26
TORSDOF 8
ENDMDL
MODEL 4
REMARK VINA RESULT:      -7.4      1.691      2.719
REMARK  Name = 
REMARK  8 active torsions:
REMARK  status: ('A' for Active; 'I' for Inactive)
REMARK    1  A    between atoms: C_2  and  O_3
REMARK    2  A    between atoms: O_3  and  C_4
REMARK    3  A    between atoms: C_7  and  N_8
REMARK    4  A    between atoms: C_11  and  N_12
REMARK    5  A    between atoms: N_12  and  C_13
REMARK    6  A    between atoms: C_18  and  C_19
REMARK    7  A    between atoms: C_21  and  S_22
REMARK    8  A    between atoms: S_22  and  C_23
REMARK                            x       y       z     vdW  Elec       q    Type
REMARK                         _______ _______ _______ _____ _____    ______ ____
ROOT
ATOM      1  N   UNL     1      36.945   3.281  15.847  0.00  0.00    +0.000 N 
ATOM      2  C   UNL     1      37.640   4.053  16.821  0.00  0.00    +0.000 C 
ATOM      3  O   UNL     1      37.983   3.700  17.980  0.00  0.00    +0.000 OA
ATOM      4  C   UNL     1      37.927   5.379  16.291  0.00  0.00    +0.000 C 
ATOM      5  C   UNL     1      37.440   5.426  15.064  0.00  0.00    +0.000 C 
ATOM      6  C   UNL     1      36.812   4.151  14.721  0.00  0.00    +0.000 C 
ATOM      7  O   UNL     1      36.256   3.862  13.638  0.00  0.00    +0.000 OA
ENDROOT
BRANCH   1  11
ATOM      8  C   UNL     1      35.558  -0.721  16.272  0.00  0.00    +0.000 A 
ATOM      9  C   UNL     1      34.947   0.327  16.929  0.00  0.00    +0.000 A 
ATOM     10  C   UNL     1      35.398   1.623  16.789  0.00  0.00    +0.000 A 
ATOM     11  C   UNL     1      36.486   1.927  15.982  0.00  0.00    +0.000 A 
ATOM     12  C   UNL     1      37.088   0.871  15.331  0.00  0.00    +0.000 A 
ATOM     13  C   UNL     1      36.637  -0.424  15.470  0.00  0.00    +0.000 A 
BRANCH   8  14
ATOM     14  O   UNL     1      35.134  -2.034  16.387  0.00  0.00    +0.000 OA
BRANCH  14  16
ATOM     15  C   UNL     1      34.427  -3.921  15.056  0.00  0.00    +0.000 C 
ATOM     16  C   UNL     1      35.506  -2.924  15.349  0.00  0.00    +0.000 C 
ENDBRANCH  14  16
ENDBRANCH   8  14
ENDBRANCH   1  11
BRANCH   4  17
ATOM     17  N   UNL     1      38.606   6.458  16.934  0.00  0.00    +0.000 NA
BRANCH  17  18
ATOM     18  C   UNL     1      40.012   6.487  17.088  0.00  0.00    +0.000 A 
ATOM     19  C   UNL     1      40.801   6.621  15.971  0.00  0.00    +0.000 A 
ATOM     20  C   UNL     1      42.178   6.658  16.031  0.00  0.00    +0.000 A 
ATOM     21  C   UNL     1      42.741   6.554  17.289  0.00  0.00    +0.000 A 
ATOM     22  C   UNL     1      41.976   6.422  18.403  0.00  0.00    +0.000 A 
ATOM     23  C   UNL     1      40.587   6.387  18.310  0.00  0.00    +0.000 A 
BRANCH  23  24
ATOM     24  C   UNL     1      39.790   6.241  19.550  0.00  0.00    +0.000 C 
ATOM     25  C   UNL     1      39.681   7.571  20.265  0.00  0.00    +0.000 C 
ENDBRANCH  23  24
ENDBRANCH  17  18
ENDBRANCH   4  17
BRANCH   5  26
ATOM     26  S   UNL     1      37.524   6.829  13.967  0.00  0.00    +0.000 S 
BRANCH  26  27
ATOM     27  C   UNL     1      36.033   6.959  12.993  0.00  0.00    +0.000 A 
ATOM     28  C   UNL     1      34.819   7.168  13.617  0.00  0.00    +0.000 A 
ATOM     29  C   UNL     1      33.624   7.278  12.913  0.00  0.00    +0.000 A 
ATOM     30  C   UNL     1      33.635   7.178  11.536  0.00  0.00    +0.000 A 
ATOM     31  C   UNL     1      34.861   6.968  10.902  0.00  0.00    +0.000 A 
ATOM     32  C   UNL     1      36.027   6.862  11.618  0.00  0.00    +0.000 A 
ENDBRANCH  26  27
ENDBRANCH   5  26
TORSDOF 8
ENDMDL
MODEL 5
REMARK VINA RESULT:      -7.3      3.348      9.163
REMARK  Name = 
REMARK  8 active torsions:
REMARK  status: ('A' for Active; 'I' for Inactive)
REMARK    1  A    between atoms: C_2  and  O_3
REMARK    2  A    between atoms: O_3  and  C_4
REMARK    3  A    between atoms: C_7  and  N_8
REMARK    4  A    between atoms: C_11  and  N_12
REMARK    5  A    between atoms: N_12  and  C_13
REMARK    6  A    between atoms: C_18  and  C_19
REMARK    7  A    between atoms: C_21  and  S_22
REMARK    8  A    between atoms: S_22  and  C_23
REMARK                            x       y       z     vdW  Elec       q    Type
REMARK                         _______ _______ _______ _____ _____    ______ ____
ROOT
ATOM      1  N   UNL     1      38.298   4.185  16.151  0.00  0.00    +0.000 N 
ATOM      2  C   UNL     1      39.104   3.943  15.002  0.00  0.00    +0.000 C 
ATOM      3  O   UNL     1      40.130   4.574  14.634  0.00  0.00    +0.000 OA
ATOM      4  C   UNL     1      38.574   2.811  14.253  0.00  0.00    +0.000 C 
ATOM      5  C   UNL     1      37.506   2.379  14.898  0.00  0.00    +0.000 C 
ATOM      6  C   UNL     1      37.274   3.190  16.093  0.00  0.00    +0.000 C 
ATOM      7  O   UNL     1      36.349   3.047  16.923  0.00  0.00    +0.000 OA
ENDROOT
BRANCH   1  11
ATOM      8  C   UNL     1      38.843   7.239  19.065  0.00  0.00    +0.000 A 
ATOM      9  C   UNL     1      38.138   7.470  17.902  0.00  0.00    +0.000 A 
ATOM     10  C   UNL     1      37.963   6.479  16.960  0.00  0.00    +0.000 A 
ATOM     11  C   UNL     1      38.489   5.207  17.142  0.00  0.00    +0.000 A 
ATOM     12  C   UNL     1      39.192   4.989  18.307  0.00  0.00    +0.000 A 
ATOM     13  C   UNL     1      39.367   5.979  19.250  0.00  0.00    +0.000 A 
BRANCH   8  14
ATOM     14  O   UNL     1      39.040   8.209  20.034  0.00  0.00    +0.000 OA
BRANCH  14  16
ATOM     15  C   UNL     1      38.171  10.443  20.319  0.00  0.00    +0.000 C 
ATOM     16  C   UNL     1      37.912   8.971  20.422  0.00  0.00    +0.000 C 
ENDBRANCH  14  16
ENDBRANCH   8  14
ENDBRANCH   1  11
BRANCH   4  17
ATOM     17  N   UNL     1      39.077   2.239  13.046  0.00  0.00    +0.000 NA
BRANCH  17  18
ATOM     18  C   UNL     1      39.855   1.057  13.033  0.00  0.00    +0.000 A 
ATOM     19  C   UNL     1      40.743   0.833  14.058  0.00  0.00    +0.000 A 
ATOM     20  C   UNL     1      41.538  -0.291  14.122  0.00  0.00    +0.000 A 
ATOM     21  C   UNL     1      41.402  -1.201  13.090  0.00  0.00    +0.000 A 
ATOM     22  C   UNL     1      40.530  -0.995  12.070  0.00  0.00    +0.000 A 
ATOM     23  C   UNL     1      39.739   0.151  12.033  0.00  0.00    +0.000 A 
BRANCH  23  24
ATOM     24  C   UNL     1      38.801   0.337  10.901  0.00  0.00    +0.000 C 
ATOM     25  C   UNL     1      39.560   0.706   9.644  0.00  0.00    +0.000 C 
ENDBRANCH  23  24
ENDBRANCH  17  18
ENDBRANCH   4  17
BRANCH   5  26
ATOM     26  S   UNL     1      36.479   1.007  14.405  0.00  0.00    +0.000 S 
BRANCH  26  27
ATOM     27  C   UNL     1      37.312  -0.544  14.704  0.00  0.00    +0.000 A 
ATOM     28  C   UNL     1      38.073  -0.709  15.844  0.00  0.00    +0.000 A 
ATOM     29  C   UNL     1      38.745  -1.892  16.132  0.00  0.00    +0.000 A 
ATOM     30  C   UNL     1      38.657  -2.955  15.255  0.00  0.00    +0.000 A 
ATOM     31  C   UNL     1      37.887  -2.792  14.101  0.00  0.00    +0.000 A 
ATOM     32  C   UNL     1      37.234  -1.615  13.838  0.00  0.00    +0.000 A 
ENDBRANCH  26  27
ENDBRANCH   5  26
TORSDOF 8
ENDMDL
MODEL 6
REMARK VINA RESULT:      -7.1      5.785      9.016
REMARK  Name = 
REMARK  8 active torsions:
REMARK  status: ('A' for Active; 'I' for Inactive)
REMARK    1  A    between atoms: C_2  and  O_3
REMARK    2  A    between atoms: O_3  and  C_4
REMARK    3  A    between atoms: C_7  and  N_8
REMARK    4  A    between atoms: C_11  and  N_12
REMARK    5  A    between atoms: N_12  and  C_13
REMARK    6  A    between atoms: C_18  and  C_19
REMARK    7  A    between atoms: C_21  and  S_22
REMARK    8  A    between atoms: S_22  and  C_23
REMARK                            x       y       z     vdW  Elec       q    Type
REMARK                         _______ _______ _______ _____ _____    ______ ____
ROOT
ATOM      1  N   UNL     1      40.595  -2.136  14.135  0.00  0.00    +0.000 N 
ATOM      2  C   UNL     1      39.808  -2.807  15.114  0.00  0.00    +0.000 C 
ATOM      3  O   UNL     1      40.176  -3.714  15.907  0.00  0.00    +0.000 OA
ATOM      4  C   UNL     1      38.445  -2.293  15.094  0.00  0.00    +0.000 C 
ATOM      5  C   UNL     1      38.391  -1.361  14.160  0.00  0.00    +0.000 C 
ATOM      6  C   UNL     1      39.697  -1.210  13.520  0.00  0.00    +0.000 C 
ATOM      7  O   UNL     1      39.987  -0.414  12.599  0.00  0.00    +0.000 OA
ENDROOT
BRANCH   1  11
ATOM      8  C   UNL     1      44.722  -2.753  13.298  0.00  0.00    +0.000 A 
ATOM      9  C   UNL     1      44.310  -1.902  14.302  0.00  0.00    +0.000 A 
ATOM     10  C   UNL     1      42.972  -1.704  14.571  0.00  0.00    +0.000 A 
ATOM     11  C   UNL     1      41.984  -2.353  13.843  0.00  0.00    +0.000 A 
ATOM     12  C   UNL     1      42.409  -3.200  12.842  0.00  0.00    +0.000 A 
ATOM     13  C   UNL     1      43.746  -3.398  12.573  0.00  0.00    +0.000 A 
BRANCH   8  14
ATOM     14  O   UNL     1      46.056  -2.977  12.998  0.00  0.00    +0.000 OA
BRANCH  14  16
ATOM     15  C   UNL     1      47.223  -4.571  14.385  0.00  0.00    +0.000 C 
ATOM     16  C   UNL     1      46.521  -4.312  13.088  0.00  0.00    +0.000 C 
ENDBRANCH  14  16
ENDBRANCH   8  14
ENDBRANCH   1  11
BRANCH   4  17
ATOM     17  N   UNL     1      37.343  -2.687  15.910  0.00  0.00    +0.000 NA
BRANCH  17  18
ATOM     18  C   UNL     1      36.980  -1.989  17.087  0.00  0.00    +0.000 A 
ATOM     19  C   UNL     1      37.972  -1.490  17.896  0.00  0.00    +0.000 A 
ATOM     20  C   UNL     1      37.707  -0.799  19.060  0.00  0.00    +0.000 A 
ATOM     21  C   UNL     1      36.375  -0.628  19.383  0.00  0.00    +0.000 A 
ATOM     22  C   UNL     1      35.382  -1.115  18.594  0.00  0.00    +0.000 A 
ATOM     23  C   UNL     1      35.681  -1.809  17.424  0.00  0.00    +0.000 A 
BRANCH  23  24
ATOM     24  C   UNL     1      34.568  -2.324  16.593  0.00  0.00    +0.000 C 
ATOM     25  C   UNL     1      33.238  -2.010  17.243  0.00  0.00    +0.000 C 
ENDBRANCH  23  24
ENDBRANCH  17  18
ENDBRANCH   4  17
BRANCH   5  26
ATOM     26  S   UNL     1      36.946  -0.410  13.726  0.00  0.00    +0.000 S 
BRANCH  26  27
ATOM     27  C   UNL     1      36.715   0.944  14.866  0.00  0.00    +0.000 A 
ATOM     28  C   UNL     1      37.721   1.873  15.045  0.00  0.00    +0.000 A 
ATOM     29  C   UNL     1      37.600   2.949  15.919  0.00  0.00    +0.000 A 
ATOM     30  C   UNL     1      36.434   3.110  16.642  0.00  0.00    +0.000 A 
ATOM     31  C   UNL     1      35.415   2.173  16.462  0.00  0.00    +0.000 A 
ATOM     32  C   UNL     1      35.557   1.119  15.595  0.00  0.00    +0.000 A 
ENDBRANCH  26  27
ENDBRANCH   5  26
TORSDOF 8
ENDMDL
MODEL 7
REMARK VINA RESULT:      -7.1     23.348     26.142
REMARK  Name = 
REMARK  8 active torsions:
REMARK  status: ('A' for Active; 'I' for Inactive)
REMARK    1  A    between atoms: C_2  and  O_3
REMARK    2  A    between atoms: O_3  and  C_4
REMARK    3  A    between atoms: C_7  and  N_8
REMARK    4  A    between atoms: C_11  and  N_12
REMARK    5  A    between atoms: N_12  and  C_13
REMARK    6  A    between atoms: C_18  and  C_19
REMARK    7  A    between atoms: C_21  and  S_22
REMARK    8  A    between atoms: S_22  and  C_23
REMARK                            x       y       z     vdW  Elec       q    Type
REMARK                         _______ _______ _______ _____ _____    ______ ____
ROOT
ATOM      1  N   UNL     1      26.450  13.981  40.009  0.00  0.00    +0.000 N 
ATOM      2  C   UNL     1      27.640  14.697  39.694  0.00  0.00    +0.000 C 
ATOM      3  O   UNL     1      28.798  14.505  40.150  0.00  0.00    +0.000 OA
ATOM      4  C   UNL     1      27.347  15.743  38.723  0.00  0.00    +0.000 C 
ATOM      5  C   UNL     1      26.056  15.678  38.453  0.00  0.00    +0.000 C 
ATOM      6  C   UNL     1      25.433  14.601  39.221  0.00  0.00    +0.000 C 
ATOM      7  O   UNL     1      24.225  14.272  39.198  0.00  0.00    +0.000 OA
ENDROOT
BRANCH   1  11
ATOM      8  C   UNL     1      26.042  10.735  42.733  0.00  0.00    +0.000 A 
ATOM      9  C   UNL     1      25.458  11.960  42.979  0.00  0.00    +0.000 A 
ATOM     10  C   UNL     1      25.591  13.010  42.095  0.00  0.00    +0.000 A 
ATOM     11  C   UNL     1      26.319  12.878  40.920  0.00  0.00    +0.000 A 
ATOM     12  C   UNL     1      26.899  11.649  40.686  0.00  0.00    +0.000 A 
ATOM     13  C   UNL     1      26.766  10.600  41.569  0.00  0.00    +0.000 A 
BRANCH   8  14
ATOM     14  O   UNL     1      25.930   9.658  43.596  0.00  0.00    +0.000 OA
BRANCH  14  16
ATOM     15  C   UNL     1      23.841   8.455  43.725  0.00  0.00    +0.000 C 
ATOM     16  C   UNL     1      25.213   8.529  43.130  0.00  0.00    +0.000 C 
ENDBRANCH  14  16
ENDBRANCH   8  14
ENDBRANCH   1  11
BRANCH   4  17
ATOM     17  N   UNL     1      28.249  16.683  38.141  0.00  0.00    +0.000 NA
BRANCH  17  18
ATOM     18  C   UNL     1      28.823  16.494  36.861  0.00  0.00    +0.000 A 
ATOM     19  C   UNL     1      29.442  15.300  36.579  0.00  0.00    +0.000 A 
ATOM     20  C   UNL     1      30.027  15.034  35.359  0.00  0.00    +0.000 A 
ATOM     21  C   UNL     1      29.961  16.039  34.413  0.00  0.00    +0.000 A 
ATOM     22  C   UNL     1      29.353  17.224  34.675  0.00  0.00    +0.000 A 
ATOM     23  C   UNL     1      28.771  17.464  35.918  0.00  0.00    +0.000 A 
BRANCH  23  24
ATOM     24  C   UNL     1      28.119  18.772  36.162  0.00  0.00    +0.000 C 
ATOM     25  C   UNL     1      27.802  19.454  34.849  0.00  0.00    +0.000 C 
ENDBRANCH  23  24
ENDBRANCH  17  18
ENDBRANCH   4  17
BRANCH   5  26
ATOM     26  S   UNL     1      25.178  16.738  37.320  0.00  0.00    +0.000 S 
BRANCH  26  27
ATOM     27  C   UNL     1      25.419  16.200  35.635  0.00  0.00    +0.000 A 
ATOM     28  C   UNL     1      25.079  17.035  34.589  0.00  0.00    +0.000 A 
ATOM     29  C   UNL     1      25.243  16.672  33.256  0.00  0.00    +0.000 A 
ATOM     30  C   UNL     1      25.767  15.432  32.949  0.00  0.00    +0.000 A 
ATOM     31  C   UNL     1      26.114  14.585  34.004  0.00  0.00    +0.000 A 
ATOM     32  C   UNL     1      25.942  14.965  35.311  0.00  0.00    +0.000 A 
ENDBRANCH  26  27
ENDBRANCH   5  26
TORSDOF 8
ENDMDL
MODEL 8
REMARK VINA RESULT:      -7.1     23.927     26.585
REMARK  Name = 
REMARK  8 active torsions:
REMARK  status: ('A' for Active; 'I' for Inactive)
REMARK    1  A    between atoms: C_2  and  O_3
REMARK    2  A    between atoms: O_3  and  C_4
REMARK    3  A    between atoms: C_7  and  N_8
REMARK    4  A    between atoms: C_11  and  N_12
REMARK    5  A    between atoms: N_12  and  C_13
REMARK    6  A    between atoms: C_18  and  C_19
REMARK    7  A    between atoms: C_21  and  S_22
REMARK    8  A    between atoms: S_22  and  C_23
REMARK                            x       y       z     vdW  Elec       q    Type
REMARK                         _______ _______ _______ _____ _____    ______ ____
ROOT
ATOM      1  N   UNL     1      15.139  -0.089  27.109  0.00  0.00    +0.000 N 
ATOM      2  C   UNL     1      13.792  -0.237  26.672  0.00  0.00    +0.000 C 
ATOM      3  O   UNL     1      13.384  -0.492  25.508  0.00  0.00    +0.000 OA
ATOM      4  C   UNL     1      12.882  -0.048  27.794  0.00  0.00    +0.000 C 
ATOM      5  C   UNL     1      13.621   0.201  28.860  0.00  0.00    +0.000 C 
ATOM      6  C   UNL     1      15.040   0.191  28.506  0.00  0.00    +0.000 C 
ATOM      7  O   UNL     1      16.002   0.391  29.281  0.00  0.00    +0.000 OA
ENDROOT
BRANCH   1  11
ATOM      8  C   UNL     1      18.660  -0.387  24.735  0.00  0.00    +0.000 A 
ATOM      9  C   UNL     1      18.160   0.835  25.132  0.00  0.00    +0.000 A 
ATOM     10  C   UNL     1      17.020   0.929  25.902  0.00  0.00    +0.000 A 
ATOM     11  C   UNL     1      16.326  -0.203  26.308  0.00  0.00    +0.000 A 
ATOM     12  C   UNL     1      16.836  -1.419  25.904  0.00  0.00    +0.000 A 
ATOM     13  C   UNL     1      17.976  -1.513  25.136  0.00  0.00    +0.000 A 
BRANCH   8  14
ATOM     14  O   UNL     1      19.802  -0.521  23.963  0.00  0.00    +0.000 OA
BRANCH  14  16
ATOM     15  C   UNL     1      20.784  -1.536  22.005  0.00  0.00    +0.000 C 
ATOM     16  C   UNL     1      19.947  -1.726  23.232  0.00  0.00    +0.000 C 
ENDBRANCH  14  16
ENDBRANCH   8  14
ENDBRANCH   1  11
BRANCH   4  17
ATOM     17  N   UNL     1      11.457  -0.112  27.794  0.00  0.00    +0.000 NA
BRANCH  17  18
ATOM     18  C   UNL     1      10.666   0.562  26.834  0.00  0.00    +0.000 A 
ATOM     19  C   UNL     1       9.974  -0.177  25.904  0.00  0.00    +0.000 A 
ATOM     20  C   UNL     1       9.182   0.399  24.935  0.00  0.00    +0.000 A 
ATOM     21  C   UNL     1       9.110   1.779  24.938  0.00  0.00    +0.000 A 
ATOM     22  C   UNL     1       9.787   2.525  25.850  0.00  0.00    +0.000 A 
ATOM     23  C   UNL     1      10.581   1.913  26.818  0.00  0.00    +0.000 A 
BRANCH  23  24
ATOM     24  C   UNL     1      11.302   2.764  27.793  0.00  0.00    +0.000 C 
ATOM     25  C   UNL     1      12.166   3.775  27.070  0.00  0.00    +0.000 C 
ENDBRANCH  23  24
ENDBRANCH  17  18
ENDBRANCH   4  17
BRANCH   5  26
ATOM     26  S   UNL     1      13.001   0.508  30.504  0.00  0.00    +0.000 S 
BRANCH  26  27
ATOM     27  C   UNL     1      13.706  -0.644  31.671  0.00  0.00    +0.000 A 
ATOM     28  C   UNL     1      13.134  -1.890  31.841  0.00  0.00    +0.000 A 
ATOM     29  C   UNL     1      13.637  -2.830  32.734  0.00  0.00    +0.000 A 
ATOM     30  C   UNL     1      14.754  -2.523  33.487  0.00  0.00    +0.000 A 
ATOM     31  C   UNL     1      15.336  -1.266  33.316  0.00  0.00    +0.000 A 
ATOM     32  C   UNL     1      14.821  -0.354  32.429  0.00  0.00    +0.000 A 
ENDBRANCH  26  27
ENDBRANCH   5  26
TORSDOF 8
ENDMDL
MODEL 9
REMARK VINA RESULT:      -7.1      5.531      9.843
REMARK  Name = 
REMARK  8 active torsions:
REMARK  status: ('A' for Active; 'I' for Inactive)
REMARK    1  A    between atoms: C_2  and  O_3
REMARK    2  A    between atoms: O_3  and  C_4
REMARK    3  A    between atoms: C_7  and  N_8
REMARK    4  A    between atoms: C_11  and  N_12
REMARK    5  A    between atoms: N_12  and  C_13
REMARK    6  A    between atoms: C_18  and  C_19
REMARK    7  A    between atoms: C_21  and  S_22
REMARK    8  A    between atoms: S_22  and  C_23
REMARK                            x       y       z     vdW  Elec       q    Type
REMARK                         _______ _______ _______ _____ _____    ______ ____
ROOT
ATOM      1  N   UNL     1      39.913  -2.065  14.586  0.00  0.00    +0.000 N 
ATOM      2  C   UNL     1      38.855  -1.247  14.098  0.00  0.00    +0.000 C 
ATOM      3  O   UNL     1      38.895  -0.420  13.149  0.00  0.00    +0.000 OA
ATOM      4  C   UNL     1      37.643  -1.489  14.870  0.00  0.00    +0.000 C 
ATOM      5  C   UNL     1      37.933  -2.401  15.780  0.00  0.00    +0.000 C 
ATOM      6  C   UNL     1      39.333  -2.806  15.661  0.00  0.00    +0.000 C 
ATOM      7  O   UNL     1      39.927  -3.650  16.369  0.00  0.00    +0.000 OA
ENDROOT
BRANCH   1  11
ATOM      8  C   UNL     1      43.916  -2.203  13.146  0.00  0.00    +0.000 A 
ATOM      9  C   UNL     1      43.509  -1.245  14.051  0.00  0.00    +0.000 A 
ATOM     10  C   UNL     1      42.211  -1.203  14.516  0.00  0.00    +0.000 A 
ATOM     11  C   UNL     1      41.261  -2.122  14.093  0.00  0.00    +0.000 A 
ATOM     12  C   UNL     1      41.680  -3.073  13.187  0.00  0.00    +0.000 A 
ATOM     13  C   UNL     1      42.976  -3.116  12.722  0.00  0.00    +0.000 A 
BRANCH   8  14
ATOM     14  O   UNL     1      45.209  -2.277  12.655  0.00  0.00    +0.000 OA
BRANCH  14  16
ATOM     15  C   UNL     1      46.461  -4.336  12.818  0.00  0.00    +0.000 C 
ATOM     16  C   UNL     1      45.574  -3.467  11.979  0.00  0.00    +0.000 C 
ENDBRANCH  14  16
ENDBRANCH   8  14
ENDBRANCH   1  11
BRANCH   4  17
ATOM     17  N   UNL     1      36.360  -0.883  14.712  0.00  0.00    +0.000 NA
BRANCH  17  18
ATOM     18  C   UNL     1      36.114   0.471  15.039  0.00  0.00    +0.000 A 
ATOM     19  C   UNL     1      36.517   1.451  14.164  0.00  0.00    +0.000 A 
ATOM     20  C   UNL     1      36.316   2.794  14.406  0.00  0.00    +0.000 A 
ATOM     21  C   UNL     1      35.679   3.117  15.589  0.00  0.00    +0.000 A 
ATOM     22  C   UNL     1      35.273   2.161  16.464  0.00  0.00    +0.000 A 
ATOM     23  C   UNL     1      35.491   0.812  16.192  0.00  0.00    +0.000 A 
BRANCH  23  24
ATOM     24  C   UNL     1      35.034  -0.198  17.175  0.00  0.00    +0.000 C 
ATOM     25  C   UNL     1      35.612   0.099  18.542  0.00  0.00    +0.000 C 
ENDBRANCH  23  24
ENDBRANCH  17  18
ENDBRANCH   4  17
BRANCH   5  26
ATOM     26  S   UNL     1      36.799  -3.059  16.988  0.00  0.00    +0.000 S 
BRANCH  26  27
ATOM     27  C   UNL     1      35.564  -4.082  16.203  0.00  0.00    +0.000 A 
ATOM     28  C   UNL     1      35.740  -5.451  16.142  0.00  0.00    +0.000 A 
ATOM     29  C   UNL     1      34.814  -6.299  15.543  0.00  0.00    +0.000 A 
ATOM     30  C   UNL     1      33.667  -5.770  14.985  0.00  0.00    +0.000 A 
ATOM     31  C   UNL     1      33.486  -4.387  15.047  0.00  0.00    +0.000 A 
ATOM     32  C   UNL     1      34.414  -3.569  15.641  0.00  0.00    +0.000 A 
ENDBRANCH  26  27
ENDBRANCH   5  26
TORSDOF 8
ENDMDL
MODEL 10
REMARK VINA RESULT:      -7.0      1.425      5.137
REMARK  Name = 
REMARK  8 active torsions:
REMARK  status: ('A' for Active; 'I' for Inactive)
REMARK    1  A    between atoms: C_2  and  O_3
REMARK    2  A    between atoms: O_3  and  C_4
REMARK    3  A    between atoms: C_7  and  N_8
REMARK    4  A    between atoms: C_11  and  N_12
REMARK    5  A    between atoms: N_12  and  C_13
REMARK    6  A    between atoms: C_18  and  C_19
REMARK    7  A    between atoms: C_21  and  S_22
REMARK    8  A    between atoms: S_22  and  C_23
REMARK                            x       y       z     vdW  Elec       q    Type
REMARK                         _______ _______ _______ _____ _____    ______ ____
ROOT
ATOM      1  N   UNL     1      36.873   3.724  15.392  0.00  0.00    +0.000 N 
ATOM      2  C   UNL     1      36.214   4.759  14.670  0.00  0.00    +0.000 C 
ATOM      3  O   UNL     1      35.105   4.697  14.076  0.00  0.00    +0.000 OA
ATOM      4  C   UNL     1      37.016   5.974  14.699  0.00  0.00    +0.000 C 
ATOM      5  C   UNL     1      38.106   5.708  15.396  0.00  0.00    +0.000 C 
ATOM      6  C   UNL     1      38.084   4.321  15.859  0.00  0.00    +0.000 C 
ATOM      7  O   UNL     1      38.962   3.750  16.543  0.00  0.00    +0.000 OA
ENDROOT
BRANCH   1  11
ATOM      8  C   UNL     1      35.476  -0.246  16.030  0.00  0.00    +0.000 A 
ATOM      9  C   UNL     1      35.055   0.802  16.822  0.00  0.00    +0.000 A 
ATOM     10  C   UNL     1      35.508   2.087  16.613  0.00  0.00    +0.000 A 
ATOM     11  C   UNL     1      36.409   2.380  15.597  0.00  0.00    +0.000 A 
ATOM     12  C   UNL     1      36.823   1.324  14.814  0.00  0.00    +0.000 A 
ATOM     13  C   UNL     1      36.369   0.039  15.022  0.00  0.00    +0.000 A 
BRANCH   8  14
ATOM     14  O   UNL     1      35.043  -1.550  16.209  0.00  0.00    +0.000 OA
BRANCH  14  16
ATOM     15  C   UNL     1      36.686  -2.519  17.689  0.00  0.00    +0.000 C 
ATOM     16  C   UNL     1      35.254  -2.129  17.484  0.00  0.00    +0.000 C 
ENDBRANCH  14  16
ENDBRANCH   8  14
ENDBRANCH   1  11
BRANCH   4  17
ATOM     17  N   UNL     1      36.724   7.238  14.105  0.00  0.00    +0.000 NA
BRANCH  17  18
ATOM     18  C   UNL     1      35.841   8.170  14.698  0.00  0.00    +0.000 A 
ATOM     19  C   UNL     1      36.218   8.800  15.860  0.00  0.00    +0.000 A 
ATOM     20  C   UNL     1      35.418   9.720  16.503  0.00  0.00    +0.000 A 
ATOM     21  C   UNL     1      34.195   9.988  15.917  0.00  0.00    +0.000 A 
ATOM     22  C   UNL     1      33.807   9.375  14.769  0.00  0.00    +0.000 A 
ATOM     23  C   UNL     1      34.638   8.449  14.142  0.00  0.00    +0.000 A 
BRANCH  23  24
ATOM     24  C   UNL     1      34.174   7.804  12.892  0.00  0.00    +0.000 C 
ATOM     25  C   UNL     1      34.351   8.743  11.718  0.00  0.00    +0.000 C 
ENDBRANCH  23  24
ENDBRANCH  17  18
ENDBRANCH   4  17
BRANCH   5  26
ATOM     26  S   UNL     1      39.427   6.856  15.736  0.00  0.00    +0.000 S 
BRANCH  26  27
ATOM     27  C   UNL     1      39.948   6.733  17.440  0.00  0.00    +0.000 A 
ATOM     28  C   UNL     1      41.280   6.523  17.740  0.00  0.00    +0.000 A 
ATOM     29  C   UNL     1      41.746   6.418  19.046  0.00  0.00    +0.000 A 
ATOM     30  C   UNL     1      40.856   6.527  20.097  0.00  0.00    +0.000 A 
ATOM     31  C   UNL     1      39.509   6.740  19.797  0.00  0.00    +0.000 A 
ATOM     32  C   UNL     1      39.072   6.840  18.500  0.00  0.00    +0.000 A 
ENDBRANCH  26  27
ENDBRANCH   5  26
TORSDOF 8
ENDMDL
