MODEL 1
REMARK VINA RESULT:      -6.9      0.000      0.000
REMARK  Name = 
REMARK  1 active torsions:
REMARK  status: ('A' for Active; 'I' for Inactive)
REMARK    1  A    between atoms: C_4  and  C_5
REMARK                            x       y       z     vdW  Elec       q    Type
REMARK                         _______ _______ _______ _____ _____    ______ ____
ROOT
ATOM      1  C   UNL     1      17.766  -7.199  27.475  0.00  0.00    +0.000 C 
ATOM      2  C   UNL     1      18.761  -6.788  26.738  0.00  0.00    +0.000 C 
ATOM      3  C   UNL     1      18.976  -5.398  26.256  0.00  0.00    +0.000 C 
ATOM      4  O   UNL     1      18.175  -4.460  26.497  0.00  0.00    +0.000 OA
ATOM      5  N   UNL     1      20.196  -5.436  25.536  0.00  0.00    +0.000 NA
ATOM      6  C   UNL     1      20.753  -6.739  25.535  0.00  0.00    +0.000 A 
ATOM      7  C   UNL     1      21.923  -7.271  24.985  0.00  0.00    +0.000 A 
ATOM      8  C   UNL     1      22.266  -8.591  25.131  0.00  0.00    +0.000 A 
ATOM      9 CL   UNL     1      23.722  -9.287  24.456  0.00  0.00    +0.000 Cl
ATOM     10  C   UNL     1      21.418  -9.412  25.850  0.00  0.00    +0.000 A 
ATOM     11  C   UNL     1      20.274  -8.870  26.381  0.00  0.00    +0.000 A 
ATOM     12  C   UNL     1      19.894  -7.569  26.260  0.00  0.00    +0.000 A 
ENDROOT
BRANCH   1  16
ATOM     13  C   UNL     1      18.176 -11.465  30.127  0.00  0.00    +0.000 C 
ATOM     14  C   UNL     1      17.819 -10.478  29.044  0.00  0.00    +0.000 A 
ATOM     15  C   UNL     1      18.175  -9.158  29.025  0.00  0.00    +0.000 A 
ATOM     16  C   UNL     1      17.656  -8.596  27.881  0.00  0.00    +0.000 A 
ATOM     17  C   UNL     1      16.977  -9.604  27.206  0.00  0.00    +0.000 A 
ATOM     18  C   UNL     1      16.249  -9.472  25.918  0.00  0.00    +0.000 C 
ATOM     19  N   UNL     1      17.085 -10.750  27.929  0.00  0.00    +0.000 N 
ATOM     20  C   UNL     1      16.528 -12.052  27.609  0.00  0.00    +0.000 C 
ENDBRANCH   1  16
TORSDOF 1
ENDMDL
MODEL 2
REMARK VINA RESULT:      -6.4      0.803      1.797
REMARK  Name = 
REMARK  1 active torsions:
REMARK  status: ('A' for Active; 'I' for Inactive)
REMARK    1  A    between atoms: C_4  and  C_5
REMARK                            x       y       z     vdW  Elec       q    Type
REMARK                         _______ _______ _______ _____ _____    ______ ____
ROOT
ATOM      1  C   UNL     1      17.773  -7.613  27.242  0.00  0.00    +0.000 C 
ATOM      2  C   UNL     1      18.738  -6.989  26.624  0.00  0.00    +0.000 C 
ATOM      3  C   UNL     1      18.823  -5.523  26.390  0.00  0.00    +0.000 C 
ATOM      4  O   UNL     1      17.925  -4.721  26.752  0.00  0.00    +0.000 OA
ATOM      5  N   UNL     1      20.057  -5.321  25.723  0.00  0.00    +0.000 NA
ATOM      6  C   UNL     1      20.742  -6.545  25.526  0.00  0.00    +0.000 A 
ATOM      7  C   UNL     1      21.973  -6.862  24.942  0.00  0.00    +0.000 A 
ATOM      8  C   UNL     1      22.443  -8.148  24.879  0.00  0.00    +0.000 A 
ATOM      9 CL   UNL     1      23.977  -8.577  24.155  0.00  0.00    +0.000 Cl
ATOM     10  C   UNL     1      21.667  -9.157  25.416  0.00  0.00    +0.000 A 
ATOM     11  C   UNL     1      20.462  -8.825  25.984  0.00  0.00    +0.000 A 
ATOM     12  C   UNL     1      19.956  -7.565  26.067  0.00  0.00    +0.000 A 
ENDROOT
BRANCH   1  16
ATOM     13  C   UNL     1      17.199 -12.543  26.365  0.00  0.00    +0.000 C 
ATOM     14  C   UNL     1      17.559 -11.235  27.025  0.00  0.00    +0.000 A 
ATOM     15  C   UNL     1      17.313  -9.993  26.512  0.00  0.00    +0.000 A 
ATOM     16  C   UNL     1      17.795  -9.063  27.404  0.00  0.00    +0.000 A 
ATOM     17  C   UNL     1      18.338  -9.768  28.472  0.00  0.00    +0.000 A 
ATOM     18  C   UNL     1      18.982  -9.190  29.679  0.00  0.00    +0.000 C 
ATOM     19  N   UNL     1      18.187 -11.096  28.227  0.00  0.00    +0.000 N 
ATOM     20  C   UNL     1      18.610 -12.203  29.065  0.00  0.00    +0.000 C 
ENDBRANCH   1  16
TORSDOF 1
ENDMDL
MODEL 3
REMARK VINA RESULT:      -6.3     32.261     33.915
REMARK  Name = 
REMARK  1 active torsions:
REMARK  status: ('A' for Active; 'I' for Inactive)
REMARK    1  A    between atoms: C_4  and  C_5
REMARK                            x       y       z     vdW  Elec       q    Type
REMARK                         _______ _______ _______ _____ _____    ______ ____
ROOT
ATOM      1  C   UNL     1      27.444  22.051  28.201  0.00  0.00    +0.000 C 
ATOM      2  C   UNL     1      27.009  22.988  28.998  0.00  0.00    +0.000 C 
ATOM      3  C   UNL     1      26.258  22.780  30.264  0.00  0.00    +0.000 C 
ATOM      4  O   UNL     1      25.933  21.641  30.686  0.00  0.00    +0.000 OA
ATOM      5  N   UNL     1      26.041  24.078  30.789  0.00  0.00    +0.000 NA
ATOM      6  C   UNL     1      26.600  25.074  29.949  0.00  0.00    +0.000 A 
ATOM      7  C   UNL     1      26.658  26.468  30.037  0.00  0.00    +0.000 A 
ATOM      8  C   UNL     1      27.280  27.235  29.086  0.00  0.00    +0.000 A 
ATOM      9 CL   UNL     1      27.371  28.980  29.167  0.00  0.00    +0.000 Cl
ATOM     10  C   UNL     1      27.866  26.597  28.009  0.00  0.00    +0.000 A 
ATOM     11  C   UNL     1      27.796  25.228  27.941  0.00  0.00    +0.000 A 
ATOM     12  C   UNL     1      27.190  24.428  28.859  0.00  0.00    +0.000 A 
ENDROOT
BRANCH   1  16
ATOM     13  C   UNL     1      31.165  22.798  24.884  0.00  0.00    +0.000 C 
ATOM     14  C   UNL     1      29.793  22.700  25.504  0.00  0.00    +0.000 A 
ATOM     15  C   UNL     1      29.531  22.367  26.803  0.00  0.00    +0.000 A 
ATOM     16  C   UNL     1      28.166  22.379  26.975  0.00  0.00    +0.000 A 
ATOM     17  C   UNL     1      27.605  22.729  25.753  0.00  0.00    +0.000 A 
ATOM     18  C   UNL     1      26.157  22.868  25.449  0.00  0.00    +0.000 C 
ATOM     19  N   UNL     1      28.612  22.923  24.861  0.00  0.00    +0.000 N 
ATOM     20  C   UNL     1      28.495  23.294  23.463  0.00  0.00    +0.000 C 
ENDBRANCH   1  16
TORSDOF 1
ENDMDL
MODEL 4
REMARK VINA RESULT:      -6.3     15.198     18.484
REMARK  Name = 
REMARK  1 active torsions:
REMARK  status: ('A' for Active; 'I' for Inactive)
REMARK    1  A    between atoms: C_4  and  C_5
REMARK                            x       y       z     vdW  Elec       q    Type
REMARK                         _______ _______ _______ _____ _____    ______ ____
ROOT
ATOM      1  C   UNL     1      25.098   5.804  17.556  0.00  0.00    +0.000 C 
ATOM      2  C   UNL     1      24.881   4.529  17.726  0.00  0.00    +0.000 C 
ATOM      3  C   UNL     1      23.689   3.925  18.379  0.00  0.00    +0.000 C 
ATOM      4  O   UNL     1      22.760   4.611  18.873  0.00  0.00    +0.000 OA
ATOM      5  N   UNL     1      23.886   2.524  18.293  0.00  0.00    +0.000 NA
ATOM      6  C   UNL     1      25.104   2.213  17.637  0.00  0.00    +0.000 A 
ATOM      7  C   UNL     1      25.722   1.004  17.305  0.00  0.00    +0.000 A 
ATOM      8  C   UNL     1      26.921   0.954  16.642  0.00  0.00    +0.000 A 
ATOM      9 CL   UNL     1      27.721  -0.541  16.211  0.00  0.00    +0.000 Cl
ATOM     10  C   UNL     1      27.528   2.146  16.293  0.00  0.00    +0.000 A 
ATOM     11  C   UNL     1      26.904   3.322  16.630  0.00  0.00    +0.000 A 
ATOM     12  C   UNL     1      25.718   3.419  17.287  0.00  0.00    +0.000 A 
ENDROOT
BRANCH   1  16
ATOM     13  C   UNL     1      28.320   7.495  14.068  0.00  0.00    +0.000 C 
ATOM     14  C   UNL     1      27.738   7.037  15.382  0.00  0.00    +0.000 A 
ATOM     15  C   UNL     1      26.458   6.599  15.574  0.00  0.00    +0.000 A 
ATOM     16  C   UNL     1      26.314   6.282  16.905  0.00  0.00    +0.000 A 
ATOM     17  C   UNL     1      27.536   6.536  17.518  0.00  0.00    +0.000 A 
ATOM     18  C   UNL     1      27.863   6.347  18.954  0.00  0.00    +0.000 C 
ATOM     19  N   UNL     1      28.398   6.997  16.574  0.00  0.00    +0.000 N 
ATOM     20  C   UNL     1      29.781   7.395  16.761  0.00  0.00    +0.000 C 
ENDBRANCH   1  16
TORSDOF 1
ENDMDL
MODEL 5
REMARK VINA RESULT:      -6.1     33.127     34.260
REMARK  Name = 
REMARK  1 active torsions:
REMARK  status: ('A' for Active; 'I' for Inactive)
REMARK    1  A    between atoms: C_4  and  C_5
REMARK                            x       y       z     vdW  Elec       q    Type
REMARK                         _______ _______ _______ _____ _____    ______ ____
ROOT
ATOM      1  C   UNL     1      25.386  24.163  24.603  0.00  0.00    +0.000 C 
ATOM      2  C   UNL     1      26.476  23.896  23.937  0.00  0.00    +0.000 C 
ATOM      3  C   UNL     1      26.546  23.307  22.574  0.00  0.00    +0.000 C 
ATOM      4  O   UNL     1      25.525  22.970  21.922  0.00  0.00    +0.000 OA
ATOM      5  N   UNL     1      27.927  23.244  22.263  0.00  0.00    +0.000 NA
ATOM      6  C   UNL     1      28.718  23.748  23.327  0.00  0.00    +0.000 A 
ATOM      7  C   UNL     1      30.097  23.906  23.493  0.00  0.00    +0.000 A 
ATOM      8  C   UNL     1      30.640  24.444  24.631  0.00  0.00    +0.000 A 
ATOM      9 CL   UNL     1      32.360  24.654  24.870  0.00  0.00    +0.000 Cl
ATOM     10  C   UNL     1      29.784  24.841  25.641  0.00  0.00    +0.000 A 
ATOM     11  C   UNL     1      28.434  24.677  25.458  0.00  0.00    +0.000 A 
ATOM     12  C   UNL     1      27.852  24.148  24.348  0.00  0.00    +0.000 A 
ENDROOT
BRANCH   1  16
ATOM     13  C   UNL     1      25.722  24.613  29.612  0.00  0.00    +0.000 C 
ATOM     14  C   UNL     1      25.602  24.948  28.146  0.00  0.00    +0.000 A 
ATOM     15  C   UNL     1      25.541  24.039  27.126  0.00  0.00    +0.000 A 
ATOM     16  C   UNL     1      25.443  24.736  25.944  0.00  0.00    +0.000 A 
ATOM     17  C   UNL     1      25.443  26.088  26.267  0.00  0.00    +0.000 A 
ATOM     18  C   UNL     1      25.356  27.226  25.317  0.00  0.00    +0.000 C 
ATOM     19  N   UNL     1      25.540  26.203  27.618  0.00  0.00    +0.000 N 
ATOM     20  C   UNL     1      25.582  27.426  28.399  0.00  0.00    +0.000 C 
ENDBRANCH   1  16
TORSDOF 1
ENDMDL
MODEL 6
REMARK VINA RESULT:      -6.1     32.574     34.309
REMARK  Name = 
REMARK  1 active torsions:
REMARK  status: ('A' for Active; 'I' for Inactive)
REMARK    1  A    between atoms: C_4  and  C_5
REMARK                            x       y       z     vdW  Elec       q    Type
REMARK                         _______ _______ _______ _____ _____    ______ ____
ROOT
ATOM      1  C   UNL     1      25.776  23.287  25.115  0.00  0.00    +0.000 C 
ATOM      2  C   UNL     1      26.353  23.944  24.147  0.00  0.00    +0.000 C 
ATOM      3  C   UNL     1      26.196  23.675  22.692  0.00  0.00    +0.000 C 
ATOM      4  O   UNL     1      25.490  22.737  22.244  0.00  0.00    +0.000 OA
ATOM      5  N   UNL     1      26.977  24.663  22.043  0.00  0.00    +0.000 NA
ATOM      6  C   UNL     1      27.605  25.522  22.980  0.00  0.00    +0.000 A 
ATOM      7  C   UNL     1      28.446  26.629  22.837  0.00  0.00    +0.000 A 
ATOM      8  C   UNL     1      28.928  27.325  23.916  0.00  0.00    +0.000 A 
ATOM      9 CL   UNL     1      29.982  28.714  23.772  0.00  0.00    +0.000 Cl
ATOM     10  C   UNL     1      28.561  26.908  25.182  0.00  0.00    +0.000 A 
ATOM     11  C   UNL     1      27.736  25.818  25.299  0.00  0.00    +0.000 A 
ATOM     12  C   UNL     1      27.236  25.098  24.259  0.00  0.00    +0.000 A 
ENDROOT
BRANCH   1  16
ATOM     13  C   UNL     1      25.257  25.300  29.706  0.00  0.00    +0.000 C 
ATOM     14  C   UNL     1      25.791  24.508  28.539  0.00  0.00    +0.000 A 
ATOM     15  C   UNL     1      25.245  24.476  27.286  0.00  0.00    +0.000 A 
ATOM     16  C   UNL     1      26.014  23.638  26.511  0.00  0.00    +0.000 A 
ATOM     17  C   UNL     1      27.039  23.163  27.321  0.00  0.00    +0.000 A 
ATOM     18  C   UNL     1      28.119  22.223  26.924  0.00  0.00    +0.000 C 
ATOM     19  N   UNL     1      26.891  23.704  28.558  0.00  0.00    +0.000 N 
ATOM     20  C   UNL     1      27.727  23.485  29.725  0.00  0.00    +0.000 C 
ENDBRANCH   1  16
TORSDOF 1
ENDMDL
MODEL 7
REMARK VINA RESULT:      -6.1     32.813     33.980
REMARK  Name = 
REMARK  1 active torsions:
REMARK  status: ('A' for Active; 'I' for Inactive)
REMARK    1  A    between atoms: C_4  and  C_5
REMARK                            x       y       z     vdW  Elec       q    Type
REMARK                         _______ _______ _______ _____ _____    ______ ____
ROOT
ATOM      1  C   UNL     1      28.789  22.994  24.403  0.00  0.00    +0.000 C 
ATOM      2  C   UNL     1      27.584  23.444  24.624  0.00  0.00    +0.000 C 
ATOM      3  C   UNL     1      26.460  23.450  23.650  0.00  0.00    +0.000 C 
ATOM      4  O   UNL     1      26.578  23.034  22.470  0.00  0.00    +0.000 OA
ATOM      5  N   UNL     1      25.357  23.994  24.354  0.00  0.00    +0.000 NA
ATOM      6  C   UNL     1      25.709  24.324  25.687  0.00  0.00    +0.000 A 
ATOM      7  C   UNL     1      24.984  24.863  26.754  0.00  0.00    +0.000 A 
ATOM      8  C   UNL     1      25.549  25.085  27.983  0.00  0.00    +0.000 A 
ATOM      9 CL   UNL     1      24.671  25.758  29.339  0.00  0.00    +0.000 Cl
ATOM     10  C   UNL     1      26.881  24.759  28.162  0.00  0.00    +0.000 A 
ATOM     11  C   UNL     1      27.573  24.232  27.100  0.00  0.00    +0.000 A 
ATOM     12  C   UNL     1      27.055  23.996  25.865  0.00  0.00    +0.000 A 
ENDROOT
BRANCH   1  16
ATOM     13  C   UNL     1      31.696  21.785  28.339  0.00  0.00    +0.000 C 
ATOM     14  C   UNL     1      31.109  22.523  27.161  0.00  0.00    +0.000 A 
ATOM     15  C   UNL     1      30.035  22.113  26.422  0.00  0.00    +0.000 A 
ATOM     16  C   UNL     1      29.816  23.050  25.439  0.00  0.00    +0.000 A 
ATOM     17  C   UNL     1      30.778  24.039  25.598  0.00  0.00    +0.000 A 
ATOM     18  C   UNL     1      30.942  25.258  24.764  0.00  0.00    +0.000 C 
ATOM     19  N   UNL     1      31.563  23.705  26.656  0.00  0.00    +0.000 N 
ATOM     20  C   UNL     1      32.697  24.442  27.182  0.00  0.00    +0.000 C 
ENDBRANCH   1  16
TORSDOF 1
ENDMDL
MODEL 8
REMARK VINA RESULT:      -6.0     32.571     34.035
REMARK  Name = 
REMARK  1 active torsions:
REMARK  status: ('A' for Active; 'I' for Inactive)
REMARK    1  A    between atoms: C_4  and  C_5
REMARK                            x       y       z     vdW  Elec       q    Type
REMARK                         _______ _______ _______ _____ _____    ______ ____
ROOT
ATOM      1  C   UNL     1      27.513  22.492  27.771  0.00  0.00    +0.000 C 
ATOM      2  C   UNL     1      26.855  23.112  28.712  0.00  0.00    +0.000 C 
ATOM      3  C   UNL     1      26.755  22.688  30.134  0.00  0.00    +0.000 C 
ATOM      4  O   UNL     1      27.289  21.638  30.572  0.00  0.00    +0.000 OA
ATOM      5  N   UNL     1      25.977  23.688  30.769  0.00  0.00    +0.000 NA
ATOM      6  C   UNL     1      25.589  24.698  29.853  0.00  0.00    +0.000 A 
ATOM      7  C   UNL     1      24.845  25.873  29.994  0.00  0.00    +0.000 A 
ATOM      8  C   UNL     1      24.607  26.719  28.942  0.00  0.00    +0.000 A 
ATOM      9 CL   UNL     1      23.680  28.196  29.086  0.00  0.00    +0.000 Cl
ATOM     10  C   UNL     1      25.128  26.389  27.705  0.00  0.00    +0.000 A 
ATOM     11  C   UNL     1      25.855  25.231  27.588  0.00  0.00    +0.000 A 
ATOM     12  C   UNL     1      26.114  24.362  28.602  0.00  0.00    +0.000 A 
ENDROOT
BRANCH   1  16
ATOM     13  C   UNL     1      26.208  23.468  23.002  0.00  0.00    +0.000 C 
ATOM     14  C   UNL     1      26.964  23.448  24.307  0.00  0.00    +0.000 A 
ATOM     15  C   UNL     1      26.592  22.760  25.429  0.00  0.00    +0.000 A 
ATOM     16  C   UNL     1      27.533  23.002  26.404  0.00  0.00    +0.000 A 
ATOM     17  C   UNL     1      28.484  23.850  25.850  0.00  0.00    +0.000 A 
ATOM     18  C   UNL     1      29.691  24.390  26.527  0.00  0.00    +0.000 C 
ATOM     19  N   UNL     1      28.123  24.115  24.567  0.00  0.00    +0.000 N 
ATOM     20  C   UNL     1      28.817  24.959  23.611  0.00  0.00    +0.000 C 
ENDBRANCH   1  16
TORSDOF 1
ENDMDL
MODEL 9
REMARK VINA RESULT:      -6.0     19.796     21.813
REMARK  Name = 
REMARK  1 active torsions:
REMARK  status: ('A' for Active; 'I' for Inactive)
REMARK    1  A    between atoms: C_4  and  C_5
REMARK                            x       y       z     vdW  Elec       q    Type
REMARK                         _______ _______ _______ _____ _____    ______ ____
ROOT
ATOM      1  C   UNL     1      17.433   9.568  40.629  0.00  0.00    +0.000 C 
ATOM      2  C   UNL     1      17.386   8.478  41.344  0.00  0.00    +0.000 C 
ATOM      3  C   UNL     1      16.623   8.292  42.607  0.00  0.00    +0.000 C 
ATOM      4  O   UNL     1      15.951   9.210  43.140  0.00  0.00    +0.000 OA
ATOM      5  N   UNL     1      16.848   6.944  42.986  0.00  0.00    +0.000 NA
ATOM      6  C   UNL     1      17.690   6.282  42.057  0.00  0.00    +0.000 A 
ATOM      7  C   UNL     1      18.181   4.975  41.985  0.00  0.00    +0.000 A 
ATOM      8  C   UNL     1      18.986   4.552  40.959  0.00  0.00    +0.000 A 
ATOM      9 CL   UNL     1      19.616   2.924  40.839  0.00  0.00    +0.000 Cl
ATOM     10  C   UNL     1      19.314   5.457  39.967  0.00  0.00    +0.000 A 
ATOM     11  C   UNL     1      18.822   6.735  40.058  0.00  0.00    +0.000 A 
ATOM     12  C   UNL     1      18.023   7.198  41.056  0.00  0.00    +0.000 A 
ENDROOT
BRANCH   1  16
ATOM     13  C   UNL     1      18.762   9.486  35.768  0.00  0.00    +0.000 C 
ATOM     14  C   UNL     1      18.822   9.613  37.270  0.00  0.00    +0.000 A 
ATOM     15  C   UNL     1      17.773   9.420  38.125  0.00  0.00    +0.000 A 
ATOM     16  C   UNL     1      18.227   9.634  39.407  0.00  0.00    +0.000 A 
ATOM     17  C   UNL     1      19.574   9.960  39.311  0.00  0.00    +0.000 A 
ATOM     18  C   UNL     1      20.490  10.280  40.436  0.00  0.00    +0.000 C 
ATOM     19  N   UNL     1      19.925   9.943  37.999  0.00  0.00    +0.000 N 
ATOM     20  C   UNL     1      21.231  10.227  37.429  0.00  0.00    +0.000 C 
ENDBRANCH   1  16
TORSDOF 1
ENDMDL
MODEL 10
REMARK VINA RESULT:      -5.9     33.330     34.655
REMARK  Name = 
REMARK  1 active torsions:
REMARK  status: ('A' for Active; 'I' for Inactive)
REMARK    1  A    between atoms: C_4  and  C_5
REMARK                            x       y       z     vdW  Elec       q    Type
REMARK                         _______ _______ _______ _____ _____    ______ ____
ROOT
ATOM      1  C   UNL     1      30.564  23.819  23.791  0.00  0.00    +0.000 C 
ATOM      2  C   UNL     1      29.336  24.164  23.517  0.00  0.00    +0.000 C 
ATOM      3  C   UNL     1      28.758  24.331  22.157  0.00  0.00    +0.000 C 
ATOM      4  O   UNL     1      29.430  24.181  21.106  0.00  0.00    +0.000 OA
ATOM      5  N   UNL     1      27.397  24.670  22.368  0.00  0.00    +0.000 NA
ATOM      6  C   UNL     1      27.088  24.723  23.750  0.00  0.00    +0.000 A 
ATOM      7  C   UNL     1      25.908  24.995  24.450  0.00  0.00    +0.000 A 
ATOM      8  C   UNL     1      25.848  24.973  25.819  0.00  0.00    +0.000 A 
ATOM      9 CL   UNL     1      24.389  25.308  26.724  0.00  0.00    +0.000 Cl
ATOM     10  C   UNL     1      27.000  24.670  26.521  0.00  0.00    +0.000 A 
ATOM     11  C   UNL     1      28.147  24.407  25.815  0.00  0.00    +0.000 A 
ATOM     12  C   UNL     1      28.253  24.418  24.459  0.00  0.00    +0.000 A 
ENDROOT
BRANCH   1  16
ATOM     13  C   UNL     1      31.555  21.933  28.359  0.00  0.00    +0.000 C 
ATOM     14  C   UNL     1      31.474  22.871  27.181  0.00  0.00    +0.000 A 
ATOM     15  C   UNL     1      30.879  22.591  25.982  0.00  0.00    +0.000 A 
ATOM     16  C   UNL     1      31.022  23.693  25.171  0.00  0.00    +0.000 A 
ATOM     17  C   UNL     1      31.714  24.650  25.904  0.00  0.00    +0.000 A 
ATOM     18  C   UNL     1      32.105  26.007  25.443  0.00  0.00    +0.000 C 
ATOM     19  N   UNL     1      31.984  24.134  27.132  0.00  0.00    +0.000 N 
ATOM     20  C   UNL     1      32.693  24.776  28.224  0.00  0.00    +0.000 C 
ENDBRANCH   1  16
TORSDOF 1
ENDMDL
