MODEL 1
REMARK VINA RESULT:      -5.9      0.000      0.000
REMARK  Name = 
REMARK  5 active torsions:
REMARK  status: ('A' for Active; 'I' for Inactive)
REMARK    1  A    between atoms: O_2  and  C_3
REMARK    2  A    between atoms: C_6  and  S_7
REMARK    3  A    between atoms: S_7  and  C_8
REMARK    4  A    between atoms: C_14  and  C_15
REMARK    5  A    between atoms: C_18  and  O_19
REMARK                            x       y       z     vdW  Elec       q    Type
REMARK                         _______ _______ _______ _____ _____    ______ ____
ROOT
ATOM      1  C   UNL     1      25.739  24.494  29.794  0.00  0.00    +0.000 A 
ATOM      2  C   UNL     1      25.213  25.345  28.838  0.00  0.00    +0.000 A 
ATOM      3  C   UNL     1      25.331  25.069  27.485  0.00  0.00    +0.000 A 
ATOM      4  C   UNL     1      25.986  23.922  27.095  0.00  0.00    +0.000 A 
ATOM      5  C   UNL     1      26.507  23.080  28.047  0.00  0.00    +0.000 A 
ATOM      6  C   UNL     1      26.394  23.347  29.409  0.00  0.00    +0.000 A 
ENDROOT
BRANCH   1   8
ATOM      7  C   UNL     1      25.696  26.147  31.577  0.00  0.00    +0.000 C 
ATOM      8  O   UNL     1      25.591  24.823  31.152  0.00  0.00    +0.000 OA
ENDBRANCH   1   8
BRANCH   6   9
ATOM      9  O   UNL     1      26.904  22.524  30.397  0.00  0.00    +0.000 OA
ATOM     10  C   UNL     1      26.292  21.257  30.561  0.00  0.00    +0.000 C 
ENDBRANCH   6   9
BRANCH   4  11
ATOM     11  S   UNL     1      26.105  23.621  25.342  0.00  0.00    +0.000 S 
BRANCH  11  12
ATOM     12  C   UNL     1      27.728  24.002  24.711  0.00  0.00    +0.000 A 
ATOM     13  C   UNL     1      28.752  24.345  25.557  0.00  0.00    +0.000 A 
ATOM     14  C   UNL     1      29.985  24.631  25.026  0.00  0.00    +0.000 A 
ATOM     15  C   UNL     1      30.183  24.570  23.665  0.00  0.00    +0.000 A 
ATOM     16  C   UNL     1      29.143  24.225  22.835  0.00  0.00    +0.000 A 
ATOM     17  N   UNL     1      29.345  24.161  21.418  0.00  0.00    +0.000 NA
ATOM     18  C   UNL     1      27.913  23.937  23.336  0.00  0.00    +0.000 A 
BRANCH  18  19
ATOM     19  C   UNL     1      26.801  23.569  22.481  0.00  0.00    +0.000 C 
ATOM     20  N   UNL     1      25.912  23.284  21.816  0.00  0.00    +0.000 NA
ENDBRANCH  18  19
ENDBRANCH  11  12
ENDBRANCH   4  11
TORSDOF 5
ENDMDL
MODEL 2
REMARK VINA RESULT:      -5.8     17.408     19.016
REMARK  Name = 
REMARK  5 active torsions:
REMARK  status: ('A' for Active; 'I' for Inactive)
REMARK    1  A    between atoms: O_2  and  C_3
REMARK    2  A    between atoms: C_6  and  S_7
REMARK    3  A    between atoms: S_7  and  C_8
REMARK    4  A    between atoms: C_14  and  C_15
REMARK    5  A    between atoms: C_18  and  O_19
REMARK                            x       y       z     vdW  Elec       q    Type
REMARK                         _______ _______ _______ _____ _____    ______ ____
ROOT
ATOM      1  C   UNL     1      21.418  12.266  38.146  0.00  0.00    +0.000 A 
ATOM      2  C   UNL     1      20.129  12.736  38.336  0.00  0.00    +0.000 A 
ATOM      3  C   UNL     1      19.027  11.940  38.069  0.00  0.00    +0.000 A 
ATOM      4  C   UNL     1      19.227  10.658  37.607  0.00  0.00    +0.000 A 
ATOM      5  C   UNL     1      20.507  10.196  37.420  0.00  0.00    +0.000 A 
ATOM      6  C   UNL     1      21.623  10.987  37.684  0.00  0.00    +0.000 A 
ENDROOT
BRANCH   1   8
ATOM      7  C   UNL     1      22.613  13.726  39.680  0.00  0.00    +0.000 C 
ATOM      8  O   UNL     1      22.499  13.116  38.432  0.00  0.00    +0.000 OA
ENDBRANCH   1   8
BRANCH   6   9
ATOM      9  O   UNL     1      22.926  10.557  37.510  0.00  0.00    +0.000 OA
ATOM     10  C   UNL     1      23.424  10.526  36.183  0.00  0.00    +0.000 C 
ENDBRANCH   6   9
BRANCH   4  11
ATOM     11  S   UNL     1      17.771   9.684  37.282  0.00  0.00    +0.000 S 
BRANCH  11  12
ATOM     12  C   UNL     1      16.361  10.704  36.893  0.00  0.00    +0.000 A 
ATOM     13  C   UNL     1      15.489  11.107  37.873  0.00  0.00    +0.000 A 
ATOM     14  C   UNL     1      14.418  11.891  37.527  0.00  0.00    +0.000 A 
ATOM     15  C   UNL     1      14.228  12.263  36.215  0.00  0.00    +0.000 A 
ATOM     16  C   UNL     1      15.113  11.848  35.248  0.00  0.00    +0.000 A 
ATOM     17  N   UNL     1      14.919  12.233  33.882  0.00  0.00    +0.000 NA
ATOM     18  C   UNL     1      16.182  11.071  35.566  0.00  0.00    +0.000 A 
BRANCH  18  19
ATOM     19  C   UNL     1      17.130  10.621  34.565  0.00  0.00    +0.000 C 
ATOM     20  N   UNL     1      17.886  10.256  33.785  0.00  0.00    +0.000 NA
ENDBRANCH  18  19
ENDBRANCH  11  12
ENDBRANCH   4  11
TORSDOF 5
ENDMDL
MODEL 3
REMARK VINA RESULT:      -5.5      4.289      7.166
REMARK  Name = 
REMARK  5 active torsions:
REMARK  status: ('A' for Active; 'I' for Inactive)
REMARK    1  A    between atoms: O_2  and  C_3
REMARK    2  A    between atoms: C_6  and  S_7
REMARK    3  A    between atoms: S_7  and  C_8
REMARK    4  A    between atoms: C_14  and  C_15
REMARK    5  A    between atoms: C_18  and  O_19
REMARK                            x       y       z     vdW  Elec       q    Type
REMARK                         _______ _______ _______ _____ _____    ______ ____
ROOT
ATOM      1  C   UNL     1      29.405  23.642  23.302  0.00  0.00    +0.000 A 
ATOM      2  C   UNL     1      28.055  23.458  23.548  0.00  0.00    +0.000 A 
ATOM      3  C   UNL     1      27.602  23.023  24.783  0.00  0.00    +0.000 A 
ATOM      4  C   UNL     1      28.520  22.773  25.779  0.00  0.00    +0.000 A 
ATOM      5  C   UNL     1      29.858  22.957  25.531  0.00  0.00    +0.000 A 
ATOM      6  C   UNL     1      30.326  23.393  24.293  0.00  0.00    +0.000 A 
ENDROOT
BRANCH   1   8
ATOM      7  C   UNL     1      29.012  24.962  21.297  0.00  0.00    +0.000 C 
ATOM      8  O   UNL     1      29.809  24.084  22.031  0.00  0.00    +0.000 OA
ENDBRANCH   1   8
BRANCH   6   9
ATOM      9  O   UNL     1      31.664  23.591  24.005  0.00  0.00    +0.000 OA
ATOM     10  C   UNL     1      32.502  23.996  25.074  0.00  0.00    +0.000 C 
ENDBRANCH   6   9
BRANCH   4  11
ATOM     11  S   UNL     1      27.876  22.217  27.345  0.00  0.00    +0.000 S 
BRANCH  11  12
ATOM     12  C   UNL     1      26.786  23.420  28.081  0.00  0.00    +0.000 A 
ATOM     13  C   UNL     1      25.890  24.123  27.316  0.00  0.00    +0.000 A 
ATOM     14  C   UNL     1      25.070  25.039  27.925  0.00  0.00    +0.000 A 
ATOM     15  C   UNL     1      25.152  25.244  29.284  0.00  0.00    +0.000 A 
ATOM     16  C   UNL     1      26.058  24.530  30.033  0.00  0.00    +0.000 A 
ATOM     17  N   UNL     1      26.146  24.740  31.448  0.00  0.00    +0.000 NA
ATOM     18  C   UNL     1      26.880  23.616  29.453  0.00  0.00    +0.000 A 
BRANCH  18  19
ATOM     19  C   UNL     1      27.842  22.851  30.221  0.00  0.00    +0.000 C 
ATOM     20  N   UNL     1      28.613  22.258  30.827  0.00  0.00    +0.000 NA
ENDBRANCH  18  19
ENDBRANCH  11  12
ENDBRANCH   4  11
TORSDOF 5
ENDMDL
MODEL 4
REMARK VINA RESULT:      -5.5     18.714     20.183
REMARK  Name = 
REMARK  5 active torsions:
REMARK  status: ('A' for Active; 'I' for Inactive)
REMARK    1  A    between atoms: O_2  and  C_3
REMARK    2  A    between atoms: C_6  and  S_7
REMARK    3  A    between atoms: S_7  and  C_8
REMARK    4  A    between atoms: C_14  and  C_15
REMARK    5  A    between atoms: C_18  and  O_19
REMARK                            x       y       z     vdW  Elec       q    Type
REMARK                         _______ _______ _______ _____ _____    ______ ____
ROOT
ATOM      1  C   UNL     1      20.356   9.482  39.645  0.00  0.00    +0.000 A 
ATOM      2  C   UNL     1      20.189  10.741  39.095  0.00  0.00    +0.000 A 
ATOM      3  C   UNL     1      18.997  11.112  38.494  0.00  0.00    +0.000 A 
ATOM      4  C   UNL     1      17.964  10.202  38.448  0.00  0.00    +0.000 A 
ATOM      5  C   UNL     1      18.134   8.954  38.994  0.00  0.00    +0.000 A 
ATOM      6  C   UNL     1      19.327   8.570  39.601  0.00  0.00    +0.000 A 
ENDROOT
BRANCH   1   8
ATOM      7  C   UNL     1      22.693   8.834  39.458  0.00  0.00    +0.000 C 
ATOM      8  O   UNL     1      21.586   9.159  40.242  0.00  0.00    +0.000 OA
ENDBRANCH   1   8
BRANCH   6   9
ATOM      9  O   UNL     1      19.536   7.323  40.163  0.00  0.00    +0.000 OA
ATOM     10  C   UNL     1      18.395   6.507  40.366  0.00  0.00    +0.000 C 
ENDBRANCH   6   9
BRANCH   4  11
ATOM     11  S   UNL     1      16.457  10.737  37.662  0.00  0.00    +0.000 S 
BRANCH  11  12
ATOM     12  C   UNL     1      16.604  10.758  35.885  0.00  0.00    +0.000 A 
ATOM     13  C   UNL     1      17.613  10.078  35.252  0.00  0.00    +0.000 A 
ATOM     14  C   UNL     1      17.688  10.122  33.883  0.00  0.00    +0.000 A 
ATOM     15  C   UNL     1      16.760  10.841  33.163  0.00  0.00    +0.000 A 
ATOM     16  C   UNL     1      15.757  11.517  33.816  0.00  0.00    +0.000 A 
ATOM     17  N   UNL     1      14.790  12.266  33.071  0.00  0.00    +0.000 NA
ATOM     18  C   UNL     1      15.661  11.488  35.172  0.00  0.00    +0.000 A 
BRANCH  18  19
ATOM     19  C   UNL     1      14.613  12.191  35.885  0.00  0.00    +0.000 C 
ATOM     20  N   UNL     1      13.791  12.744  36.461  0.00  0.00    +0.000 NA
ENDBRANCH  18  19
ENDBRANCH  11  12
ENDBRANCH   4  11
TORSDOF 5
ENDMDL
MODEL 5
REMARK VINA RESULT:      -5.4      2.527      3.465
REMARK  Name = 
REMARK  5 active torsions:
REMARK  status: ('A' for Active; 'I' for Inactive)
REMARK    1  A    between atoms: O_2  and  C_3
REMARK    2  A    between atoms: C_6  and  S_7
REMARK    3  A    between atoms: S_7  and  C_8
REMARK    4  A    between atoms: C_14  and  C_15
REMARK    5  A    between atoms: C_18  and  O_19
REMARK                            x       y       z     vdW  Elec       q    Type
REMARK                         _______ _______ _______ _____ _____    ______ ____
ROOT
ATOM      1  C   UNL     1      24.405  26.597  26.563  0.00  0.00    +0.000 A 
ATOM      2  C   UNL     1      24.683  26.323  25.235  0.00  0.00    +0.000 A 
ATOM      3  C   UNL     1      25.300  25.141  24.857  0.00  0.00    +0.000 A 
ATOM      4  C   UNL     1      25.637  24.227  25.830  0.00  0.00    +0.000 A 
ATOM      5  C   UNL     1      25.359  24.502  27.147  0.00  0.00    +0.000 A 
ATOM      6  C   UNL     1      24.740  25.687  27.538  0.00  0.00    +0.000 A 
ENDROOT
BRANCH   1   8
ATOM      7  C   UNL     1      22.817  28.365  26.044  0.00  0.00    +0.000 C 
ATOM      8  O   UNL     1      23.779  27.812  26.889  0.00  0.00    +0.000 OA
ENDBRANCH   1   8
BRANCH   6   9
ATOM      9  O   UNL     1      24.443  26.000  28.852  0.00  0.00    +0.000 OA
ATOM     10  C   UNL     1      25.203  25.353  29.858  0.00  0.00    +0.000 C 
ENDBRANCH   6   9
BRANCH   4  11
ATOM     11  S   UNL     1      26.427  22.725  25.283  0.00  0.00    +0.000 S 
BRANCH  11  12
ATOM     12  C   UNL     1      28.136  22.653  25.784  0.00  0.00    +0.000 A 
ATOM     13  C   UNL     1      28.480  22.391  27.086  0.00  0.00    +0.000 A 
ATOM     14  C   UNL     1      29.809  22.345  27.426  0.00  0.00    +0.000 A 
ATOM     15  C   UNL     1      30.775  22.559  26.469  0.00  0.00    +0.000 A 
ATOM     16  C   UNL     1      30.409  22.820  25.169  0.00  0.00    +0.000 A 
ATOM     17  N   UNL     1      31.412  23.042  24.170  0.00  0.00    +0.000 NA
ATOM     18  C   UNL     1      29.100  22.870  24.808  0.00  0.00    +0.000 A 
BRANCH  18  19
ATOM     19  C   UNL     1      28.689  23.143  23.444  0.00  0.00    +0.000 C 
ATOM     20  N   UNL     1      28.377  23.366  22.364  0.00  0.00    +0.000 NA
ENDBRANCH  18  19
ENDBRANCH  11  12
ENDBRANCH   4  11
TORSDOF 5
ENDMDL
MODEL 6
REMARK VINA RESULT:      -5.3      1.019      2.280
REMARK  Name = 
REMARK  5 active torsions:
REMARK  status: ('A' for Active; 'I' for Inactive)
REMARK    1  A    between atoms: O_2  and  C_3
REMARK    2  A    between atoms: C_6  and  S_7
REMARK    3  A    between atoms: S_7  and  C_8
REMARK    4  A    between atoms: C_14  and  C_15
REMARK    5  A    between atoms: C_18  and  O_19
REMARK                            x       y       z     vdW  Elec       q    Type
REMARK                         _______ _______ _______ _____ _____    ______ ____
ROOT
ATOM      1  C   UNL     1      25.534  24.817  29.968  0.00  0.00    +0.000 A 
ATOM      2  C   UNL     1      26.159  23.661  29.534  0.00  0.00    +0.000 A 
ATOM      3  C   UNL     1      26.243  23.350  28.186  0.00  0.00    +0.000 A 
ATOM      4  C   UNL     1      25.690  24.216  27.268  0.00  0.00    +0.000 A 
ATOM      5  C   UNL     1      25.070  25.361  27.703  0.00  0.00    +0.000 A 
ATOM      6  C   UNL     1      24.980  25.684  29.055  0.00  0.00    +0.000 A 
ENDROOT
BRANCH   1   8
ATOM      7  C   UNL     1      26.640  25.372  32.062  0.00  0.00    +0.000 C 
ATOM      8  O   UNL     1      25.478  25.082  31.346  0.00  0.00    +0.000 OA
ENDBRANCH   1   8
BRANCH   6   9
ATOM      9  O   UNL     1      24.365  26.828  29.531  0.00  0.00    +0.000 OA
ATOM     10  C   UNL     1      23.600  27.583  28.608  0.00  0.00    +0.000 C 
ENDBRANCH   6   9
BRANCH   4  11
ATOM     11  S   UNL     1      25.829  23.762  25.550  0.00  0.00    +0.000 S 
BRANCH  11  12
ATOM     12  C   UNL     1      27.440  24.142  24.890  0.00  0.00    +0.000 A 
ATOM     13  C   UNL     1      28.437  24.629  25.697  0.00  0.00    +0.000 A 
ATOM     14  C   UNL     1      29.662  24.908  25.145  0.00  0.00    +0.000 A 
ATOM     15  C   UNL     1      29.879  24.701  23.801  0.00  0.00    +0.000 A 
ATOM     16  C   UNL     1      28.866  24.213  23.009  0.00  0.00    +0.000 A 
ATOM     17  N   UNL     1      29.087  23.995  21.611  0.00  0.00    +0.000 NA
ATOM     18  C   UNL     1      27.644  23.928  23.533  0.00  0.00    +0.000 A 
BRANCH  18  19
ATOM     19  C   UNL     1      26.560  23.412  22.719  0.00  0.00    +0.000 C 
ATOM     20  N   UNL     1      25.704  23.018  22.067  0.00  0.00    +0.000 NA
ENDBRANCH  18  19
ENDBRANCH  11  12
ENDBRANCH   4  11
TORSDOF 5
ENDMDL
MODEL 7
REMARK VINA RESULT:      -5.2     17.157     19.432
REMARK  Name = 
REMARK  5 active torsions:
REMARK  status: ('A' for Active; 'I' for Inactive)
REMARK    1  A    between atoms: O_2  and  C_3
REMARK    2  A    between atoms: C_6  and  S_7
REMARK    3  A    between atoms: S_7  and  C_8
REMARK    4  A    between atoms: C_14  and  C_15
REMARK    5  A    between atoms: C_18  and  O_19
REMARK                            x       y       z     vdW  Elec       q    Type
REMARK                         _______ _______ _______ _____ _____    ______ ____
ROOT
ATOM      1  C   UNL     1      22.427  12.527  38.272  0.00  0.00    +0.000 A 
ATOM      2  C   UNL     1      21.116  12.787  38.633  0.00  0.00    +0.000 A 
ATOM      3  C   UNL     1      20.106  11.871  38.384  0.00  0.00    +0.000 A 
ATOM      4  C   UNL     1      20.424  10.683  37.765  0.00  0.00    +0.000 A 
ATOM      5  C   UNL     1      21.725  10.429  37.407  0.00  0.00    +0.000 A 
ATOM      6  C   UNL     1      22.749  11.341  37.653  0.00  0.00    +0.000 A 
ENDROOT
BRANCH   1   8
ATOM      7  C   UNL     1      23.062  14.827  38.742  0.00  0.00    +0.000 C 
ATOM      8  O   UNL     1      23.411  13.491  38.548  0.00  0.00    +0.000 OA
ENDBRANCH   1   8
BRANCH   6   9
ATOM      9  O   UNL     1      24.071  11.122  37.310  0.00  0.00    +0.000 OA
ATOM     10  C   UNL     1      24.317  10.420  36.104  0.00  0.00    +0.000 C 
ENDBRANCH   6   9
BRANCH   4  11
ATOM     11  S   UNL     1      19.082   9.546  37.471  0.00  0.00    +0.000 S 
BRANCH  11  12
ATOM     12  C   UNL     1      17.598  10.388  36.956  0.00  0.00    +0.000 A 
ATOM     13  C   UNL     1      17.477  10.894  35.686  0.00  0.00    +0.000 A 
ATOM     14  C   UNL     1      16.316  11.534  35.334  0.00  0.00    +0.000 A 
ATOM     15  C   UNL     1      15.293  11.664  36.246  0.00  0.00    +0.000 A 
ATOM     16  C   UNL     1      15.434  11.151  37.514  0.00  0.00    +0.000 A 
ATOM     17  N   UNL     1      14.372  11.283  38.466  0.00  0.00    +0.000 NA
ATOM     18  C   UNL     1      16.575  10.511  37.887  0.00  0.00    +0.000 A 
BRANCH  18  19
ATOM     19  C   UNL     1      16.747   9.961  39.217  0.00  0.00    +0.000 C 
ATOM     20  N   UNL     1      16.888   9.541  40.274  0.00  0.00    +0.000 NA
ENDBRANCH  18  19
ENDBRANCH  11  12
ENDBRANCH   4  11
TORSDOF 5
ENDMDL
MODEL 8
REMARK VINA RESULT:      -5.2      1.905      2.545
REMARK  Name = 
REMARK  5 active torsions:
REMARK  status: ('A' for Active; 'I' for Inactive)
REMARK    1  A    between atoms: O_2  and  C_3
REMARK    2  A    between atoms: C_6  and  S_7
REMARK    3  A    between atoms: S_7  and  C_8
REMARK    4  A    between atoms: C_14  and  C_15
REMARK    5  A    between atoms: C_18  and  O_19
REMARK                            x       y       z     vdW  Elec       q    Type
REMARK                         _______ _______ _______ _____ _____    ______ ____
ROOT
ATOM      1  C   UNL     1      25.189  25.944  28.325  0.00  0.00    +0.000 A 
ATOM      2  C   UNL     1      25.083  26.297  26.990  0.00  0.00    +0.000 A 
ATOM      3  C   UNL     1      25.338  25.381  25.981  0.00  0.00    +0.000 A 
ATOM      4  C   UNL     1      25.702  24.098  26.323  0.00  0.00    +0.000 A 
ATOM      5  C   UNL     1      25.807  23.752  27.648  0.00  0.00    +0.000 A 
ATOM      6  C   UNL     1      25.553  24.663  28.671  0.00  0.00    +0.000 A 
ENDROOT
BRANCH   1   8
ATOM      7  C   UNL     1      25.820  27.949  29.547  0.00  0.00    +0.000 C 
ATOM      8  O   UNL     1      24.920  26.912  29.306  0.00  0.00    +0.000 OA
ENDBRANCH   1   8
BRANCH   6   9
ATOM      9  O   UNL     1      25.646  24.353  30.016  0.00  0.00    +0.000 OA
ATOM     10  C   UNL     1      26.378  23.190  30.361  0.00  0.00    +0.000 C 
ENDBRANCH   6   9
BRANCH   4  11
ATOM     11  S   UNL     1      26.017  22.967  24.982  0.00  0.00    +0.000 S 
BRANCH  11  12
ATOM     12  C   UNL     1      27.286  23.572  23.886  0.00  0.00    +0.000 A 
ATOM     13  C   UNL     1      26.962  24.179  22.698  0.00  0.00    +0.000 A 
ATOM     14  C   UNL     1      27.972  24.629  21.886  0.00  0.00    +0.000 A 
ATOM     15  C   UNL     1      29.286  24.470  22.263  0.00  0.00    +0.000 A 
ATOM     16  C   UNL     1      29.589  23.859  23.457  0.00  0.00    +0.000 A 
ATOM     17  N   UNL     1      30.956  23.692  23.854  0.00  0.00    +0.000 NA
ATOM     18  C   UNL     1      28.607  23.405  24.280  0.00  0.00    +0.000 A 
BRANCH  18  19
ATOM     19  C   UNL     1      28.900  22.758  25.544  0.00  0.00    +0.000 C 
ATOM     20  N   UNL     1      29.117  22.249  26.547  0.00  0.00    +0.000 NA
ENDBRANCH  18  19
ENDBRANCH  11  12
ENDBRANCH   4  11
TORSDOF 5
ENDMDL
MODEL 9
REMARK VINA RESULT:      -5.2     32.068     34.231
REMARK  Name = 
REMARK  5 active torsions:
REMARK  status: ('A' for Active; 'I' for Inactive)
REMARK    1  A    between atoms: O_2  and  C_3
REMARK    2  A    between atoms: C_6  and  S_7
REMARK    3  A    between atoms: S_7  and  C_8
REMARK    4  A    between atoms: C_14  and  C_15
REMARK    5  A    between atoms: C_18  and  O_19
REMARK                            x       y       z     vdW  Elec       q    Type
REMARK                         _______ _______ _______ _____ _____    ______ ____
ROOT
ATOM      1  C   UNL     1      12.998  -8.656  24.379  0.00  0.00    +0.000 A 
ATOM      2  C   UNL     1      14.068  -8.905  23.537  0.00  0.00    +0.000 A 
ATOM      3  C   UNL     1      15.346  -9.102  24.035  0.00  0.00    +0.000 A 
ATOM      4  C   UNL     1      15.544  -9.048  25.397  0.00  0.00    +0.000 A 
ATOM      5  C   UNL     1      14.481  -8.800  26.229  0.00  0.00    +0.000 A 
ATOM      6  C   UNL     1      13.192  -8.600  25.740  0.00  0.00    +0.000 A 
ENDROOT
BRANCH   1   8
ATOM      7  C   UNL     1      11.583  -7.913  22.546  0.00  0.00    +0.000 C 
ATOM      8  O   UNL     1      11.724  -8.463  23.820  0.00  0.00    +0.000 OA
ENDBRANCH   1   8
BRANCH   6   9
ATOM      9  O   UNL     1      12.095  -8.350  26.545  0.00  0.00    +0.000 OA
ATOM     10  C   UNL     1      11.564  -9.445  27.272  0.00  0.00    +0.000 C 
ENDBRANCH   6   9
BRANCH   4  11
ATOM     11  S   UNL     1      17.209  -9.310  25.977  0.00  0.00    +0.000 S 
BRANCH  11  12
ATOM     12  C   UNL     1      18.118  -7.781  26.102  0.00  0.00    +0.000 A 
ATOM     13  C   UNL     1      17.569  -6.680  26.709  0.00  0.00    +0.000 A 
ATOM     14  C   UNL     1      18.305  -5.525  26.781  0.00  0.00    +0.000 A 
ATOM     15  C   UNL     1      19.575  -5.479  26.251  0.00  0.00    +0.000 A 
ATOM     16  C   UNL     1      20.107  -6.594  25.646  0.00  0.00    +0.000 A 
ATOM     17  N   UNL     1      21.428  -6.551  25.093  0.00  0.00    +0.000 NA
ATOM     18  C   UNL     1      19.397  -7.750  25.562  0.00  0.00    +0.000 A 
BRANCH  18  19
ATOM     19  C   UNL     1      19.936  -8.939  24.929  0.00  0.00    +0.000 C 
ATOM     20  N   UNL     1      20.357  -9.873  24.416  0.00  0.00    +0.000 NA
ENDBRANCH  18  19
ENDBRANCH  11  12
ENDBRANCH   4  11
TORSDOF 5
ENDMDL
MODEL 10
REMARK VINA RESULT:      -5.0      4.792      7.430
REMARK  Name = 
REMARK  5 active torsions:
REMARK  status: ('A' for Active; 'I' for Inactive)
REMARK    1  A    between atoms: O_2  and  C_3
REMARK    2  A    between atoms: C_6  and  S_7
REMARK    3  A    between atoms: S_7  and  C_8
REMARK    4  A    between atoms: C_14  and  C_15
REMARK    5  A    between atoms: C_18  and  O_19
REMARK                            x       y       z     vdW  Elec       q    Type
REMARK                         _______ _______ _______ _____ _____    ______ ____
ROOT
ATOM      1  C   UNL     1      29.037  27.443  20.815  0.00  0.00    +0.000 A 
ATOM      2  C   UNL     1      29.594  26.218  20.491  0.00  0.00    +0.000 A 
ATOM      3  C   UNL     1      29.179  25.051  21.113  0.00  0.00    +0.000 A 
ATOM      4  C   UNL     1      28.192  25.122  22.071  0.00  0.00    +0.000 A 
ATOM      5  C   UNL     1      27.642  26.340  22.390  0.00  0.00    +0.000 A 
ATOM      6  C   UNL     1      28.051  27.519  21.772  0.00  0.00    +0.000 A 
ENDROOT
BRANCH   1   8
ATOM      7  C   UNL     1      29.084  28.877  18.852  0.00  0.00    +0.000 C 
ATOM      8  O   UNL     1      29.496  28.594  20.154  0.00  0.00    +0.000 OA
ENDBRANCH   1   8
BRANCH   6   9
ATOM      9  O   UNL     1      27.521  28.763  22.065  0.00  0.00    +0.000 OA
ATOM     10  C   UNL     1      26.213  29.035  21.593  0.00  0.00    +0.000 C 
ENDBRANCH   6   9
BRANCH   4  11
ATOM     11  S   UNL     1      27.701  23.589  22.835  0.00  0.00    +0.000 S 
BRANCH  11  12
ATOM     12  C   UNL     1      28.776  23.144  24.186  0.00  0.00    +0.000 A 
ATOM     13  C   UNL     1      30.126  22.995  23.994  0.00  0.00    +0.000 A 
ATOM     14  C   UNL     1      30.915  22.651  25.062  0.00  0.00    +0.000 A 
ATOM     15  C   UNL     1      30.353  22.462  26.305  0.00  0.00    +0.000 A 
ATOM     16  C   UNL     1      28.997  22.616  26.476  0.00  0.00    +0.000 A 
ATOM     17  N   UNL     1      28.408  22.420  27.767  0.00  0.00    +0.000 NA
ATOM     18  C   UNL     1      28.194  22.956  25.433  0.00  0.00    +0.000 A 
BRANCH  18  19
ATOM     19  C   UNL     1      26.763  23.125  25.588  0.00  0.00    +0.000 C 
ATOM     20  N   UNL     1      25.629  23.246  25.702  0.00  0.00    +0.000 NA
ENDBRANCH  18  19
ENDBRANCH  11  12
ENDBRANCH   4  11
TORSDOF 5
ENDMDL
