MODEL 1
REMARK VINA RESULT:      -7.7      0.000      0.000
REMARK  Name = 
REMARK  3 active torsions:
REMARK  status: ('A' for Active; 'I' for Inactive)
REMARK    1  A    between atoms: C_5  and  N_6
REMARK    2  A    between atoms: C_7  and  C_9
REMARK    3  A    between atoms: C_12  and  N_13
REMARK                            x       y       z     vdW  Elec       q    Type
REMARK                         _______ _______ _______ _____ _____    ______ ____
ROOT
ATOM      1  N   UNL     1      15.333  11.198  35.993  0.00  0.00    +0.000 NA
ATOM      2  C   UNL     1      16.588  11.417  36.620  0.00  0.00    +0.000 C 
ATOM      3  O   UNL     1      17.283  12.387  36.214  0.00  0.00    +0.000 OA
ENDROOT
BRANCH   1   8
ATOM      4  C   UNL     1      13.680  14.487  31.615  0.00  0.00    +0.000 C 
ATOM      5  C   UNL     1      14.103  13.637  32.763  0.00  0.00    +0.000 A 
ATOM      6  C   UNL     1      14.844  12.483  32.577  0.00  0.00    +0.000 A 
ATOM      7  C   UNL     1      15.221  11.719  33.662  0.00  0.00    +0.000 A 
ATOM      8  C   UNL     1      14.894  12.047  34.953  0.00  0.00    +0.000 A 
ATOM      9  C   UNL     1      14.157  13.196  35.140  0.00  0.00    +0.000 A 
ATOM     10  C   UNL     1      13.769  13.980  34.045  0.00  0.00    +0.000 A 
ATOM     11  C   UNL     1      12.967  15.222  34.297  0.00  0.00    +0.000 C 
ENDBRANCH   1   8
BRANCH   2  12
ATOM     12  C   UNL     1      17.061  10.553  37.695  0.00  0.00    +0.000 A 
ATOM     13  C   UNL     1      18.238   9.854  37.536  0.00  0.00    +0.000 A 
ATOM     14  C   UNL     1      18.709   9.029  38.538  0.00  0.00    +0.000 A 
ATOM     15  C   UNL     1      18.036   8.867  39.731  0.00  0.00    +0.000 A 
ATOM     16  C   UNL     1      16.855   9.572  39.884  0.00  0.00    +0.000 A 
ATOM     17  C   UNL     1      16.129   9.398  41.168  0.00  0.00    +0.000 C 
ATOM     18  C   UNL     1      16.383  10.396  38.885  0.00  0.00    +0.000 A 
BRANCH  15  19
ATOM     19  N   UNL     1      18.530   8.011  40.766  0.00  0.00    +0.000 N 
ATOM     20  O   UNL     1      19.350   8.506  41.560  0.00  0.00    +0.000 OA
ATOM     21  O   UNL     1      18.160   6.706  40.931  0.00  0.00    +0.000 OA
ENDBRANCH  15  19
ENDBRANCH   2  12
TORSDOF 3
ENDMDL
MODEL 2
REMARK VINA RESULT:      -7.2      0.674      1.735
REMARK  Name = 
REMARK  3 active torsions:
REMARK  status: ('A' for Active; 'I' for Inactive)
REMARK    1  A    between atoms: C_5  and  N_6
REMARK    2  A    between atoms: C_7  and  C_9
REMARK    3  A    between atoms: C_12  and  N_13
REMARK                            x       y       z     vdW  Elec       q    Type
REMARK                         _______ _______ _______ _____ _____    ______ ____
ROOT
ATOM      1  N   UNL     1      15.834  10.990  35.638  0.00  0.00    +0.000 NA
ATOM      2  C   UNL     1      16.933  11.427  36.424  0.00  0.00    +0.000 C 
ATOM      3  O   UNL     1      17.413  12.566  36.176  0.00  0.00    +0.000 OA
ENDROOT
BRANCH   1   8
ATOM      4  C   UNL     1      13.583  14.462  31.689  0.00  0.00    +0.000 C 
ATOM      5  C   UNL     1      14.176  13.553  32.709  0.00  0.00    +0.000 A 
ATOM      6  C   UNL     1      13.949  13.733  34.062  0.00  0.00    +0.000 A 
ATOM      7  C   UNL     1      14.512  12.872  34.980  0.00  0.00    +0.000 A 
ATOM      8  C   UNL     1      15.310  11.815  34.619  0.00  0.00    +0.000 A 
ATOM      9  C   UNL     1      15.536  11.634  33.272  0.00  0.00    +0.000 A 
ATOM     10  C   UNL     1      14.968  12.503  32.329  0.00  0.00    +0.000 A 
ATOM     11  C   UNL     1      15.244  12.267  30.875  0.00  0.00    +0.000 C 
ENDBRANCH   1   8
BRANCH   2  12
ATOM     12  C   UNL     1      17.491  10.591  37.480  0.00  0.00    +0.000 A 
ATOM     13  C   UNL     1      18.764  10.082  37.343  0.00  0.00    +0.000 A 
ATOM     14  C   UNL     1      19.316   9.288  38.328  0.00  0.00    +0.000 A 
ATOM     15  C   UNL     1      18.632   8.971  39.483  0.00  0.00    +0.000 A 
ATOM     16  C   UNL     1      17.355   9.486  39.615  0.00  0.00    +0.000 A 
ATOM     17  C   UNL     1      16.616   9.144  40.858  0.00  0.00    +0.000 C 
ATOM     18  C   UNL     1      16.801  10.279  38.633  0.00  0.00    +0.000 A 
BRANCH  15  19
ATOM     19  N   UNL     1      19.211   8.148  40.501  0.00  0.00    +0.000 N 
ATOM     20  O   UNL     1      19.127   6.918  40.344  0.00  0.00    +0.000 OA
ATOM     21  O   UNL     1      19.841   8.628  41.614  0.00  0.00    +0.000 OA
ENDBRANCH  15  19
ENDBRANCH   2  12
TORSDOF 3
ENDMDL
MODEL 3
REMARK VINA RESULT:      -6.8      0.884      2.153
REMARK  Name = 
REMARK  3 active torsions:
REMARK  status: ('A' for Active; 'I' for Inactive)
REMARK    1  A    between atoms: C_5  and  N_6
REMARK    2  A    between atoms: C_7  and  C_9
REMARK    3  A    between atoms: C_12  and  N_13
REMARK                            x       y       z     vdW  Elec       q    Type
REMARK                         _______ _______ _______ _____ _____    ______ ____
ROOT
ATOM      1  N   UNL     1      15.180  11.563  36.353  0.00  0.00    +0.000 NA
ATOM      2  C   UNL     1      16.499  11.104  36.612  0.00  0.00    +0.000 C 
ATOM      3  O   UNL     1      17.356  11.243  35.698  0.00  0.00    +0.000 OA
ENDROOT
BRANCH   1   8
ATOM      4  C   UNL     1      13.739  14.126  31.446  0.00  0.00    +0.000 C 
ATOM      5  C   UNL     1      14.122  13.451  32.718  0.00  0.00    +0.000 A 
ATOM      6  C   UNL     1      13.749  13.958  33.950  0.00  0.00    +0.000 A 
ATOM      7  C   UNL     1      14.118  13.308  35.109  0.00  0.00    +0.000 A 
ATOM      8  C   UNL     1      14.858  12.152  35.111  0.00  0.00    +0.000 A 
ATOM      9  C   UNL     1      15.229  11.645  33.884  0.00  0.00    +0.000 A 
ATOM     10  C   UNL     1      14.859  12.298  32.700  0.00  0.00    +0.000 A 
ATOM     11  C   UNL     1      15.287  11.709  31.390  0.00  0.00    +0.000 C 
ENDBRANCH   1   8
BRANCH   2  12
ATOM     12  C   UNL     1      16.853  10.492  37.886  0.00  0.00    +0.000 A 
ATOM     13  C   UNL     1      15.900  10.383  38.876  0.00  0.00    +0.000 A 
ATOM     14  C   UNL     1      16.209   9.807  40.092  0.00  0.00    +0.000 A 
ATOM     15  C   UNL     1      17.468   9.318  40.373  0.00  0.00    +0.000 A 
ATOM     16  C   UNL     1      18.419   9.429  39.374  0.00  0.00    +0.000 A 
ATOM     17  C   UNL     1      19.775   8.902  39.675  0.00  0.00    +0.000 C 
ATOM     18  C   UNL     1      18.113  10.004  38.159  0.00  0.00    +0.000 A 
BRANCH  15  19
ATOM     19  N   UNL     1      17.781   8.720  41.635  0.00  0.00    +0.000 N 
ATOM     20  O   UNL     1      18.081   9.492  42.563  0.00  0.00    +0.000 OA
ATOM     21  O   UNL     1      17.768   7.376  41.876  0.00  0.00    +0.000 OA
ENDBRANCH  15  19
ENDBRANCH   2  12
TORSDOF 3
ENDMDL
MODEL 4
REMARK VINA RESULT:      -6.7     19.297     21.701
REMARK  Name = 
REMARK  3 active torsions:
REMARK  status: ('A' for Active; 'I' for Inactive)
REMARK    1  A    between atoms: C_5  and  N_6
REMARK    2  A    between atoms: C_7  and  C_9
REMARK    3  A    between atoms: C_12  and  N_13
REMARK                            x       y       z     vdW  Elec       q    Type
REMARK                         _______ _______ _______ _____ _____    ______ ____
ROOT
ATOM      1  N   UNL     1      33.719  -0.197  33.913  0.00  0.00    +0.000 NA
ATOM      2  C   UNL     1      32.783  -1.042  34.566  0.00  0.00    +0.000 C 
ATOM      3  O   UNL     1      31.972  -0.506  35.368  0.00  0.00    +0.000 OA
ENDROOT
BRANCH   1   8
ATOM      4  C   UNL     1      33.729   5.471  34.681  0.00  0.00    +0.000 C 
ATOM      5  C   UNL     1      33.726   3.993  34.493  0.00  0.00    +0.000 A 
ATOM      6  C   UNL     1      33.548   3.420  33.246  0.00  0.00    +0.000 A 
ATOM      7  C   UNL     1      33.552   2.048  33.106  0.00  0.00    +0.000 A 
ATOM      8  C   UNL     1      33.727   1.192  34.164  0.00  0.00    +0.000 A 
ATOM      9  C   UNL     1      33.906   1.762  35.407  0.00  0.00    +0.000 A 
ATOM     10  C   UNL     1      33.904   3.155  35.560  0.00  0.00    +0.000 A 
ATOM     11  C   UNL     1      34.101   3.728  36.931  0.00  0.00    +0.000 C 
ENDBRANCH   1   8
BRANCH   2  12
ATOM     12  C   UNL     1      32.758  -2.479  34.322  0.00  0.00    +0.000 A 
ATOM     13  C   UNL     1      32.011  -3.295  35.144  0.00  0.00    +0.000 A 
ATOM     14  C   UNL     1      31.970  -4.658  34.935  0.00  0.00    +0.000 A 
ATOM     15  C   UNL     1      32.662  -5.264  33.907  0.00  0.00    +0.000 A 
ATOM     16  C   UNL     1      33.409  -4.440  33.084  0.00  0.00    +0.000 A 
ATOM     17  C   UNL     1      34.155  -5.090  31.977  0.00  0.00    +0.000 C 
ATOM     18  C   UNL     1      33.453  -3.077  33.291  0.00  0.00    +0.000 A 
BRANCH  15  19
ATOM     19  N   UNL     1      32.613  -6.679  33.695  0.00  0.00    +0.000 N 
ATOM     20  O   UNL     1      33.431  -7.370  34.327  0.00  0.00    +0.000 OA
ATOM     21  O   UNL     1      31.736  -7.303  32.854  0.00  0.00    +0.000 OA
ENDBRANCH  15  19
ENDBRANCH   2  12
TORSDOF 3
ENDMDL
MODEL 5
REMARK VINA RESULT:      -6.6      2.754      8.310
REMARK  Name = 
REMARK  3 active torsions:
REMARK  status: ('A' for Active; 'I' for Inactive)
REMARK    1  A    between atoms: C_5  and  N_6
REMARK    2  A    between atoms: C_7  and  C_9
REMARK    3  A    between atoms: C_12  and  N_13
REMARK                            x       y       z     vdW  Elec       q    Type
REMARK                         _______ _______ _______ _____ _____    ______ ____
ROOT
ATOM      1  N   UNL     1      18.393   9.770  37.207  0.00  0.00    +0.000 NA
ATOM      2  C   UNL     1      17.128  10.336  36.904  0.00  0.00    +0.000 C 
ATOM      3  O   UNL     1      16.328  10.526  37.859  0.00  0.00    +0.000 OA
ENDROOT
BRANCH   1   8
ATOM      4  C   UNL     1      19.864   8.648  42.620  0.00  0.00    +0.000 C 
ATOM      5  C   UNL     1      19.474   8.929  41.210  0.00  0.00    +0.000 A 
ATOM      6  C   UNL     1      19.733  10.152  40.616  0.00  0.00    +0.000 A 
ATOM      7  C   UNL     1      19.361  10.380  39.308  0.00  0.00    +0.000 A 
ATOM      8  C   UNL     1      18.729   9.436  38.538  0.00  0.00    +0.000 A 
ATOM      9  C   UNL     1      18.471   8.218  39.128  0.00  0.00    +0.000 A 
ATOM     10  C   UNL     1      18.845   7.975  40.457  0.00  0.00    +0.000 A 
ATOM     11  C   UNL     1      18.543   6.635  41.056  0.00  0.00    +0.000 C 
ENDBRANCH   1   8
BRANCH   2  12
ATOM     12  C   UNL     1      16.761  10.687  35.537  0.00  0.00    +0.000 A 
ATOM     13  C   UNL     1      17.394  10.065  34.483  0.00  0.00    +0.000 A 
ATOM     14  C   UNL     1      17.065  10.378  33.179  0.00  0.00    +0.000 A 
ATOM     15  C   UNL     1      16.099  11.313  32.871  0.00  0.00    +0.000 A 
ATOM     16  C   UNL     1      15.467  11.934  33.934  0.00  0.00    +0.000 A 
ATOM     17  C   UNL     1      14.427  12.942  33.604  0.00  0.00    +0.000 C 
ATOM     18  C   UNL     1      15.794  11.623  35.237  0.00  0.00    +0.000 A 
BRANCH  15  19
ATOM     19  N   UNL     1      15.762  11.632  31.517  0.00  0.00    +0.000 N 
ATOM     20  O   UNL     1      14.900  10.922  30.971  0.00  0.00    +0.000 OA
ATOM     21  O   UNL     1      16.322  12.653  30.802  0.00  0.00    +0.000 OA
ENDBRANCH  15  19
ENDBRANCH   2  12
TORSDOF 3
ENDMDL
MODEL 6
REMARK VINA RESULT:      -6.5     19.532     21.504
REMARK  Name = 
REMARK  3 active torsions:
REMARK  status: ('A' for Active; 'I' for Inactive)
REMARK    1  A    between atoms: C_5  and  N_6
REMARK    2  A    between atoms: C_7  and  C_9
REMARK    3  A    between atoms: C_12  and  N_13
REMARK                            x       y       z     vdW  Elec       q    Type
REMARK                         _______ _______ _______ _____ _____    ______ ____
ROOT
ATOM      1  N   UNL     1      33.924  -0.431  34.847  0.00  0.00    +0.000 NA
ATOM      2  C   UNL     1      33.127   0.672  34.444  0.00  0.00    +0.000 C 
ATOM      3  O   UNL     1      32.021   0.423  33.892  0.00  0.00    +0.000 OA
ENDROOT
BRANCH   1   8
ATOM      4  C   UNL     1      32.023  -5.788  34.203  0.00  0.00    +0.000 C 
ATOM      5  C   UNL     1      32.522  -4.392  34.359  0.00  0.00    +0.000 A 
ATOM      6  C   UNL     1      32.257  -3.649  35.496  0.00  0.00    +0.000 A 
ATOM      7  C   UNL     1      32.735  -2.361  35.610  0.00  0.00    +0.000 A 
ATOM      8  C   UNL     1      33.480  -1.753  34.630  0.00  0.00    +0.000 A 
ATOM      9  C   UNL     1      33.745  -2.493  33.498  0.00  0.00    +0.000 A 
ATOM     10  C   UNL     1      33.265  -3.804  33.372  0.00  0.00    +0.000 A 
ATOM     11  C   UNL     1      33.578  -4.568  32.121  0.00  0.00    +0.000 C 
ENDBRANCH   1   8
BRANCH   2  12
ATOM     12  C   UNL     1      33.567   2.045  34.656  0.00  0.00    +0.000 A 
ATOM     13  C   UNL     1      33.463   2.959  33.630  0.00  0.00    +0.000 A 
ATOM     14  C   UNL     1      33.872   4.266  33.805  0.00  0.00    +0.000 A 
ATOM     15  C   UNL     1      34.396   4.717  34.999  0.00  0.00    +0.000 A 
ATOM     16  C   UNL     1      34.497   3.794  36.026  0.00  0.00    +0.000 A 
ATOM     17  C   UNL     1      35.061   4.278  37.312  0.00  0.00    +0.000 C 
ATOM     18  C   UNL     1      34.089   2.489  35.853  0.00  0.00    +0.000 A 
BRANCH  15  19
ATOM     19  N   UNL     1      34.817   6.073  35.174  0.00  0.00    +0.000 N 
ATOM     20  O   UNL     1      35.968   6.357  34.799  0.00  0.00    +0.000 OA
ATOM     21  O   UNL     1      34.040   7.057  35.719  0.00  0.00    +0.000 OA
ENDBRANCH  15  19
ENDBRANCH   2  12
TORSDOF 3
ENDMDL
MODEL 7
REMARK VINA RESULT:      -6.5     22.655     24.216
REMARK  Name = 
REMARK  3 active torsions:
REMARK  status: ('A' for Active; 'I' for Inactive)
REMARK    1  A    between atoms: C_5  and  N_6
REMARK    2  A    between atoms: C_7  and  C_9
REMARK    3  A    between atoms: C_12  and  N_13
REMARK                            x       y       z     vdW  Elec       q    Type
REMARK                         _______ _______ _______ _____ _____    ______ ____
ROOT
ATOM      1  N   UNL     1      22.947  -7.526  23.433  0.00  0.00    +0.000 NA
ATOM      2  C   UNL     1      22.446  -8.046  24.655  0.00  0.00    +0.000 C 
ATOM      3  O   UNL     1      23.213  -8.775  25.339  0.00  0.00    +0.000 OA
ENDROOT
BRANCH   1   8
ATOM      4  C   UNL     1      28.352  -8.515  21.839  0.00  0.00    +0.000 C 
ATOM      5  C   UNL     1      26.941  -8.268  22.250  0.00  0.00    +0.000 A 
ATOM      6  C   UNL     1      26.586  -7.163  23.004  0.00  0.00    +0.000 A 
ATOM      7  C   UNL     1      25.271  -6.964  23.367  0.00  0.00    +0.000 A 
ATOM      8  C   UNL     1      24.262  -7.824  23.014  0.00  0.00    +0.000 A 
ATOM      9  C   UNL     1      24.614  -8.925  22.262  0.00  0.00    +0.000 A 
ATOM     10  C   UNL     1      25.947  -9.137  21.887  0.00  0.00    +0.000 A 
ATOM     11  C   UNL     1      26.281 -10.349  21.071  0.00  0.00    +0.000 C 
ENDBRANCH   1   8
BRANCH   2  12
ATOM     12  C   UNL     1      21.091  -7.752  25.106  0.00  0.00    +0.000 A 
ATOM     13  C   UNL     1      20.147  -8.756  25.120  0.00  0.00    +0.000 A 
ATOM     14  C   UNL     1      18.857  -8.504  25.543  0.00  0.00    +0.000 A 
ATOM     15  C   UNL     1      18.455  -7.255  25.968  0.00  0.00    +0.000 A 
ATOM     16  C   UNL     1      19.408  -6.252  25.953  0.00  0.00    +0.000 A 
ATOM     17  C   UNL     1      18.977  -4.906  26.410  0.00  0.00    +0.000 C 
ATOM     18  C   UNL     1      20.697  -6.500  25.530  0.00  0.00    +0.000 A 
BRANCH  15  19
ATOM     19  N   UNL     1      17.116  -7.002  26.407  0.00  0.00    +0.000 N 
ATOM     20  O   UNL     1      16.984  -6.412  27.493  0.00  0.00    +0.000 OA
ATOM     21  O   UNL     1      15.996  -7.363  25.713  0.00  0.00    +0.000 OA
ENDBRANCH  15  19
ENDBRANCH   2  12
TORSDOF 3
ENDMDL
MODEL 8
REMARK VINA RESULT:      -6.2     19.833     20.950
REMARK  Name = 
REMARK  3 active torsions:
REMARK  status: ('A' for Active; 'I' for Inactive)
REMARK    1  A    between atoms: C_5  and  N_6
REMARK    2  A    between atoms: C_7  and  C_9
REMARK    3  A    between atoms: C_12  and  N_13
REMARK                            x       y       z     vdW  Elec       q    Type
REMARK                         _______ _______ _______ _____ _____    ______ ____
ROOT
ATOM      1  N   UNL     1      34.564   5.516  35.535  0.00  0.00    +0.000 NA
ATOM      2  C   UNL     1      35.927   5.902  35.620  0.00  0.00    +0.000 C 
ATOM      3  O   UNL     1      36.799   5.025  35.377  0.00  0.00    +0.000 OA
ENDROOT
BRANCH   1   8
ATOM      4  C   UNL     1      33.095   0.235  33.899  0.00  0.00    +0.000 C 
ATOM      5  C   UNL     1      33.481   1.606  34.336  0.00  0.00    +0.000 A 
ATOM      6  C   UNL     1      33.503   2.671  33.452  0.00  0.00    +0.000 A 
ATOM      7  C   UNL     1      33.864   3.928  33.889  0.00  0.00    +0.000 A 
ATOM      8  C   UNL     1      34.214   4.193  35.189  0.00  0.00    +0.000 A 
ATOM      9  C   UNL     1      34.191   3.133  36.071  0.00  0.00    +0.000 A 
ATOM     10  C   UNL     1      33.826   1.851  35.638  0.00  0.00    +0.000 A 
ATOM     11  C   UNL     1      33.817   0.731  36.633  0.00  0.00    +0.000 C 
ENDBRANCH   1   8
BRANCH   2  12
ATOM     12  C   UNL     1      36.310   7.263  35.976  0.00  0.00    +0.000 A 
ATOM     13  C   UNL     1      37.122   7.476  37.069  0.00  0.00    +0.000 A 
ATOM     14  C   UNL     1      37.500   8.754  37.428  0.00  0.00    +0.000 A 
ATOM     15  C   UNL     1      37.092   9.866  36.720  0.00  0.00    +0.000 A 
ATOM     16  C   UNL     1      36.278   9.645  35.623  0.00  0.00    +0.000 A 
ATOM     17  C   UNL     1      35.837  10.840  34.860  0.00  0.00    +0.000 C 
ATOM     18  C   UNL     1      35.899   8.369  35.263  0.00  0.00    +0.000 A 
BRANCH  15  19
ATOM     19  N   UNL     1      37.489  11.188  37.097  0.00  0.00    +0.000 N 
ATOM     20  O   UNL     1      36.806  11.752  37.969  0.00  0.00    +0.000 OA
ATOM     21  O   UNL     1      38.556  11.854  36.564  0.00  0.00    +0.000 OA
ENDBRANCH  15  19
ENDBRANCH   2  12
TORSDOF 3
ENDMDL
MODEL 9
REMARK VINA RESULT:      -6.2     23.324     24.636
REMARK  Name = 
REMARK  3 active torsions:
REMARK  status: ('A' for Active; 'I' for Inactive)
REMARK    1  A    between atoms: C_5  and  N_6
REMARK    2  A    between atoms: C_7  and  C_9
REMARK    3  A    between atoms: C_12  and  N_13
REMARK                            x       y       z     vdW  Elec       q    Type
REMARK                         _______ _______ _______ _____ _____    ______ ____
ROOT
ATOM      1  N   UNL     1      22.636  -7.684  24.953  0.00  0.00    +0.000 NA
ATOM      2  C   UNL     1      22.933  -7.709  23.565  0.00  0.00    +0.000 C 
ATOM      3  O   UNL     1      21.982  -7.517  22.760  0.00  0.00    +0.000 OA
ENDROOT
BRANCH   1   8
ATOM      4  C   UNL     1      17.248  -6.986  26.743  0.00  0.00    +0.000 C 
ATOM      5  C   UNL     1      18.653  -7.156  26.279  0.00  0.00    +0.000 A 
ATOM      6  C   UNL     1      19.186  -8.407  26.020  0.00  0.00    +0.000 A 
ATOM      7  C   UNL     1      20.491  -8.529  25.590  0.00  0.00    +0.000 A 
ATOM      8  C   UNL     1      21.317  -7.450  25.399  0.00  0.00    +0.000 A 
ATOM      9  C   UNL     1      20.787  -6.204  25.656  0.00  0.00    +0.000 A 
ATOM     10  C   UNL     1      19.462  -6.068  26.093  0.00  0.00    +0.000 A 
ATOM     11  C   UNL     1      18.930  -4.692  26.360  0.00  0.00    +0.000 C 
ENDBRANCH   1   8
BRANCH   2  12
ATOM     12  C   UNL     1      24.287  -7.950  23.083  0.00  0.00    +0.000 A 
ATOM     13  C   UNL     1      25.297  -7.078  23.428  0.00  0.00    +0.000 A 
ATOM     14  C   UNL     1      26.588  -7.283  22.985  0.00  0.00    +0.000 A 
ATOM     15  C   UNL     1      26.928  -8.356  22.187  0.00  0.00    +0.000 A 
ATOM     16  C   UNL     1      25.910  -9.229  21.845  0.00  0.00    +0.000 A 
ATOM     17  C   UNL     1      26.274 -10.384  20.985  0.00  0.00    +0.000 C 
ATOM     18  C   UNL     1      24.619  -9.026  22.286  0.00  0.00    +0.000 A 
BRANCH  15  19
ATOM     19  N   UNL     1      28.269  -8.563  21.733  0.00  0.00    +0.000 N 
ATOM     20  O   UNL     1      28.595  -8.003  20.672  0.00  0.00    +0.000 OA
ATOM     21  O   UNL     1      29.195  -9.327  22.386  0.00  0.00    +0.000 OA
ENDBRANCH  15  19
ENDBRANCH   2  12
TORSDOF 3
ENDMDL
MODEL 10
REMARK VINA RESULT:      -6.1     19.618     20.472
REMARK  Name = 
REMARK  3 active torsions:
REMARK  status: ('A' for Active; 'I' for Inactive)
REMARK    1  A    between atoms: C_5  and  N_6
REMARK    2  A    between atoms: C_7  and  C_9
REMARK    3  A    between atoms: C_12  and  N_13
REMARK                            x       y       z     vdW  Elec       q    Type
REMARK                         _______ _______ _______ _____ _____    ______ ____
ROOT
ATOM      1  N   UNL     1      35.965   5.809  35.647  0.00  0.00    +0.000 NA
ATOM      2  C   UNL     1      34.619   5.365  35.721  0.00  0.00    +0.000 C 
ATOM      3  O   UNL     1      33.755   6.186  36.130  0.00  0.00    +0.000 OA
ENDROOT
BRANCH   1   8
ATOM      4  C   UNL     1      37.453  11.054  37.379  0.00  0.00    +0.000 C 
ATOM      5  C   UNL     1      37.061   9.693  36.917  0.00  0.00    +0.000 A 
ATOM      6  C   UNL     1      37.391   8.559  37.638  0.00  0.00    +0.000 A 
ATOM      7  C   UNL     1      37.013   7.313  37.184  0.00  0.00    +0.000 A 
ATOM      8  C   UNL     1      36.307   7.127  36.022  0.00  0.00    +0.000 A 
ATOM      9  C   UNL     1      35.977   8.256  35.303  0.00  0.00    +0.000 A 
ATOM     10  C   UNL     1      36.357   9.527  35.755  0.00  0.00    +0.000 A 
ATOM     11  C   UNL     1      35.976  10.724  34.939  0.00  0.00    +0.000 C 
ENDBRANCH   1   8
BRANCH   2  12
ATOM     12  C   UNL     1      34.244   4.009  35.341  0.00  0.00    +0.000 A 
ATOM     13  C   UNL     1      33.842   3.753  34.048  0.00  0.00    +0.000 A 
ATOM     14  C   UNL     1      33.482   2.477  33.661  0.00  0.00    +0.000 A 
ATOM     15  C   UNL     1      33.508   1.411  34.535  0.00  0.00    +0.000 A 
ATOM     16  C   UNL     1      33.914   1.675  35.832  0.00  0.00    +0.000 A 
ATOM     17  C   UNL     1      33.942   0.528  36.775  0.00  0.00    +0.000 C 
ATOM     18  C   UNL     1      34.273   2.948  36.221  0.00  0.00    +0.000 A 
BRANCH  15  19
ATOM     19  N   UNL     1      33.135   0.091  34.127  0.00  0.00    +0.000 N 
ATOM     20  O   UNL     1      32.001  -0.299  34.456  0.00  0.00    +0.000 OA
ATOM     21  O   UNL     1      33.938  -0.750  33.409  0.00  0.00    +0.000 OA
ENDBRANCH  15  19
ENDBRANCH   2  12
TORSDOF 3
ENDMDL
