MODEL 1
REMARK VINA RESULT:      -8.0      0.000      0.000
REMARK  Name = 
REMARK  2 active torsions:
REMARK  status: ('A' for Active; 'I' for Inactive)
REMARK    1  A    between atoms: C_11  and  N_12
REMARK    2  A    between atoms: N_12  and  C_13
REMARK                            x       y       z     vdW  Elec       q    Type
REMARK                         _______ _______ _______ _____ _____    ______ ____
ROOT
ATOM      1  C   UNL     1      10.673  11.236  37.578  0.00  0.00    +0.000 C 
ATOM      2  C   UNL     1      12.169  11.246  37.743  0.00  0.00    +0.000 A 
ATOM      3  C   UNL     1      12.779  10.537  38.752  0.00  0.00    +0.000 A 
ATOM      4  C   UNL     1      14.143  10.516  38.941  0.00  0.00    +0.000 A 
ATOM      5  C   UNL     1      14.799   9.748  40.034  0.00  0.00    +0.000 C 
ATOM      6  C   UNL     1      14.956  11.234  38.088  0.00  0.00    +0.000 A 
ATOM      7  N   UNL     1      16.281  11.269  38.198  0.00  0.00    +0.000 NA
ATOM      8  C   UNL     1      17.035  11.983  37.343  0.00  0.00    +0.000 A 
ATOM      9  C   UNL     1      18.531  11.992  37.508  0.00  0.00    +0.000 C 
ATOM     10  C   UNL     1      16.460  12.715  36.309  0.00  0.00    +0.000 A 
ATOM     11  C   UNL     1      15.090  12.699  36.169  0.00  0.00    +0.000 A 
ATOM     12  C   UNL     1      14.341  11.959  37.058  0.00  0.00    +0.000 A 
ATOM     13  C   UNL     1      12.975  11.964  36.888  0.00  0.00    +0.000 A 
ENDROOT
BRANCH  11  14
ATOM     14  N   UNL     1      14.451  13.426  35.131  0.00  0.00    +0.000 NA
BRANCH  14  15
ATOM     15  C   UNL     1      14.477  12.948  33.792  0.00  0.00    +0.000 A 
ATOM     16  C   UNL     1      15.078  11.748  33.436  0.00  0.00    +0.000 A 
ATOM     17  C   UNL     1      15.081  11.318  32.121  0.00  0.00    +0.000 A 
ATOM     18  C   UNL     1      14.499  12.049  31.128  0.00  0.00    +0.000 A 
ATOM     19  O   UNL     1      14.498  11.624  29.797  0.00  0.00    +0.000 OA
ATOM     20  C   UNL     1      13.895  13.252  31.475  0.00  0.00    +0.000 A 
ATOM     21  C   UNL     1      13.894  13.676  32.783  0.00  0.00    +0.000 A 
ENDBRANCH  14  15
ENDBRANCH  11  14
TORSDOF 2
ENDMDL
MODEL 2
REMARK VINA RESULT:      -7.3     18.264     20.047
REMARK  Name = 
REMARK  2 active torsions:
REMARK  status: ('A' for Active; 'I' for Inactive)
REMARK    1  A    between atoms: C_11  and  N_12
REMARK    2  A    between atoms: N_12  and  C_13
REMARK                            x       y       z     vdW  Elec       q    Type
REMARK                         _______ _______ _______ _____ _____    ______ ____
ROOT
ATOM      1  C   UNL     1      27.519  22.171  30.025  0.00  0.00    +0.000 C 
ATOM      2  C   UNL     1      26.682  23.223  29.347  0.00  0.00    +0.000 A 
ATOM      3  C   UNL     1      26.062  24.215  30.070  0.00  0.00    +0.000 A 
ATOM      4  C   UNL     1      25.288  25.197  29.493  0.00  0.00    +0.000 A 
ATOM      5  C   UNL     1      24.618  26.269  30.278  0.00  0.00    +0.000 C 
ATOM      6  C   UNL     1      25.114  25.205  28.124  0.00  0.00    +0.000 A 
ATOM      7  N   UNL     1      24.384  26.116  27.486  0.00  0.00    +0.000 NA
ATOM      8  C   UNL     1      24.242  26.085  26.149  0.00  0.00    +0.000 A 
ATOM      9  C   UNL     1      23.406  27.138  25.470  0.00  0.00    +0.000 C 
ATOM     10  C   UNL     1      24.851  25.100  25.378  0.00  0.00    +0.000 A 
ATOM     11  C   UNL     1      25.613  24.142  26.011  0.00  0.00    +0.000 A 
ATOM     12  C   UNL     1      25.743  24.197  27.382  0.00  0.00    +0.000 A 
ATOM     13  C   UNL     1      26.513  23.225  27.980  0.00  0.00    +0.000 A 
ENDROOT
BRANCH  11  14
ATOM     14  N   UNL     1      26.258  23.115  25.274  0.00  0.00    +0.000 NA
BRANCH  14  15
ATOM     15  C   UNL     1      27.108  23.435  24.179  0.00  0.00    +0.000 A 
ATOM     16  C   UNL     1      26.637  23.574  22.880  0.00  0.00    +0.000 A 
ATOM     17  C   UNL     1      27.498  23.887  21.843  0.00  0.00    +0.000 A 
ATOM     18  C   UNL     1      28.833  24.071  22.052  0.00  0.00    +0.000 A 
ATOM     19  O   UNL     1      29.709  24.386  21.011  0.00  0.00    +0.000 OA
ATOM     20  C   UNL     1      29.313  23.933  23.349  0.00  0.00    +0.000 A 
ATOM     21  C   UNL     1      28.455  23.622  24.377  0.00  0.00    +0.000 A 
ENDBRANCH  14  15
ENDBRANCH  11  14
TORSDOF 2
ENDMDL
MODEL 3
REMARK VINA RESULT:      -7.0      1.608      2.250
REMARK  Name = 
REMARK  2 active torsions:
REMARK  status: ('A' for Active; 'I' for Inactive)
REMARK    1  A    between atoms: C_11  and  N_12
REMARK    2  A    between atoms: N_12  and  C_13
REMARK                            x       y       z     vdW  Elec       q    Type
REMARK                         _______ _______ _______ _____ _____    ______ ____
ROOT
ATOM      1  C   UNL     1      12.182  11.338  37.945  0.00  0.00    +0.000 C 
ATOM      2  C   UNL     1      13.581  10.975  38.365  0.00  0.00    +0.000 A 
ATOM      3  C   UNL     1      13.812  10.182  39.464  0.00  0.00    +0.000 A 
ATOM      4  C   UNL     1      15.073   9.823  39.885  0.00  0.00    +0.000 A 
ATOM      5  C   UNL     1      15.319   8.965  41.075  0.00  0.00    +0.000 C 
ATOM      6  C   UNL     1      16.173  10.270  39.182  0.00  0.00    +0.000 A 
ATOM      7  N   UNL     1      17.425   9.972  39.518  0.00  0.00    +0.000 NA
ATOM      8  C   UNL     1      18.468  10.431  38.803  0.00  0.00    +0.000 A 
ATOM      9  C   UNL     1      19.868  10.066  39.222  0.00  0.00    +0.000 C 
ATOM     10  C   UNL     1      18.281  11.236  37.684  0.00  0.00    +0.000 A 
ATOM     11  C   UNL     1      16.996  11.562  37.311  0.00  0.00    +0.000 A 
ATOM     12  C   UNL     1      15.945  11.079  38.061  0.00  0.00    +0.000 A 
ATOM     13  C   UNL     1      14.675  11.424  37.659  0.00  0.00    +0.000 A 
ENDROOT
BRANCH  11  14
ATOM     14  N   UNL     1      16.748  12.379  36.178  0.00  0.00    +0.000 NA
BRANCH  14  15
ATOM     15  C   UNL     1      16.490  11.794  34.907  0.00  0.00    +0.000 A 
ATOM     16  C   UNL     1      17.342  10.866  34.323  0.00  0.00    +0.000 A 
ATOM     17  C   UNL     1      17.055  10.320  33.085  0.00  0.00    +0.000 A 
ATOM     18  C   UNL     1      15.932  10.667  32.393  0.00  0.00    +0.000 A 
ATOM     19  O   UNL     1      15.635  10.121  31.142  0.00  0.00    +0.000 OA
ATOM     20  C   UNL     1      15.075  11.596  32.970  0.00  0.00    +0.000 A 
ATOM     21  C   UNL     1      15.363  12.137  34.200  0.00  0.00    +0.000 A 
ENDBRANCH  14  15
ENDBRANCH  11  14
TORSDOF 2
ENDMDL
MODEL 4
REMARK VINA RESULT:      -6.8      3.285      5.221
REMARK  Name = 
REMARK  2 active torsions:
REMARK  status: ('A' for Active; 'I' for Inactive)
REMARK    1  A    between atoms: C_11  and  N_12
REMARK    2  A    between atoms: N_12  and  C_13
REMARK                            x       y       z     vdW  Elec       q    Type
REMARK                         _______ _______ _______ _____ _____    ______ ____
ROOT
ATOM      1  C   UNL     1      16.283   9.030  41.587  0.00  0.00    +0.000 C 
ATOM      2  C   UNL     1      17.571   9.402  40.903  0.00  0.00    +0.000 A 
ATOM      3  C   UNL     1      18.657   9.844  41.622  0.00  0.00    +0.000 A 
ATOM      4  C   UNL     1      19.855  10.194  41.040  0.00  0.00    +0.000 A 
ATOM      5  C   UNL     1      21.028  10.673  41.821  0.00  0.00    +0.000 C 
ATOM      6  C   UNL     1      19.995  10.103  39.670  0.00  0.00    +0.000 A 
ATOM      7  N   UNL     1      21.116  10.420  39.028  0.00  0.00    +0.000 NA
ATOM      8  C   UNL     1      21.206  10.315  37.690  0.00  0.00    +0.000 A 
ATOM      9  C   UNL     1      22.496  10.686  37.006  0.00  0.00    +0.000 C 
ATOM     10  C   UNL     1      20.133   9.873  36.923  0.00  0.00    +0.000 A 
ATOM     11  C   UNL     1      18.959   9.537  37.561  0.00  0.00    +0.000 A 
ATOM     12  C   UNL     1      18.892   9.653  38.932  0.00  0.00    +0.000 A 
ATOM     13  C   UNL     1      17.704   9.308  39.535  0.00  0.00    +0.000 A 
ENDROOT
BRANCH  11  14
ATOM     14  N   UNL     1      17.834   9.079  36.827  0.00  0.00    +0.000 NA
BRANCH  14  15
ATOM     15  C   UNL     1      17.246   9.894  35.821  0.00  0.00    +0.000 A 
ATOM     16  C   UNL     1      16.368  10.929  36.113  0.00  0.00    +0.000 A 
ATOM     17  C   UNL     1      15.818  11.699  35.104  0.00  0.00    +0.000 A 
ATOM     18  C   UNL     1      16.113  11.476  33.791  0.00  0.00    +0.000 A 
ATOM     19  O   UNL     1      15.561  12.248  32.766  0.00  0.00    +0.000 OA
ATOM     20  C   UNL     1      16.990  10.441  33.490  0.00  0.00    +0.000 A 
ATOM     21  C   UNL     1      17.535   9.678  34.495  0.00  0.00    +0.000 A 
ENDBRANCH  14  15
ENDBRANCH  11  14
TORSDOF 2
ENDMDL
MODEL 5
REMARK VINA RESULT:      -6.8     19.081     19.936
REMARK  Name = 
REMARK  2 active torsions:
REMARK  status: ('A' for Active; 'I' for Inactive)
REMARK    1  A    between atoms: C_11  and  N_12
REMARK    2  A    between atoms: N_12  and  C_13
REMARK                            x       y       z     vdW  Elec       q    Type
REMARK                         _______ _______ _______ _____ _____    ______ ____
ROOT
ATOM      1  C   UNL     1      22.919  26.197  26.536  0.00  0.00    +0.000 C 
ATOM      2  C   UNL     1      24.111  25.635  27.263  0.00  0.00    +0.000 A 
ATOM      3  C   UNL     1      24.434  26.054  28.532  0.00  0.00    +0.000 A 
ATOM      4  C   UNL     1      25.515  25.569  29.235  0.00  0.00    +0.000 A 
ATOM      5  C   UNL     1      25.861  26.024  30.609  0.00  0.00    +0.000 C 
ATOM      6  C   UNL     1      26.325  24.614  28.656  0.00  0.00    +0.000 A 
ATOM      7  N   UNL     1      27.387  24.091  29.264  0.00  0.00    +0.000 NA
ATOM      8  C   UNL     1      28.150  23.162  28.660  0.00  0.00    +0.000 A 
ATOM      9  C   UNL     1      29.342  22.599  29.387  0.00  0.00    +0.000 C 
ATOM     10  C   UNL     1      27.860  22.709  27.377  0.00  0.00    +0.000 A 
ATOM     11  C   UNL     1      26.766  23.232  26.722  0.00  0.00    +0.000 A 
ATOM     12  C   UNL     1      26.002  24.182  27.363  0.00  0.00    +0.000 A 
ATOM     13  C   UNL     1      24.916  24.682  26.679  0.00  0.00    +0.000 A 
ENDROOT
BRANCH  11  14
ATOM     14  N   UNL     1      26.425  22.805  25.412  0.00  0.00    +0.000 NA
BRANCH  14  15
ATOM     15  C   UNL     1      27.214  23.197  24.296  0.00  0.00    +0.000 A 
ATOM     16  C   UNL     1      26.658  23.648  23.106  0.00  0.00    +0.000 A 
ATOM     17  C   UNL     1      27.461  24.020  22.043  0.00  0.00    +0.000 A 
ATOM     18  C   UNL     1      28.821  23.959  22.118  0.00  0.00    +0.000 A 
ATOM     19  O   UNL     1      29.640  24.332  21.049  0.00  0.00    +0.000 OA
ATOM     20  C   UNL     1      29.386  23.508  23.305  0.00  0.00    +0.000 A 
ATOM     21  C   UNL     1      28.585  23.140  24.359  0.00  0.00    +0.000 A 
ENDBRANCH  14  15
ENDBRANCH  11  14
TORSDOF 2
ENDMDL
MODEL 6
REMARK VINA RESULT:      -6.7      4.138      7.699
REMARK  Name = 
REMARK  2 active torsions:
REMARK  status: ('A' for Active; 'I' for Inactive)
REMARK    1  A    between atoms: C_11  and  N_12
REMARK    2  A    between atoms: N_12  and  C_13
REMARK                            x       y       z     vdW  Elec       q    Type
REMARK                         _______ _______ _______ _____ _____    ______ ____
ROOT
ATOM      1  C   UNL     1      23.804   8.809  36.135  0.00  0.00    +0.000 C 
ATOM      2  C   UNL     1      23.382  10.088  36.809  0.00  0.00    +0.000 A 
ATOM      3  C   UNL     1      24.271  11.119  36.999  0.00  0.00    +0.000 A 
ATOM      4  C   UNL     1      23.931  12.306  37.609  0.00  0.00    +0.000 A 
ATOM      5  C   UNL     1      24.896  13.421  37.813  0.00  0.00    +0.000 C 
ATOM      6  C   UNL     1      22.640  12.490  38.060  0.00  0.00    +0.000 A 
ATOM      7  N   UNL     1      22.226  13.603  38.659  0.00  0.00    +0.000 NA
ATOM      8  C   UNL     1      20.957  13.738  39.082  0.00  0.00    +0.000 A 
ATOM      9  C   UNL     1      20.535  15.017  39.756  0.00  0.00    +0.000 C 
ATOM     10  C   UNL     1      20.024  12.720  38.912  0.00  0.00    +0.000 A 
ATOM     11  C   UNL     1      20.423  11.554  38.294  0.00  0.00    +0.000 A 
ATOM     12  C   UNL     1      21.729  11.442  37.869  0.00  0.00    +0.000 A 
ATOM     13  C   UNL     1      22.092  10.264  37.256  0.00  0.00    +0.000 A 
ENDROOT
BRANCH  11  14
ATOM     14  N   UNL     1      19.512  10.484  38.093  0.00  0.00    +0.000 NA
BRANCH  14  15
ATOM     15  C   UNL     1      18.610  10.499  36.994  0.00  0.00    +0.000 A 
ATOM     16  C   UNL     1      17.608  11.450  36.860  0.00  0.00    +0.000 A 
ATOM     17  C   UNL     1      16.751  11.430  35.773  0.00  0.00    +0.000 A 
ATOM     18  C   UNL     1      16.854  10.483  34.798  0.00  0.00    +0.000 A 
ATOM     19  O   UNL     1      15.993  10.454  33.699  0.00  0.00    +0.000 OA
ATOM     20  C   UNL     1      17.855   9.527  34.925  0.00  0.00    +0.000 A 
ATOM     21  C   UNL     1      18.705   9.550  36.005  0.00  0.00    +0.000 A 
ENDBRANCH  14  15
ENDBRANCH  11  14
TORSDOF 2
ENDMDL
MODEL 7
REMARK VINA RESULT:      -6.6     19.113     21.502
REMARK  Name = 
REMARK  2 active torsions:
REMARK  status: ('A' for Active; 'I' for Inactive)
REMARK    1  A    between atoms: C_11  and  N_12
REMARK    2  A    between atoms: N_12  and  C_13
REMARK                            x       y       z     vdW  Elec       q    Type
REMARK                         _______ _______ _______ _____ _____    ______ ____
ROOT
ATOM      1  C   UNL     1      30.904  22.395  28.867  0.00  0.00    +0.000 C 
ATOM      2  C   UNL     1      30.756  22.817  27.429  0.00  0.00    +0.000 A 
ATOM      3  C   UNL     1      31.839  23.246  26.698  0.00  0.00    +0.000 A 
ATOM      4  C   UNL     1      31.752  23.640  25.381  0.00  0.00    +0.000 A 
ATOM      5  C   UNL     1      32.926  24.104  24.593  0.00  0.00    +0.000 C 
ATOM      6  C   UNL     1      30.527  23.610  24.745  0.00  0.00    +0.000 A 
ATOM      7  N   UNL     1      30.354  23.973  23.477  0.00  0.00    +0.000 NA
ATOM      8  C   UNL     1      29.141  23.927  22.898  0.00  0.00    +0.000 A 
ATOM      9  C   UNL     1      28.993  24.348  21.459  0.00  0.00    +0.000 C 
ATOM     10  C   UNL     1      28.018  23.500  23.600  0.00  0.00    +0.000 A 
ATOM     11  C   UNL     1      28.166  23.118  24.915  0.00  0.00    +0.000 A 
ATOM     12  C   UNL     1      29.420  23.174  25.484  0.00  0.00    +0.000 A 
ATOM     13  C   UNL     1      29.531  22.784  26.800  0.00  0.00    +0.000 A 
ENDROOT
BRANCH  11  14
ATOM     14  N   UNL     1      27.055  22.673  25.677  0.00  0.00    +0.000 NA
BRANCH  14  15
ATOM     15  C   UNL     1      26.268  23.600  26.415  0.00  0.00    +0.000 A 
ATOM     16  C   UNL     1      25.425  24.519  25.805  0.00  0.00    +0.000 A 
ATOM     17  C   UNL     1      24.674  25.403  26.560  0.00  0.00    +0.000 A 
ATOM     18  C   UNL     1      24.730  25.409  27.922  0.00  0.00    +0.000 A 
ATOM     19  O   UNL     1      23.977  26.298  28.692  0.00  0.00    +0.000 OA
ATOM     20  C   UNL     1      25.572  24.492  28.541  0.00  0.00    +0.000 A 
ATOM     21  C   UNL     1      26.316  23.615  27.788  0.00  0.00    +0.000 A 
ENDBRANCH  14  15
ENDBRANCH  11  14
TORSDOF 2
ENDMDL
MODEL 8
REMARK VINA RESULT:      -6.6     21.588     23.707
REMARK  Name = 
REMARK  2 active torsions:
REMARK  status: ('A' for Active; 'I' for Inactive)
REMARK    1  A    between atoms: C_11  and  N_12
REMARK    2  A    between atoms: N_12  and  C_13
REMARK                            x       y       z     vdW  Elec       q    Type
REMARK                         _______ _______ _______ _____ _____    ______ ____
ROOT
ATOM      1  C   UNL     1      22.971 -11.010  24.758  0.00  0.00    +0.000 C 
ATOM      2  C   UNL     1      22.344  -9.655  24.949  0.00  0.00    +0.000 A 
ATOM      3  C   UNL     1      22.938  -8.519  24.451  0.00  0.00    +0.000 A 
ATOM      4  C   UNL     1      22.401  -7.260  24.601  0.00  0.00    +0.000 A 
ATOM      5  C   UNL     1      23.046  -6.032  24.062  0.00  0.00    +0.000 C 
ATOM      6  C   UNL     1      21.209  -7.109  25.280  0.00  0.00    +0.000 A 
ATOM      7  N   UNL     1      20.621  -5.931  25.470  0.00  0.00    +0.000 NA
ATOM      8  C   UNL     1      19.458  -5.831  26.139  0.00  0.00    +0.000 A 
ATOM      9  C   UNL     1      18.830  -4.475  26.329  0.00  0.00    +0.000 C 
ATOM     10  C   UNL     1      18.823  -6.954  26.659  0.00  0.00    +0.000 A 
ATOM     11  C   UNL     1      19.407  -8.188  26.478  0.00  0.00    +0.000 A 
ATOM     12  C   UNL     1      20.598  -8.263  25.789  0.00  0.00    +0.000 A 
ATOM     13  C   UNL     1      21.154  -9.512  25.627  0.00  0.00    +0.000 A 
ENDROOT
BRANCH  11  14
ATOM     14  N   UNL     1      18.802  -9.366  26.987  0.00  0.00    +0.000 NA
BRANCH  14  15
ATOM     15  C   UNL     1      18.811  -9.638  28.383  0.00  0.00    +0.000 A 
ATOM     16  C   UNL     1      17.653  -9.664  29.149  0.00  0.00    +0.000 A 
ATOM     17  C   UNL     1      17.704  -9.933  30.505  0.00  0.00    +0.000 A 
ATOM     18  C   UNL     1      18.884 -10.183  31.141  0.00  0.00    +0.000 A 
ATOM     19  O   UNL     1      18.946 -10.455  32.509  0.00  0.00    +0.000 OA
ATOM     20  C   UNL     1      20.048 -10.159  30.382  0.00  0.00    +0.000 A 
ATOM     21  C   UNL     1      19.994  -9.891  29.035  0.00  0.00    +0.000 A 
ENDBRANCH  14  15
ENDBRANCH  11  14
TORSDOF 2
ENDMDL
MODEL 9
REMARK VINA RESULT:      -6.3     18.915     20.772
REMARK  Name = 
REMARK  2 active torsions:
REMARK  status: ('A' for Active; 'I' for Inactive)
REMARK    1  A    between atoms: C_11  and  N_12
REMARK    2  A    between atoms: N_12  and  C_13
REMARK                            x       y       z     vdW  Elec       q    Type
REMARK                         _______ _______ _______ _____ _____    ______ ____
ROOT
ATOM      1  C   UNL     1      23.644  25.830  27.298  0.00  0.00    +0.000 C 
ATOM      2  C   UNL     1      24.931  25.073  27.491  0.00  0.00    +0.000 A 
ATOM      3  C   UNL     1      25.450  24.857  28.746  0.00  0.00    +0.000 A 
ATOM      4  C   UNL     1      26.622  24.171  28.970  0.00  0.00    +0.000 A 
ATOM      5  C   UNL     1      27.180  23.939  30.330  0.00  0.00    +0.000 C 
ATOM      6  C   UNL     1      27.328  23.667  27.897  0.00  0.00    +0.000 A 
ATOM      7  N   UNL     1      28.467  22.993  28.023  0.00  0.00    +0.000 NA
ATOM      8  C   UNL     1      29.121  22.519  26.947  0.00  0.00    +0.000 A 
ATOM      9  C   UNL     1      30.409  21.762  27.140  0.00  0.00    +0.000 C 
ATOM     10  C   UNL     1      28.634  22.715  25.659  0.00  0.00    +0.000 A 
ATOM     11  C   UNL     1      27.455  23.410  25.496  0.00  0.00    +0.000 A 
ATOM     12  C   UNL     1      26.805  23.884  26.615  0.00  0.00    +0.000 A 
ATOM     13  C   UNL     1      25.630  24.573  26.415  0.00  0.00    +0.000 A 
ENDROOT
BRANCH  11  14
ATOM     14  N   UNL     1      26.912  23.637  24.205  0.00  0.00    +0.000 NA
BRANCH  14  15
ATOM     15  C   UNL     1      27.635  24.392  23.240  0.00  0.00    +0.000 A 
ATOM     16  C   UNL     1      28.369  23.798  22.221  0.00  0.00    +0.000 A 
ATOM     17  C   UNL     1      29.057  24.568  21.301  0.00  0.00    +0.000 A 
ATOM     18  C   UNL     1      29.045  25.931  21.356  0.00  0.00    +0.000 A 
ATOM     19  O   UNL     1      29.738  26.716  20.432  0.00  0.00    +0.000 OA
ATOM     20  C   UNL     1      28.313  26.533  22.372  0.00  0.00    +0.000 A 
ATOM     21  C   UNL     1      27.630  25.765  23.285  0.00  0.00    +0.000 A 
ENDBRANCH  14  15
ENDBRANCH  11  14
TORSDOF 2
ENDMDL
MODEL 10
REMARK VINA RESULT:      -6.2     18.200     20.454
REMARK  Name = 
REMARK  2 active torsions:
REMARK  status: ('A' for Active; 'I' for Inactive)
REMARK    1  A    between atoms: C_11  and  N_12
REMARK    2  A    between atoms: N_12  and  C_13
REMARK                            x       y       z     vdW  Elec       q    Type
REMARK                         _______ _______ _______ _____ _____    ______ ____
ROOT
ATOM      1  C   UNL     1      31.337  22.421  29.472  0.00  0.00    +0.000 C 
ATOM      2  C   UNL     1      30.600  22.622  28.175  0.00  0.00    +0.000 A 
ATOM      3  C   UNL     1      31.276  22.743  26.984  0.00  0.00    +0.000 A 
ATOM      4  C   UNL     1      30.644  22.928  25.774  0.00  0.00    +0.000 A 
ATOM      5  C   UNL     1      31.379  23.058  24.486  0.00  0.00    +0.000 C 
ATOM      6  C   UNL     1      29.267  22.996  25.732  0.00  0.00    +0.000 A 
ATOM      7  N   UNL     1      28.577  23.172  24.608  0.00  0.00    +0.000 NA
ATOM      8  C   UNL     1      27.233  23.233  24.616  0.00  0.00    +0.000 A 
ATOM      9  C   UNL     1      26.496  23.433  23.318  0.00  0.00    +0.000 C 
ATOM     10  C   UNL     1      26.510  23.115  25.798  0.00  0.00    +0.000 A 
ATOM     11  C   UNL     1      27.196  22.933  26.979  0.00  0.00    +0.000 A 
ATOM     12  C   UNL     1      28.572  22.873  26.943  0.00  0.00    +0.000 A 
ATOM     13  C   UNL     1      29.225  22.689  28.141  0.00  0.00    +0.000 A 
ENDROOT
BRANCH  11  14
ATOM     14  N   UNL     1      26.508  22.806  28.213  0.00  0.00    +0.000 NA
BRANCH  14  15
ATOM     15  C   UNL     1      26.010  23.957  28.885  0.00  0.00    +0.000 A 
ATOM     16  C   UNL     1      26.202  24.173  30.243  0.00  0.00    +0.000 A 
ATOM     17  C   UNL     1      25.702  25.307  30.859  0.00  0.00    +0.000 A 
ATOM     18  C   UNL     1      25.005  26.250  30.164  0.00  0.00    +0.000 A 
ATOM     19  O   UNL     1      24.495  27.397  30.777  0.00  0.00    +0.000 OA
ATOM     20  C   UNL     1      24.807  26.040  28.804  0.00  0.00    +0.000 A 
ATOM     21  C   UNL     1      25.305  24.913  28.195  0.00  0.00    +0.000 A 
ENDBRANCH  14  15
ENDBRANCH  11  14
TORSDOF 2
ENDMDL
