MODEL 1
REMARK VINA RESULT:      -6.9      0.000      0.000
REMARK  Name = 
REMARK  4 active torsions:
REMARK  status: ('A' for Active; 'I' for Inactive)
REMARK    1  A    between atoms: O_2  and  C_3
REMARK    2  A    between atoms: C_6  and  C_7
REMARK    3  A    between atoms: C_12  and  C_13
REMARK    4  A    between atoms: C_15  and  C_16
REMARK                            x       y       z     vdW  Elec       q    Type
REMARK                         _______ _______ _______ _____ _____    ______ ____
ROOT
ATOM      1  C   UNL     1      33.538  20.155  10.848  0.00  0.00    +0.000 C 
ATOM      2  O   UNL     1      33.292  19.699   9.677  0.00  0.00    +0.000 OA
ATOM      3  N   UNL     1      34.760  19.928  11.506  0.00  0.00    +0.000 N 
ATOM      4  C   UNL     1      35.862  19.174  10.964  0.00  0.00    +0.000 C 
ATOM      5  C   UNL     1      36.797  20.384  10.995  0.00  0.00    +0.000 C 
ATOM      6  C   UNL     1      36.770  20.605  12.629  0.00  0.00    +0.000 C 
ATOM      7  C   UNL     1      35.150  20.365  12.767  0.00  0.00    +0.000 C 
ENDROOT
BRANCH   1  11
ATOM      8  C   UNL     1      30.405  22.401  12.625  0.00  0.00    +0.000 A 
ATOM      9  N   UNL     1      30.623  21.113  12.939  0.00  0.00    +0.000 NA
ATOM     10  C   UNL     1      31.608  20.373  12.394  0.00  0.00    +0.000 A 
ATOM     11  C   UNL     1      32.456  20.936  11.460  0.00  0.00    +0.000 A 
ATOM     12  C   UNL     1      32.220  22.257  11.148  0.00  0.00    +0.000 A 
ATOM     13  N   UNL     1      31.222  22.961  11.718  0.00  0.00    +0.000 NA
BRANCH   8  15
ATOM     14  C   UNL     1      28.247  23.446  12.443  0.00  0.00    +0.000 C 
ATOM     15  O   UNL     1      29.370  23.141  13.213  0.00  0.00    +0.000 OA
ENDBRANCH   8  15
ENDBRANCH   1  11
BRANCH   6  16
ATOM     16  C   UNL     1      37.180  19.161  13.069  0.00  0.00    +0.000 A 
ATOM     17  N   UNL     1      36.612  18.673  14.177  0.00  0.00    +0.000 NA
ATOM     18  C   UNL     1      37.091  17.409  14.400  0.00  0.00    +0.000 A 
ATOM     19  N   UNL     1      37.945  17.198  13.387  0.00  0.00    +0.000 NA
ATOM     20  O   UNL     1      37.950  18.282  12.631  0.00  0.00    +0.000 OA
BRANCH  18  21
ATOM     21  C   UNL     1      36.739  16.513  15.496  0.00  0.00    +0.000 A 
ATOM     22  C   UNL     1      35.575  15.783  15.432  0.00  0.00    +0.000 A 
ATOM     23  C   UNL     1      35.219  14.923  16.465  0.00  0.00    +0.000 A 
ATOM     24  C   UNL     1      36.019  14.777  17.579  0.00  0.00    +0.000 A 
ATOM     25  N   UNL     1      37.149  15.499  17.621  0.00  0.00    +0.000 NA
ATOM     26  C   UNL     1      37.516  16.349  16.617  0.00  0.00    +0.000 A 
ENDBRANCH  18  21
ENDBRANCH   6  16
TORSDOF 4
ENDMDL
MODEL 2
REMARK VINA RESULT:      -6.7      2.121      3.386
REMARK  Name = 
REMARK  4 active torsions:
REMARK  status: ('A' for Active; 'I' for Inactive)
REMARK    1  A    between atoms: O_2  and  C_3
REMARK    2  A    between atoms: C_6  and  C_7
REMARK    3  A    between atoms: C_12  and  C_13
REMARK    4  A    between atoms: C_15  and  C_16
REMARK                            x       y       z     vdW  Elec       q    Type
REMARK                         _______ _______ _______ _____ _____    ______ ____
ROOT
ATOM      1  C   UNL     1      30.654  20.930  10.834  0.00  0.00    +0.000 C 
ATOM      2  O   UNL     1      29.920  20.100  10.192  0.00  0.00    +0.000 OA
ATOM      3  N   UNL     1      32.056  20.940  10.724  0.00  0.00    +0.000 N 
ATOM      4  C   UNL     1      32.826  20.044   9.899  0.00  0.00    +0.000 C 
ATOM      5  C   UNL     1      33.385  21.190   9.054  0.00  0.00    +0.000 C 
ATOM      6  C   UNL     1      34.183  21.958  10.276  0.00  0.00    +0.000 C 
ATOM      7  C   UNL     1      32.960  21.782  11.360  0.00  0.00    +0.000 C 
ENDROOT
BRANCH   1  11
ATOM      8  C   UNL     1      28.561  23.666  13.313  0.00  0.00    +0.000 A 
ATOM      9  N   UNL     1      28.215  23.460  12.031  0.00  0.00    +0.000 NA
ATOM     10  C   UNL     1      28.858  22.599  11.218  0.00  0.00    +0.000 A 
ATOM     11  C   UNL     1      29.932  21.875  11.695  0.00  0.00    +0.000 A 
ATOM     12  C   UNL     1      30.276  22.097  13.011  0.00  0.00    +0.000 A 
ATOM     13  N   UNL     1      29.604  22.968  13.790  0.00  0.00    +0.000 NA
BRANCH   8  15
ATOM     14  C   UNL     1      28.601  25.510  14.856  0.00  0.00    +0.000 C 
ATOM     15  O   UNL     1      27.868  24.571  14.130  0.00  0.00    +0.000 OA
ENDBRANCH   8  15
ENDBRANCH   1  11
BRANCH   6  16
ATOM     16  C   UNL     1      35.030  20.752  10.799  0.00  0.00    +0.000 A 
ATOM     17  N   UNL     1      35.248  20.681  12.117  0.00  0.00    +0.000 NA
ATOM     18  C   UNL     1      36.002  19.568  12.382  0.00  0.00    +0.000 A 
ATOM     19  N   UNL     1      36.204  19.013  11.176  0.00  0.00    +0.000 NA
ATOM     20  O   UNL     1      35.597  19.770  10.278  0.00  0.00    +0.000 OA
BRANCH  18  21
ATOM     21  C   UNL     1      36.469  19.109  13.684  0.00  0.00    +0.000 A 
ATOM     22  C   UNL     1      37.080  19.995  14.540  0.00  0.00    +0.000 A 
ATOM     23  C   UNL     1      37.533  19.579  15.788  0.00  0.00    +0.000 A 
ATOM     24  C   UNL     1      37.384  18.272  16.201  0.00  0.00    +0.000 A 
ATOM     25  N   UNL     1      36.785  17.424  15.350  0.00  0.00    +0.000 NA
ATOM     26  C   UNL     1      36.334  17.813  14.121  0.00  0.00    +0.000 A 
ENDBRANCH  18  21
ENDBRANCH   6  16
TORSDOF 4
ENDMDL
MODEL 3
REMARK VINA RESULT:      -6.5     27.735     29.783
REMARK  Name = 
REMARK  4 active torsions:
REMARK  status: ('A' for Active; 'I' for Inactive)
REMARK    1  A    between atoms: O_2  and  C_3
REMARK    2  A    between atoms: C_6  and  C_7
REMARK    3  A    between atoms: C_12  and  C_13
REMARK    4  A    between atoms: C_15  and  C_16
REMARK                            x       y       z     vdW  Elec       q    Type
REMARK                         _______ _______ _______ _____ _____    ______ ____
ROOT
ATOM      1  C   UNL     1      16.240  10.905  36.667  0.00  0.00    +0.000 C 
ATOM      2  O   UNL     1      15.141  10.925  37.323  0.00  0.00    +0.000 OA
ATOM      3  N   UNL     1      17.489  10.739  37.292  0.00  0.00    +0.000 N 
ATOM      4  C   UNL     1      17.688  10.573  38.709  0.00  0.00    +0.000 C 
ATOM      5  C   UNL     1      18.303   9.184  38.532  0.00  0.00    +0.000 C 
ATOM      6  C   UNL     1      19.605   9.662  37.642  0.00  0.00    +0.000 C 
ATOM      7  C   UNL     1      18.746  10.699  36.699  0.00  0.00    +0.000 C 
ENDROOT
BRANCH   1  11
ATOM      8  C   UNL     1      15.855  11.384  32.467  0.00  0.00    +0.000 A 
ATOM      9  N   UNL     1      15.158  12.136  33.335  0.00  0.00    +0.000 NA
ATOM     10  C   UNL     1      15.258  12.010  34.673  0.00  0.00    +0.000 A 
ATOM     11  C   UNL     1      16.110  11.068  35.214  0.00  0.00    +0.000 A 
ATOM     12  C   UNL     1      16.818  10.303  34.311  0.00  0.00    +0.000 A 
ATOM     13  N   UNL     1      16.688  10.463  32.980  0.00  0.00    +0.000 NA
BRANCH   8  15
ATOM     14  C   UNL     1      14.600  12.201  30.586  0.00  0.00    +0.000 C 
ATOM     15  O   UNL     1      15.726  11.543  31.080  0.00  0.00    +0.000 OA
ENDBRANCH   8  15
ENDBRANCH   1  11
BRANCH   6  16
ATOM     16  C   UNL     1      20.163  10.757  38.609  0.00  0.00    +0.000 A 
ATOM     17  N   UNL     1      20.505  11.933  38.073  0.00  0.00    +0.000 NA
ATOM     18  C   UNL     1      20.968  12.755  39.066  0.00  0.00    +0.000 A 
ATOM     19  N   UNL     1      20.878  12.009  40.178  0.00  0.00    +0.000 NA
ATOM     20  O   UNL     1      20.391  10.830  39.835  0.00  0.00    +0.000 OA
BRANCH  18  21
ATOM     21  C   UNL     1      21.445  14.126  38.926  0.00  0.00    +0.000 A 
ATOM     22  C   UNL     1      20.539  15.156  38.834  0.00  0.00    +0.000 A 
ATOM     23  C   UNL     1      20.971  16.472  38.700  0.00  0.00    +0.000 A 
ATOM     24  C   UNL     1      22.314  16.779  38.655  0.00  0.00    +0.000 A 
ATOM     25  N   UNL     1      23.181  15.759  38.746  0.00  0.00    +0.000 NA
ATOM     26  C   UNL     1      22.777  14.461  38.878  0.00  0.00    +0.000 A 
ENDBRANCH  18  21
ENDBRANCH   6  16
TORSDOF 4
ENDMDL
MODEL 4
REMARK VINA RESULT:      -6.4     12.655     14.289
REMARK  Name = 
REMARK  4 active torsions:
REMARK  status: ('A' for Active; 'I' for Inactive)
REMARK    1  A    between atoms: O_2  and  C_3
REMARK    2  A    between atoms: C_6  and  C_7
REMARK    3  A    between atoms: C_12  and  C_13
REMARK    4  A    between atoms: C_15  and  C_16
REMARK                            x       y       z     vdW  Elec       q    Type
REMARK                         _______ _______ _______ _____ _____    ______ ____
ROOT
ATOM      1  C   UNL     1      28.503  24.942  23.394  0.00  0.00    +0.000 C 
ATOM      2  O   UNL     1      27.236  24.916  23.580  0.00  0.00    +0.000 OA
ATOM      3  N   UNL     1      29.407  24.315  24.270  0.00  0.00    +0.000 N 
ATOM      4  C   UNL     1      29.037  23.585  25.455  0.00  0.00    +0.000 C 
ATOM      5  C   UNL     1      29.632  22.280  24.923  0.00  0.00    +0.000 C 
ATOM      6  C   UNL     1      31.191  22.807  24.821  0.00  0.00    +0.000 C 
ATOM      7  C   UNL     1      30.794  24.268  24.182  0.00  0.00    +0.000 C 
ENDROOT
BRANCH   1  11
ATOM      8  C   UNL     1      29.801  27.036  19.938  0.00  0.00    +0.000 A 
ATOM      9  N   UNL     1      29.739  25.695  19.975  0.00  0.00    +0.000 NA
ATOM     10  C   UNL     1      29.332  25.000  21.055  0.00  0.00    +0.000 A 
ATOM     11  C   UNL     1      28.950  25.670  22.201  0.00  0.00    +0.000 A 
ATOM     12  C   UNL     1      29.019  27.046  22.148  0.00  0.00    +0.000 A 
ATOM     13  N   UNL     1      29.432  27.701  21.045  0.00  0.00    +0.000 NA
BRANCH   8  15
ATOM     14  C   UNL     1      29.476  28.813  18.351  0.00  0.00    +0.000 C 
ATOM     15  O   UNL     1      30.230  27.727  18.796  0.00  0.00    +0.000 OA
ENDBRANCH   8  15
ENDBRANCH   1  11
BRANCH   6  16
ATOM     16  C   UNL     1      31.362  23.320  26.288  0.00  0.00    +0.000 A 
ATOM     17  N   UNL     1      31.147  22.443  27.274  0.00  0.00    +0.000 NA
ATOM     18  C   UNL     1      31.343  23.072  28.477  0.00  0.00    +0.000 A 
ATOM     19  N   UNL     1      31.675  24.328  28.140  0.00  0.00    +0.000 NA
ATOM     20  O   UNL     1      31.668  24.408  26.821  0.00  0.00    +0.000 OA
BRANCH  18  21
ATOM     21  C   UNL     1      31.216  22.490  29.807  0.00  0.00    +0.000 A 
ATOM     22  C   UNL     1      30.215  22.920  30.646  0.00  0.00    +0.000 A 
ATOM     23  C   UNL     1      30.074  22.379  31.920  0.00  0.00    +0.000 A 
ATOM     24  C   UNL     1      30.930  21.400  32.376  0.00  0.00    +0.000 A 
ATOM     25  N   UNL     1      31.900  20.994  31.541  0.00  0.00    +0.000 NA
ATOM     26  C   UNL     1      32.054  21.513  30.288  0.00  0.00    +0.000 A 
ENDBRANCH  18  21
ENDBRANCH   6  16
TORSDOF 4
ENDMDL
MODEL 5
REMARK VINA RESULT:      -6.2     13.702     16.783
REMARK  Name = 
REMARK  4 active torsions:
REMARK  status: ('A' for Active; 'I' for Inactive)
REMARK    1  A    between atoms: O_2  and  C_3
REMARK    2  A    between atoms: C_6  and  C_7
REMARK    3  A    between atoms: C_12  and  C_13
REMARK    4  A    between atoms: C_15  and  C_16
REMARK                            x       y       z     vdW  Elec       q    Type
REMARK                         _______ _______ _______ _____ _____    ______ ____
ROOT
ATOM      1  C   UNL     1      26.774  23.790  23.102  0.00  0.00    +0.000 C 
ATOM      2  O   UNL     1      25.905  23.049  22.522  0.00  0.00    +0.000 OA
ATOM      3  N   UNL     1      26.868  23.888  24.502  0.00  0.00    +0.000 N 
ATOM      4  C   UNL     1      26.024  23.189  25.438  0.00  0.00    +0.000 C 
ATOM      5  C   UNL     1      27.205  22.432  26.046  0.00  0.00    +0.000 C 
ATOM      6  C   UNL     1      28.014  23.755  26.607  0.00  0.00    +0.000 C 
ATOM      7  C   UNL     1      27.759  24.648  25.251  0.00  0.00    +0.000 C 
ENDROOT
BRANCH   1  11
ATOM      8  C   UNL     1      29.373  25.924  20.513  0.00  0.00    +0.000 A 
ATOM      9  N   UNL     1      29.629  24.662  20.895  0.00  0.00    +0.000 NA
ATOM     10  C   UNL     1      28.825  23.957  21.715  0.00  0.00    +0.000 A 
ATOM     11  C   UNL     1      27.670  24.531  22.207  0.00  0.00    +0.000 A 
ATOM     12  C   UNL     1      27.421  25.827  21.807  0.00  0.00    +0.000 A 
ATOM     13  N   UNL     1      28.252  26.495  20.984  0.00  0.00    +0.000 NA
BRANCH   8  15
ATOM     14  C   UNL     1      29.705  27.662  18.886  0.00  0.00    +0.000 C 
ATOM     15  O   UNL     1      30.233  26.628  19.658  0.00  0.00    +0.000 OA
ENDBRANCH   8  15
ENDBRANCH   1  11
BRANCH   6  16
ATOM     16  C   UNL     1      26.858  24.402  27.439  0.00  0.00    +0.000 A 
ATOM     17  N   UNL     1      26.740  25.734  27.393  0.00  0.00    +0.000 NA
ATOM     18  C   UNL     1      25.681  26.112  28.177  0.00  0.00    +0.000 A 
ATOM     19  N   UNL     1      25.205  24.956  28.666  0.00  0.00    +0.000 NA
ATOM     20  O   UNL     1      25.952  23.977  28.186  0.00  0.00    +0.000 OA
BRANCH  18  21
ATOM     21  C   UNL     1      25.198  27.467  28.412  0.00  0.00    +0.000 A 
ATOM     22  C   UNL     1      25.570  28.134  29.556  0.00  0.00    +0.000 A 
ATOM     23  C   UNL     1      25.121  29.427  29.802  0.00  0.00    +0.000 A 
ATOM     24  C   UNL     1      24.294  30.076  28.910  0.00  0.00    +0.000 A 
ATOM     25  N   UNL     1      23.944  29.407  27.800  0.00  0.00    +0.000 NA
ATOM     26  C   UNL     1      24.373  28.137  27.541  0.00  0.00    +0.000 A 
ENDBRANCH  18  21
ENDBRANCH   6  16
TORSDOF 4
ENDMDL
MODEL 6
REMARK VINA RESULT:      -6.2     29.643     33.622
REMARK  Name = 
REMARK  4 active torsions:
REMARK  status: ('A' for Active; 'I' for Inactive)
REMARK    1  A    between atoms: O_2  and  C_3
REMARK    2  A    between atoms: C_6  and  C_7
REMARK    3  A    between atoms: C_12  and  C_13
REMARK    4  A    between atoms: C_15  and  C_16
REMARK                            x       y       z     vdW  Elec       q    Type
REMARK                         _______ _______ _______ _____ _____    ______ ____
ROOT
ATOM      1  C   UNL     1      18.192   5.958  41.272  0.00  0.00    +0.000 C 
ATOM      2  O   UNL     1      17.299   5.278  41.889  0.00  0.00    +0.000 OA
ATOM      3  N   UNL     1      17.978   7.285  40.858  0.00  0.00    +0.000 N 
ATOM      4  C   UNL     1      16.763   8.030  41.068  0.00  0.00    +0.000 C 
ATOM      5  C   UNL     1      17.472   9.081  41.924  0.00  0.00    +0.000 C 
ATOM      6  C   UNL     1      18.494   9.626  40.751  0.00  0.00    +0.000 C 
ATOM      7  C   UNL     1      18.858   8.126  40.187  0.00  0.00    +0.000 C 
ENDROOT
BRANCH   1  11
ATOM      8  C   UNL     1      21.849   3.928  40.550  0.00  0.00    +0.000 A 
ATOM      9  N   UNL     1      20.808   3.841  39.704  0.00  0.00    +0.000 NA
ATOM     10  C   UNL     1      19.635   4.472  39.904  0.00  0.00    +0.000 A 
ATOM     11  C   UNL     1      19.458   5.258  41.026  0.00  0.00    +0.000 A 
ATOM     12  C   UNL     1      20.534   5.338  41.884  0.00  0.00    +0.000 A 
ATOM     13  N   UNL     1      21.691   4.690  41.645  0.00  0.00    +0.000 NA
BRANCH   8  15
ATOM     14  C   UNL     1      23.921   3.036  41.381  0.00  0.00    +0.000 C 
ATOM     15  O   UNL     1      23.056   3.257  40.309  0.00  0.00    +0.000 OA
ENDBRANCH   8  15
ENDBRANCH   1  11
BRANCH   6  16
ATOM     16  C   UNL     1      17.435   9.955  39.649  0.00  0.00    +0.000 A 
ATOM     17  N   UNL     1      17.864  10.014  38.384  0.00  0.00    +0.000 NA
ATOM     18  C   UNL     1      16.802  10.311  37.569  0.00  0.00    +0.000 A 
ATOM     19  N   UNL     1      15.762  10.417  38.411  0.00  0.00    +0.000 NA
ATOM     20  O   UNL     1      16.209  10.193  39.634  0.00  0.00    +0.000 OA
BRANCH  18  21
ATOM     21  C   UNL     1      16.820  10.470  36.120  0.00  0.00    +0.000 A 
ATOM     22  C   UNL     1      15.948  11.348  35.520  0.00  0.00    +0.000 A 
ATOM     23  C   UNL     1      15.947  11.516  34.140  0.00  0.00    +0.000 A 
ATOM     24  C   UNL     1      16.817  10.811  33.336  0.00  0.00    +0.000 A 
ATOM     25  N   UNL     1      17.659   9.960  33.941  0.00  0.00    +0.000 NA
ATOM     26  C   UNL     1      17.676   9.780  35.295  0.00  0.00    +0.000 A 
ENDBRANCH  18  21
ENDBRANCH   6  16
TORSDOF 4
ENDMDL
MODEL 7
REMARK VINA RESULT:      -6.2     14.267     16.957
REMARK  Name = 
REMARK  4 active torsions:
REMARK  status: ('A' for Active; 'I' for Inactive)
REMARK    1  A    between atoms: O_2  and  C_3
REMARK    2  A    between atoms: C_6  and  C_7
REMARK    3  A    between atoms: C_12  and  C_13
REMARK    4  A    between atoms: C_15  and  C_16
REMARK                            x       y       z     vdW  Elec       q    Type
REMARK                         _______ _______ _______ _____ _____    ______ ____
ROOT
ATOM      1  C   UNL     1      26.736  23.882  22.814  0.00  0.00    +0.000 C 
ATOM      2  O   UNL     1      25.992  23.048  22.189  0.00  0.00    +0.000 OA
ATOM      3  N   UNL     1      26.664  24.060  24.208  0.00  0.00    +0.000 N 
ATOM      4  C   UNL     1      25.770  23.348  25.086  0.00  0.00    +0.000 C 
ATOM      5  C   UNL     1      26.925  22.716  25.864  0.00  0.00    +0.000 C 
ATOM      6  C   UNL     1      27.570  24.124  26.429  0.00  0.00    +0.000 C 
ATOM      7  C   UNL     1      27.409  24.923  25.002  0.00  0.00    +0.000 C 
ENDROOT
BRANCH   1  11
ATOM      8  C   UNL     1      29.456  26.069  20.400  0.00  0.00    +0.000 A 
ATOM      9  N   UNL     1      29.731  24.828  20.835  0.00  0.00    +0.000 NA
ATOM     10  C   UNL     1      28.890  24.108  21.602  0.00  0.00    +0.000 A 
ATOM     11  C   UNL     1      27.673  24.641  21.979  0.00  0.00    +0.000 A 
ATOM     12  C   UNL     1      27.405  25.915  21.525  0.00  0.00    +0.000 A 
ATOM     13  N   UNL     1      28.276  26.601  20.758  0.00  0.00    +0.000 NA
BRANCH   8  15
ATOM     14  C   UNL     1      29.908  27.955  18.978  0.00  0.00    +0.000 C 
ATOM     15  O   UNL     1      30.355  26.790  19.602  0.00  0.00    +0.000 OA
ENDBRANCH   8  15
ENDBRANCH   1  11
BRANCH   6  16
ATOM     16  C   UNL     1      26.286  24.724  27.089  0.00  0.00    +0.000 A 
ATOM     17  N   UNL     1      26.328  24.970  28.403  0.00  0.00    +0.000 NA
ATOM     18  C   UNL     1      25.121  25.488  28.796  0.00  0.00    +0.000 A 
ATOM     19  N   UNL     1      24.397  25.527  27.666  0.00  0.00    +0.000 NA
ATOM     20  O   UNL     1      25.151  25.058  26.687  0.00  0.00    +0.000 OA
BRANCH  18  21
ATOM     21  C   UNL     1      24.733  25.897  30.140  0.00  0.00    +0.000 A 
ATOM     22  C   UNL     1      25.588  25.675  31.193  0.00  0.00    +0.000 A 
ATOM     23  C   UNL     1      25.239  26.056  32.485  0.00  0.00    +0.000 A 
ATOM     24  C   UNL     1      24.030  26.666  32.745  0.00  0.00    +0.000 A 
ATOM     25  N   UNL     1      23.210  26.873  31.702  0.00  0.00    +0.000 NA
ATOM     26  C   UNL     1      23.535  26.506  30.428  0.00  0.00    +0.000 A 
ENDBRANCH  18  21
ENDBRANCH   6  16
TORSDOF 4
ENDMDL
MODEL 8
REMARK VINA RESULT:      -6.2     26.176     30.546
REMARK  Name = 
REMARK  4 active torsions:
REMARK  status: ('A' for Active; 'I' for Inactive)
REMARK    1  A    between atoms: O_2  and  C_3
REMARK    2  A    between atoms: C_6  and  C_7
REMARK    3  A    between atoms: C_12  and  C_13
REMARK    4  A    between atoms: C_15  and  C_16
REMARK                            x       y       z     vdW  Elec       q    Type
REMARK                         _______ _______ _______ _____ _____    ______ ____
ROOT
ATOM      1  C   UNL     1      34.711  -1.849  35.096  0.00  0.00    +0.000 C 
ATOM      2  O   UNL     1      35.821  -1.879  35.734  0.00  0.00    +0.000 OA
ATOM      3  N   UNL     1      33.925  -2.999  34.895  0.00  0.00    +0.000 N 
ATOM      4  C   UNL     1      34.258  -4.319  35.366  0.00  0.00    +0.000 C 
ATOM      5  C   UNL     1      33.011  -4.395  36.249  0.00  0.00    +0.000 C 
ATOM      6  C   UNL     1      31.906  -4.288  35.031  0.00  0.00    +0.000 C 
ATOM      7  C   UNL     1      32.710  -3.101  34.228  0.00  0.00    +0.000 C 
ENDROOT
BRANCH   1  11
ATOM      8  C   UNL     1      33.555   1.957  33.616  0.00  0.00    +0.000 A 
ATOM      9  N   UNL     1      33.931   0.960  32.797  0.00  0.00    +0.000 NA
ATOM     10  C   UNL     1      34.304  -0.259  33.235  0.00  0.00    +0.000 A 
ATOM     11  C   UNL     1      34.310  -0.532  34.589  0.00  0.00    +0.000 A 
ATOM     12  C   UNL     1      33.921   0.500  35.416  0.00  0.00    +0.000 A 
ATOM     13  N   UNL     1      33.556   1.705  34.935  0.00  0.00    +0.000 NA
BRANCH   8  15
ATOM     14  C   UNL     1      33.513   4.348  33.862  0.00  0.00    +0.000 C 
ATOM     15  O   UNL     1      33.173   3.213  33.126  0.00  0.00    +0.000 OA
ENDBRANCH   8  15
ENDBRANCH   1  11
BRANCH   6  16
ATOM     16  C   UNL     1      32.426  -5.461  34.136  0.00  0.00    +0.000 A 
ATOM     17  N   UNL     1      32.559  -5.222  32.827  0.00  0.00    +0.000 NA
ATOM     18  C   UNL     1      33.022  -6.358  32.215  0.00  0.00    +0.000 A 
ATOM     19  N   UNL     1      33.147  -7.243  33.215  0.00  0.00    +0.000 NA
ATOM     20  O   UNL     1      32.775  -6.644  34.333  0.00  0.00    +0.000 OA
BRANCH  18  21
ATOM     21  C   UNL     1      33.308  -6.540  30.797  0.00  0.00    +0.000 A 
ATOM     22  C   UNL     1      32.958  -7.717  30.177  0.00  0.00    +0.000 A 
ATOM     23  C   UNL     1      33.221  -7.914  28.826  0.00  0.00    +0.000 A 
ATOM     24  C   UNL     1      33.837  -6.939  28.071  0.00  0.00    +0.000 A 
ATOM     25  N   UNL     1      34.171  -5.798  28.695  0.00  0.00    +0.000 NA
ATOM     26  C   UNL     1      33.921  -5.586  30.020  0.00  0.00    +0.000 A 
ENDBRANCH  18  21
ENDBRANCH   6  16
TORSDOF 4
ENDMDL
MODEL 9
REMARK VINA RESULT:      -6.2      5.556      7.095
REMARK  Name = 
REMARK  4 active torsions:
REMARK  status: ('A' for Active; 'I' for Inactive)
REMARK    1  A    between atoms: O_2  and  C_3
REMARK    2  A    between atoms: C_6  and  C_7
REMARK    3  A    between atoms: C_12  and  C_13
REMARK    4  A    between atoms: C_15  and  C_16
REMARK                            x       y       z     vdW  Elec       q    Type
REMARK                         _______ _______ _______ _____ _____    ______ ____
ROOT
ATOM      1  C   UNL     1      31.223  20.851  11.311  0.00  0.00    +0.000 C 
ATOM      2  O   UNL     1      31.399  19.735  11.914  0.00  0.00    +0.000 OA
ATOM      3  N   UNL     1      32.100  21.316  10.315  0.00  0.00    +0.000 N 
ATOM      4  C   UNL     1      33.275  20.619   9.857  0.00  0.00    +0.000 C 
ATOM      5  C   UNL     1      32.733  20.497   8.431  0.00  0.00    +0.000 C 
ATOM      6  C   UNL     1      32.650  22.113   8.118  0.00  0.00    +0.000 C 
ATOM      7  C   UNL     1      32.023  22.499   9.588  0.00  0.00    +0.000 C 
ENDROOT
BRANCH   1  11
ATOM      8  C   UNL     1      27.812  23.062  12.530  0.00  0.00    +0.000 A 
ATOM      9  N   UNL     1      28.937  23.029  13.264  0.00  0.00    +0.000 NA
ATOM     10  C   UNL     1      30.036  22.338  12.905  0.00  0.00    +0.000 A 
ATOM     11  C   UNL     1      30.042  21.615  11.729  0.00  0.00    +0.000 A 
ATOM     12  C   UNL     1      28.880  21.658  10.987  0.00  0.00    +0.000 A 
ATOM     13  N   UNL     1      27.803  22.364  11.383  0.00  0.00    +0.000 NA
BRANCH   8  15
ATOM     14  C   UNL     1      25.741  24.148  11.972  0.00  0.00    +0.000 C 
ATOM     15  O   UNL     1      26.686  23.793  12.935  0.00  0.00    +0.000 OA
ENDBRANCH   8  15
ENDBRANCH   1  11
BRANCH   6  16
ATOM     16  C   UNL     1      34.124  22.498   8.472  0.00  0.00    +0.000 A 
ATOM     17  N   UNL     1      34.314  23.624   9.168  0.00  0.00    +0.000 NA
ATOM     18  C   UNL     1      35.657  23.793   9.380  0.00  0.00    +0.000 A 
ATOM     19  N   UNL     1      36.220  22.729   8.784  0.00  0.00    +0.000 NA
ATOM     20  O   UNL     1      35.249  21.999   8.263  0.00  0.00    +0.000 OA
BRANCH  18  21
ATOM     21  C   UNL     1      36.307  24.885  10.094  0.00  0.00    +0.000 A 
ATOM     22  C   UNL     1      37.029  24.620  11.234  0.00  0.00    +0.000 A 
ATOM     23  C   UNL     1      37.657  25.647  11.932  0.00  0.00    +0.000 A 
ATOM     24  C   UNL     1      37.575  26.954  11.502  0.00  0.00    +0.000 A 
ATOM     25  N   UNL     1      36.867  27.190  10.387  0.00  0.00    +0.000 NA
ATOM     26  C   UNL     1      36.242  26.197   9.689  0.00  0.00    +0.000 A 
ENDBRANCH  18  21
ENDBRANCH   6  16
TORSDOF 4
ENDMDL
MODEL 10
REMARK VINA RESULT:      -6.2     16.220     18.549
REMARK  Name = 
REMARK  4 active torsions:
REMARK  status: ('A' for Active; 'I' for Inactive)
REMARK    1  A    between atoms: O_2  and  C_3
REMARK    2  A    between atoms: C_6  and  C_7
REMARK    3  A    between atoms: C_12  and  C_13
REMARK    4  A    between atoms: C_15  and  C_16
REMARK                            x       y       z     vdW  Elec       q    Type
REMARK                         _______ _______ _______ _____ _____    ______ ____
ROOT
ATOM      1  C   UNL     1      26.268  26.033  30.192  0.00  0.00    +0.000 C 
ATOM      2  O   UNL     1      27.025  26.957  30.654  0.00  0.00    +0.000 OA
ATOM      3  N   UNL     1      26.779  24.848  29.632  0.00  0.00    +0.000 N 
ATOM      4  C   UNL     1      28.179  24.529  29.508  0.00  0.00    +0.000 C 
ATOM      5  C   UNL     1      28.051  23.299  30.407  0.00  0.00    +0.000 C 
ATOM      6  C   UNL     1      27.003  22.466  29.445  0.00  0.00    +0.000 C 
ATOM      7  C   UNL     1      26.071  23.776  29.101  0.00  0.00    +0.000 C 
ENDROOT
BRANCH   1  11
ATOM      8  C   UNL     1      22.100  26.778  30.482  0.00  0.00    +0.000 A 
ATOM      9  N   UNL     1      22.853  26.520  31.565  0.00  0.00    +0.000 NA
ATOM     10  C   UNL     1      24.177  26.280  31.507  0.00  0.00    +0.000 A 
ATOM     11  C   UNL     1      24.827  26.292  30.288  0.00  0.00    +0.000 A 
ATOM     12  C   UNL     1      24.041  26.558  29.187  0.00  0.00    +0.000 A 
ATOM     13  N   UNL     1      22.719  26.793  29.290  0.00  0.00    +0.000 NA
BRANCH   8  15
ATOM     14  C   UNL     1      19.879  26.482  29.611  0.00  0.00    +0.000 C 
ATOM     15  O   UNL     1      20.723  27.025  30.580  0.00  0.00    +0.000 OA
ENDBRANCH   8  15
ENDBRANCH   1  11
BRANCH   6  16
ATOM     16  C   UNL     1      27.823  22.505  28.114  0.00  0.00    +0.000 A 
ATOM     17  N   UNL     1      27.172  22.862  27.002  0.00  0.00    +0.000 NA
ATOM     18  C   UNL     1      28.048  22.837  25.948  0.00  0.00    +0.000 A 
ATOM     19  N   UNL     1      29.212  22.456  26.497  0.00  0.00    +0.000 NA
ATOM     20  O   UNL     1      29.007  22.275  27.790  0.00  0.00    +0.000 OA
BRANCH  18  21
ATOM     21  C   UNL     1      27.761  23.156  24.555  0.00  0.00    +0.000 A 
ATOM     22  C   UNL     1      28.789  23.498  23.708  0.00  0.00    +0.000 A 
ATOM     23  C   UNL     1      28.538  23.807  22.375  0.00  0.00    +0.000 A 
ATOM     24  C   UNL     1      27.258  23.779  21.866  0.00  0.00    +0.000 A 
ATOM     25  N   UNL     1      26.269  23.442  22.709  0.00  0.00    +0.000 NA
ATOM     26  C   UNL     1      26.494  23.136  24.021  0.00  0.00    +0.000 A 
ENDBRANCH  18  21
ENDBRANCH   6  16
TORSDOF 4
ENDMDL
