MODEL 1
REMARK VINA RESULT:      -6.3      0.000      0.000
REMARK  Name = 
REMARK  3 active torsions:
REMARK  status: ('A' for Active; 'I' for Inactive)
REMARK    1  A    between atoms: O_2  and  C_3
REMARK    2  A    between atoms: C_6  and  C_7
REMARK    3  A    between atoms: C_7  and  C_11
REMARK                            x       y       z     vdW  Elec       q    Type
REMARK                         _______ _______ _______ _____ _____    ______ ____
ROOT
ATOM      1  C   UNL     1      18.549  10.008  38.729  0.00  0.00    +0.000 C 
ATOM      2  C   UNL     1      19.441  10.859  39.200  0.00  0.00    +0.000 C 
ATOM      3 CL   UNL     1      20.131  10.704  40.801  0.00  0.00    +0.000 Cl
ATOM      4 CL   UNL     1      19.944  12.186  38.182  0.00  0.00    +0.000 Cl
ENDROOT
BRANCH   1   5
ATOM      5  C   UNL     1      18.122   8.904  39.562  0.00  0.00    +0.000 A 
ATOM      6  C   UNL     1      17.001   8.997  40.394  0.00  0.00    +0.000 A 
ATOM      7  C   UNL     1      16.661   7.899  41.157  0.00  0.00    +0.000 A 
ATOM      8  C   UNL     1      17.359   6.710  41.147  0.00  0.00    +0.000 A 
ATOM      9  O   UNL     1      17.008   5.610  41.917  0.00  0.00    +0.000 OA
ATOM     10  C   UNL     1      18.466   6.656  40.308  0.00  0.00    +0.000 A 
ATOM     11  C   UNL     1      18.832   7.737  39.535  0.00  0.00    +0.000 A 
ENDBRANCH   1   5
BRANCH   1  15
ATOM     12  C   UNL     1      16.864  10.403  34.839  0.00  0.00    +0.000 A 
ATOM     13  C   UNL     1      17.987   9.638  35.035  0.00  0.00    +0.000 A 
ATOM     14  C   UNL     1      18.538   9.507  36.294  0.00  0.00    +0.000 A 
ATOM     15  C   UNL     1      17.980  10.140  37.402  0.00  0.00    +0.000 A 
ATOM     16  C   UNL     1      16.856  10.900  37.182  0.00  0.00    +0.000 A 
ATOM     17  C   UNL     1      16.296  11.039  35.926  0.00  0.00    +0.000 A 
BRANCH  12  19
ATOM     18  C   UNL     1      15.265  11.487  33.346  0.00  0.00    +0.000 C 
ATOM     19  O   UNL     1      16.295  10.550  33.588  0.00  0.00    +0.000 OA
ENDBRANCH  12  19
ENDBRANCH   1  15
TORSDOF 3
ENDMDL
MODEL 2
REMARK VINA RESULT:      -6.2      0.582      6.024
REMARK  Name = 
REMARK  3 active torsions:
REMARK  status: ('A' for Active; 'I' for Inactive)
REMARK    1  A    between atoms: O_2  and  C_3
REMARK    2  A    between atoms: C_6  and  C_7
REMARK    3  A    between atoms: C_7  and  C_11
REMARK                            x       y       z     vdW  Elec       q    Type
REMARK                         _______ _______ _______ _____ _____    ______ ____
ROOT
ATOM      1  C   UNL     1      18.526   9.963  38.799  0.00  0.00    +0.000 C 
ATOM      2  C   UNL     1      19.418  10.846  39.208  0.00  0.00    +0.000 C 
ATOM      3 CL   UNL     1      19.917  12.200  38.218  0.00  0.00    +0.000 Cl
ATOM      4 CL   UNL     1      20.119  10.647  40.795  0.00  0.00    +0.000 Cl
ENDROOT
BRANCH   1   5
ATOM      5  C   UNL     1      17.937  10.114  37.486  0.00  0.00    +0.000 A 
ATOM      6  C   UNL     1      16.787  10.882  37.276  0.00  0.00    +0.000 A 
ATOM      7  C   UNL     1      16.288  10.976  35.993  0.00  0.00    +0.000 A 
ATOM      8  C   UNL     1      16.859  10.358  34.900  0.00  0.00    +0.000 A 
ATOM      9  O   UNL     1      16.350  10.459  33.612  0.00  0.00    +0.000 OA
ATOM     10  C   UNL     1      17.999   9.604  35.147  0.00  0.00    +0.000 A 
ATOM     11  C   UNL     1      18.521   9.490  36.419  0.00  0.00    +0.000 A 
ENDBRANCH   1   5
BRANCH   1  15
ATOM     12  C   UNL     1      17.329   6.662  41.207  0.00  0.00    +0.000 A 
ATOM     13  C   UNL     1      16.621   7.838  41.239  0.00  0.00    +0.000 A 
ATOM     14  C   UNL     1      17.004   8.911  40.461  0.00  0.00    +0.000 A 
ATOM     15  C   UNL     1      18.114   8.842  39.622  0.00  0.00    +0.000 A 
ATOM     16  C   UNL     1      18.808   7.655  39.606  0.00  0.00    +0.000 A 
ATOM     17  C   UNL     1      18.433   6.574  40.381  0.00  0.00    +0.000 A 
BRANCH  12  19
ATOM     18  C   UNL     1      17.919   4.644  42.448  0.00  0.00    +0.000 C 
ATOM     19  O   UNL     1      16.964   5.574  41.978  0.00  0.00    +0.000 OA
ENDBRANCH  12  19
ENDBRANCH   1  15
TORSDOF 3
ENDMDL
MODEL 3
REMARK VINA RESULT:      -6.0      3.180      4.712
REMARK  Name = 
REMARK  3 active torsions:
REMARK  status: ('A' for Active; 'I' for Inactive)
REMARK    1  A    between atoms: O_2  and  C_3
REMARK    2  A    between atoms: C_6  and  C_7
REMARK    3  A    between atoms: C_7  and  C_11
REMARK                            x       y       z     vdW  Elec       q    Type
REMARK                         _______ _______ _______ _____ _____    ______ ____
ROOT
ATOM      1  C   UNL     1      19.653   9.995  37.893  0.00  0.00    +0.000 C 
ATOM      2  C   UNL     1      19.446   9.254  38.965  0.00  0.00    +0.000 C 
ATOM      3 CL   UNL     1      20.757   8.665  39.965  0.00  0.00    +0.000 Cl
ATOM      4 CL   UNL     1      17.802   8.849  39.392  0.00  0.00    +0.000 Cl
ENDROOT
BRANCH   1   5
ATOM      5  C   UNL     1      21.010  10.338  37.526  0.00  0.00    +0.000 A 
ATOM      6  C   UNL     1      21.695  11.395  38.134  0.00  0.00    +0.000 A 
ATOM      7  C   UNL     1      22.987  11.657  37.727  0.00  0.00    +0.000 A 
ATOM      8  C   UNL     1      23.648  10.935  36.755  0.00  0.00    +0.000 A 
ATOM      9  O   UNL     1      24.949  11.205  36.353  0.00  0.00    +0.000 OA
ATOM     10  C   UNL     1      22.936   9.893  36.174  0.00  0.00    +0.000 A 
ATOM     11  C   UNL     1      21.643   9.607  36.559  0.00  0.00    +0.000 A 
ENDBRANCH   1   5
BRANCH   1  15
ATOM     12  C   UNL     1      16.454  11.434  35.479  0.00  0.00    +0.000 A 
ATOM     13  C   UNL     1      17.047  10.228  35.199  0.00  0.00    +0.000 A 
ATOM     14  C   UNL     1      18.085   9.756  35.978  0.00  0.00    +0.000 A 
ATOM     15  C   UNL     1      18.564  10.481  37.066  0.00  0.00    +0.000 A 
ATOM     16  C   UNL     1      17.956  11.686  37.328  0.00  0.00    +0.000 A 
ATOM     17  C   UNL     1      16.916  12.167  36.554  0.00  0.00    +0.000 A 
BRANCH  12  19
ATOM     18  C   UNL     1      15.343  11.693  33.320  0.00  0.00    +0.000 C 
ATOM     19  O   UNL     1      15.414  11.926  34.713  0.00  0.00    +0.000 OA
ENDBRANCH  12  19
ENDBRANCH   1  15
TORSDOF 3
ENDMDL
MODEL 4
REMARK VINA RESULT:      -5.7     19.960     22.109
REMARK  Name = 
REMARK  3 active torsions:
REMARK  status: ('A' for Active; 'I' for Inactive)
REMARK    1  A    between atoms: O_2  and  C_3
REMARK    2  A    between atoms: C_6  and  C_7
REMARK    3  A    between atoms: C_7  and  C_11
REMARK                            x       y       z     vdW  Elec       q    Type
REMARK                         _______ _______ _______ _____ _____    ______ ____
ROOT
ATOM      1  C   UNL     1      27.936  23.466  25.272  0.00  0.00    +0.000 C 
ATOM      2  C   UNL     1      27.116  23.332  24.246  0.00  0.00    +0.000 C 
ATOM      3 CL   UNL     1      25.402  23.040  24.449  0.00  0.00    +0.000 Cl
ATOM      4 CL   UNL     1      27.775  23.450  22.633  0.00  0.00    +0.000 Cl
ENDROOT
BRANCH   1   5
ATOM      5  C   UNL     1      27.406  23.370  26.614  0.00  0.00    +0.000 A 
ATOM      6  C   UNL     1      26.430  24.253  27.088  0.00  0.00    +0.000 A 
ATOM      7  C   UNL     1      25.976  24.094  28.381  0.00  0.00    +0.000 A 
ATOM      8  C   UNL     1      26.425  23.110  29.238  0.00  0.00    +0.000 A 
ATOM      9  O   UNL     1      25.962  22.957  30.537  0.00  0.00    +0.000 OA
ATOM     10  C   UNL     1      27.394  22.252  28.732  0.00  0.00    +0.000 A 
ATOM     11  C   UNL     1      27.869  22.387  27.444  0.00  0.00    +0.000 A 
ENDBRANCH   1   5
BRANCH   1  15
ATOM     12  C   UNL     1      32.102  24.193  24.768  0.00  0.00    +0.000 A 
ATOM     13  C   UNL     1      31.594  22.926  24.616  0.00  0.00    +0.000 A 
ATOM     14  C   UNL     1      30.245  22.684  24.778  0.00  0.00    +0.000 A 
ATOM     15  C   UNL     1      29.356  23.708  25.100  0.00  0.00    +0.000 A 
ATOM     16  C   UNL     1      29.886  24.968  25.247  0.00  0.00    +0.000 A 
ATOM     17  C   UNL     1      31.236  25.221  25.087  0.00  0.00    +0.000 A 
BRANCH  12  19
ATOM     18  C   UNL     1      34.021  25.677  25.043  0.00  0.00    +0.000 C 
ATOM     19  O   UNL     1      33.449  24.459  24.611  0.00  0.00    +0.000 OA
ENDBRANCH  12  19
ENDBRANCH   1  15
TORSDOF 3
ENDMDL
MODEL 5
REMARK VINA RESULT:      -5.7     30.260     33.918
REMARK  Name = 
REMARK  3 active torsions:
REMARK  status: ('A' for Active; 'I' for Inactive)
REMARK    1  A    between atoms: O_2  and  C_3
REMARK    2  A    between atoms: C_6  and  C_7
REMARK    3  A    between atoms: C_7  and  C_11
REMARK                            x       y       z     vdW  Elec       q    Type
REMARK                         _______ _______ _______ _____ _____    ______ ____
ROOT
ATOM      1  C   UNL     1      31.388  21.111   9.832  0.00  0.00    +0.000 C 
ATOM      2  C   UNL     1      32.427  20.505  10.376  0.00  0.00    +0.000 C 
ATOM      3 CL   UNL     1      33.626  19.661   9.420  0.00  0.00    +0.000 Cl
ATOM      4 CL   UNL     1      32.600  20.550  12.113  0.00  0.00    +0.000 Cl
ENDROOT
BRANCH   1   5
ATOM      5  C   UNL     1      31.230  21.081   8.394  0.00  0.00    +0.000 A 
ATOM      6  C   UNL     1      31.785  22.066   7.569  0.00  0.00    +0.000 A 
ATOM      7  C   UNL     1      31.589  21.964   6.207  0.00  0.00    +0.000 A 
ATOM      8  C   UNL     1      30.878  20.946   5.607  0.00  0.00    +0.000 A 
ATOM      9  O   UNL     1      30.687  20.852   4.235  0.00  0.00    +0.000 OA
ATOM     10  C   UNL     1      30.342  19.988   6.458  0.00  0.00    +0.000 A 
ATOM     11  C   UNL     1      30.520  20.062   7.823  0.00  0.00    +0.000 A 
ENDBRANCH   1   5
BRANCH   1  15
ATOM     12  C   UNL     1      28.463  23.150  12.159  0.00  0.00    +0.000 A 
ATOM     13  C   UNL     1      29.776  23.550  12.187  0.00  0.00    +0.000 A 
ATOM     14  C   UNL     1      30.729  22.893  11.435  0.00  0.00    +0.000 A 
ATOM     15  C   UNL     1      30.396  21.809  10.627  0.00  0.00    +0.000 A 
ATOM     16  C   UNL     1      29.076  21.425  10.614  0.00  0.00    +0.000 A 
ATOM     17  C   UNL     1      28.114  22.076  11.363  0.00  0.00    +0.000 A 
BRANCH  12  19
ATOM     18  C   UNL     1      26.292  23.145  13.276  0.00  0.00    +0.000 C 
ATOM     19  O   UNL     1      27.492  23.793  12.903  0.00  0.00    +0.000 OA
ENDBRANCH  12  19
ENDBRANCH   1  15
TORSDOF 3
ENDMDL
MODEL 6
REMARK VINA RESULT:      -5.5     20.429     23.109
REMARK  Name = 
REMARK  3 active torsions:
REMARK  status: ('A' for Active; 'I' for Inactive)
REMARK    1  A    between atoms: O_2  and  C_3
REMARK    2  A    between atoms: C_6  and  C_7
REMARK    3  A    between atoms: C_7  and  C_11
REMARK                            x       y       z     vdW  Elec       q    Type
REMARK                         _______ _______ _______ _____ _____    ______ ____
ROOT
ATOM      1  C   UNL     1      27.937  23.968  25.480  0.00  0.00    +0.000 C 
ATOM      2  C   UNL     1      26.654  24.059  25.777  0.00  0.00    +0.000 C 
ATOM      3 CL   UNL     1      25.450  24.527  24.595  0.00  0.00    +0.000 Cl
ATOM      4 CL   UNL     1      26.150  23.699  27.409  0.00  0.00    +0.000 Cl
ENDROOT
BRANCH   1   5
ATOM      5  C   UNL     1      28.370  24.265  24.132  0.00  0.00    +0.000 A 
ATOM      6  C   UNL     1      28.209  23.350  23.086  0.00  0.00    +0.000 A 
ATOM      7  C   UNL     1      28.649  23.710  21.829  0.00  0.00    +0.000 A 
ATOM      8  C   UNL     1      29.238  24.923  21.538  0.00  0.00    +0.000 A 
ATOM      9  O   UNL     1      29.677  25.276  20.270  0.00  0.00    +0.000 OA
ATOM     10  C   UNL     1      29.382  25.805  22.603  0.00  0.00    +0.000 A 
ATOM     11  C   UNL     1      28.953  25.474  23.871  0.00  0.00    +0.000 A 
ENDBRANCH   1   5
BRANCH   1  15
ATOM     12  C   UNL     1      30.857  22.845  28.368  0.00  0.00    +0.000 A 
ATOM     13  C   UNL     1      30.501  21.976  27.366  0.00  0.00    +0.000 A 
ATOM     14  C   UNL     1      29.555  22.335  26.427  0.00  0.00    +0.000 A 
ATOM     15  C   UNL     1      28.932  23.580  26.462  0.00  0.00    +0.000 A 
ATOM     16  C   UNL     1      29.304  24.434  27.473  0.00  0.00    +0.000 A 
ATOM     17  C   UNL     1      30.250  24.085  28.419  0.00  0.00    +0.000 A 
BRANCH  12  19
ATOM     18  C   UNL     1      31.431  22.068  30.611  0.00  0.00    +0.000 C 
ATOM     19  O   UNL     1      31.802  22.508  29.319  0.00  0.00    +0.000 OA
ENDBRANCH  12  19
ENDBRANCH   1  15
TORSDOF 3
ENDMDL
MODEL 7
REMARK VINA RESULT:      -5.5     19.806     22.357
REMARK  Name = 
REMARK  3 active torsions:
REMARK  status: ('A' for Active; 'I' for Inactive)
REMARK    1  A    between atoms: O_2  and  C_3
REMARK    2  A    between atoms: C_6  and  C_7
REMARK    3  A    between atoms: C_7  and  C_11
REMARK                            x       y       z     vdW  Elec       q    Type
REMARK                         _______ _______ _______ _____ _____    ______ ____
ROOT
ATOM      1  C   UNL     1      28.067  23.618  25.054  0.00  0.00    +0.000 C 
ATOM      2  C   UNL     1      27.345  23.437  23.964  0.00  0.00    +0.000 C 
ATOM      3 CL   UNL     1      28.059  23.385  22.366  0.00  0.00    +0.000 Cl
ATOM      4 CL   UNL     1      25.618  23.245  24.132  0.00  0.00    +0.000 Cl
ENDROOT
BRANCH   1   5
ATOM      5  C   UNL     1      29.500  23.779  24.931  0.00  0.00    +0.000 A 
ATOM      6  C   UNL     1      30.352  22.687  24.733  0.00  0.00    +0.000 A 
ATOM      7  C   UNL     1      31.707  22.927  24.625  0.00  0.00    +0.000 A 
ATOM      8  C   UNL     1      32.274  24.182  24.698  0.00  0.00    +0.000 A 
ATOM      9  O   UNL     1      33.638  24.413  24.588  0.00  0.00    +0.000 OA
ATOM     10  C   UNL     1      31.396  25.241  24.896  0.00  0.00    +0.000 A 
ATOM     11  C   UNL     1      30.037  25.034  25.008  0.00  0.00    +0.000 A 
ENDBRANCH   1   5
BRANCH   1  15
ATOM     12  C   UNL     1      26.317  23.758  28.933  0.00  0.00    +0.000 A 
ATOM     13  C   UNL     1      27.107  22.697  28.566  0.00  0.00    +0.000 A 
ATOM     14  C   UNL     1      27.677  22.646  27.309  0.00  0.00    +0.000 A 
ATOM     15  C   UNL     1      27.473  23.660  26.377  0.00  0.00    +0.000 A 
ATOM     16  C   UNL     1      26.679  24.712  26.766  0.00  0.00    +0.000 A 
ATOM     17  C   UNL     1      26.103  24.773  28.022  0.00  0.00    +0.000 A 
BRANCH  12  19
ATOM     18  C   UNL     1      25.893  24.966  31.012  0.00  0.00    +0.000 C 
ATOM     19  O   UNL     1      25.736  23.830  30.185  0.00  0.00    +0.000 OA
ENDBRANCH  12  19
ENDBRANCH   1  15
TORSDOF 3
ENDMDL
MODEL 8
REMARK VINA RESULT:      -5.4     18.889     21.027
REMARK  Name = 
REMARK  3 active torsions:
REMARK  status: ('A' for Active; 'I' for Inactive)
REMARK    1  A    between atoms: O_2  and  C_3
REMARK    2  A    between atoms: C_6  and  C_7
REMARK    3  A    between atoms: C_7  and  C_11
REMARK                            x       y       z     vdW  Elec       q    Type
REMARK                         _______ _______ _______ _____ _____    ______ ____
ROOT
ATOM      1  C   UNL     1      30.267  22.702  29.361  0.00  0.00    +0.000 C 
ATOM      2  C   UNL     1      31.129  22.063  30.129  0.00  0.00    +0.000 C 
ATOM      3 CL   UNL     1      32.636  21.420  29.512  0.00  0.00    +0.000 Cl
ATOM      4 CL   UNL     1      30.743  21.855  31.819  0.00  0.00    +0.000 Cl
ENDROOT
BRANCH   1   5
ATOM      5  C   UNL     1      30.572  22.881  27.958  0.00  0.00    +0.000 A 
ATOM      6  C   UNL     1      30.042  22.041  26.973  0.00  0.00    +0.000 A 
ATOM      7  C   UNL     1      30.382  22.280  25.657  0.00  0.00    +0.000 A 
ATOM      8  C   UNL     1      31.215  23.302  25.252  0.00  0.00    +0.000 A 
ATOM      9  O   UNL     1      31.551  23.534  23.926  0.00  0.00    +0.000 OA
ATOM     10  C   UNL     1      31.722  24.115  26.258  0.00  0.00    +0.000 A 
ATOM     11  C   UNL     1      31.402  23.901  27.582  0.00  0.00    +0.000 A 
ENDBRANCH   1   5
BRANCH   1  15
ATOM     12  C   UNL     1      26.613  24.277  30.877  0.00  0.00    +0.000 A 
ATOM     13  C   UNL     1      26.676  22.983  30.423  0.00  0.00    +0.000 A 
ATOM     14  C   UNL     1      27.858  22.467  29.930  0.00  0.00    +0.000 A 
ATOM     15  C   UNL     1      29.019  23.234  29.875  0.00  0.00    +0.000 A 
ATOM     16  C   UNL     1      28.933  24.527  30.335  0.00  0.00    +0.000 A 
ATOM     17  C   UNL     1      27.755  25.054  30.830  0.00  0.00    +0.000 A 
BRANCH  12  19
ATOM     18  C   UNL     1      25.058  26.147  31.094  0.00  0.00    +0.000 C 
ATOM     19  O   UNL     1      25.441  24.815  31.374  0.00  0.00    +0.000 OA
ENDBRANCH  12  19
ENDBRANCH   1  15
TORSDOF 3
ENDMDL
MODEL 9
REMARK VINA RESULT:      -5.4     19.589     21.062
REMARK  Name = 
REMARK  3 active torsions:
REMARK  status: ('A' for Active; 'I' for Inactive)
REMARK    1  A    between atoms: O_2  and  C_3
REMARK    2  A    between atoms: C_6  and  C_7
REMARK    3  A    between atoms: C_7  and  C_11
REMARK                            x       y       z     vdW  Elec       q    Type
REMARK                         _______ _______ _______ _____ _____    ______ ____
ROOT
ATOM      1  C   UNL     1      33.850  -3.547  34.203  0.00  0.00    +0.000 C 
ATOM      2  C   UNL     1      34.733  -3.956  35.095  0.00  0.00    +0.000 C 
ATOM      3 CL   UNL     1      35.559  -2.849  36.170  0.00  0.00    +0.000 Cl
ATOM      4 CL   UNL     1      35.083  -5.664  35.197  0.00  0.00    +0.000 Cl
ENDROOT
BRANCH   1   5
ATOM      5  C   UNL     1      33.550  -2.135  34.105  0.00  0.00    +0.000 A 
ATOM      6  C   UNL     1      32.520  -1.546  34.845  0.00  0.00    +0.000 A 
ATOM      7  C   UNL     1      32.298  -0.193  34.695  0.00  0.00    +0.000 A 
ATOM      8  C   UNL     1      33.036   0.619  33.859  0.00  0.00    +0.000 A 
ATOM      9  O   UNL     1      32.806   1.980  33.715  0.00  0.00    +0.000 OA
ATOM     10  C   UNL     1      34.050  -0.002  33.140  0.00  0.00    +0.000 A 
ATOM     11  C   UNL     1      34.296  -1.353  33.267  0.00  0.00    +0.000 A 
ENDBRANCH   1   5
BRANCH   1  15
ATOM     12  C   UNL     1      31.835  -6.254  31.605  0.00  0.00    +0.000 A 
ATOM     13  C   UNL     1      32.944  -5.570  31.172  0.00  0.00    +0.000 A 
ATOM     14  C   UNL     1      33.602  -4.692  32.009  0.00  0.00    +0.000 A 
ATOM     15  C   UNL     1      33.167  -4.468  33.313  0.00  0.00    +0.000 A 
ATOM     16  C   UNL     1      32.055  -5.162  33.726  0.00  0.00    +0.000 A 
ATOM     17  C   UNL     1      31.389  -6.044  32.896  0.00  0.00    +0.000 A 
BRANCH  12  19
ATOM     18  C   UNL     1      29.759  -7.304  30.865  0.00  0.00    +0.000 C 
ATOM     19  O   UNL     1      31.161  -7.138  30.784  0.00  0.00    +0.000 OA
ENDBRANCH  12  19
ENDBRANCH   1  15
TORSDOF 3
ENDMDL
MODEL 10
REMARK VINA RESULT:      -5.4     20.426     22.728
REMARK  Name = 
REMARK  3 active torsions:
REMARK  status: ('A' for Active; 'I' for Inactive)
REMARK    1  A    between atoms: O_2  and  C_3
REMARK    2  A    between atoms: C_6  and  C_7
REMARK    3  A    between atoms: C_7  and  C_11
REMARK                            x       y       z     vdW  Elec       q    Type
REMARK                         _______ _______ _______ _____ _____    ______ ____
ROOT
ATOM      1  C   UNL     1      28.323  23.794  25.724  0.00  0.00    +0.000 C 
ATOM      2  C   UNL     1      28.996  22.874  26.391  0.00  0.00    +0.000 C 
ATOM      3 CL   UNL     1      28.598  22.433  28.037  0.00  0.00    +0.000 Cl
ATOM      4 CL   UNL     1      30.329  22.078  25.593  0.00  0.00    +0.000 Cl
ENDROOT
BRANCH   1   5
ATOM      5  C   UNL     1      27.216  24.463  26.372  0.00  0.00    +0.000 A 
ATOM      6  C   UNL     1      25.914  23.952  26.328  0.00  0.00    +0.000 A 
ATOM      7  C   UNL     1      24.915  24.651  26.972  0.00  0.00    +0.000 A 
ATOM      8  C   UNL     1      25.121  25.828  27.662  0.00  0.00    +0.000 A 
ATOM      9  O   UNL     1      24.109  26.524  28.307  0.00  0.00    +0.000 OA
ATOM     10  C   UNL     1      26.426  26.305  27.683  0.00  0.00    +0.000 A 
ATOM     11  C   UNL     1      27.447  25.629  27.048  0.00  0.00    +0.000 A 
ENDBRANCH   1   5
BRANCH   1  15
ATOM     12  C   UNL     1      29.288  24.846  21.713  0.00  0.00    +0.000 A 
ATOM     13  C   UNL     1      29.849  25.528  22.764  0.00  0.00    +0.000 A 
ATOM     14  C   UNL     1      29.540  25.191  24.067  0.00  0.00    +0.000 A 
ATOM     15  C   UNL     1      28.654  24.157  24.359  0.00  0.00    +0.000 A 
ATOM     16  C   UNL     1      28.104  23.489  23.292  0.00  0.00    +0.000 A 
ATOM     17  C   UNL     1      28.407  23.817  21.983  0.00  0.00    +0.000 A 
BRANCH  12  19
ATOM     18  C   UNL     1      29.657  26.508  19.962  0.00  0.00    +0.000 C 
ATOM     19  O   UNL     1      29.583  25.166  20.401  0.00  0.00    +0.000 OA
ENDBRANCH  12  19
ENDBRANCH   1  15
TORSDOF 3
ENDMDL
