MODEL 1
REMARK VINA RESULT:      -7.8      0.000      0.000
REMARK  Name = 
REMARK  3 active torsions:
REMARK  status: ('A' for Active; 'I' for Inactive)
REMARK    1  A    between atoms: C_5  and  N_6
REMARK    2  A    between atoms: C_7  and  C_9
REMARK    3  A    between atoms: C_12  and  C_13
REMARK                            x       y       z     vdW  Elec       q    Type
REMARK                         _______ _______ _______ _____ _____    ______ ____
ROOT
ATOM      1  N   UNL     1      14.859  11.525  36.005  0.00  0.00    +0.000 NA
ATOM      2  C   UNL     1      16.045  11.821  36.805  0.00  0.00    +0.000 C 
ATOM      3  O   UNL     1      16.720  12.760  36.457  0.00  0.00    +0.000 OA
ENDROOT
BRANCH   1   8
ATOM      4  C   UNL     1      14.063  14.052  30.902  0.00  0.00    +0.000 C 
ATOM      5  C   UNL     1      14.268  13.446  32.266  0.00  0.00    +0.000 A 
ATOM      6  C   UNL     1      14.943  12.254  32.425  0.00  0.00    +0.000 A 
ATOM      7  C   UNL     1      15.105  11.680  33.653  0.00  0.00    +0.000 A 
ATOM      8  C   UNL     1      14.593  12.283  34.848  0.00  0.00    +0.000 A 
ATOM      9  C   UNL     1      13.941  13.458  34.679  0.00  0.00    +0.000 A 
ATOM     10  C   UNL     1      13.764  14.056  33.415  0.00  0.00    +0.000 A 
ATOM     11  O   UNL     1      13.091  15.277  33.271  0.00  0.00    +0.000 OA
ENDBRANCH   1   8
BRANCH   2  12
ATOM     12  C   UNL     1      16.294  10.911  37.942  0.00  0.00    +0.000 A 
ATOM     13  C   UNL     1      17.528  10.487  38.302  0.00  0.00    +0.000 A 
ATOM     14  C   UNL     1      17.791   9.769  39.487  0.00  0.00    +0.000 A 
ATOM     15  C   UNL     1      16.764   9.461  40.330  0.00  0.00    +0.000 A 
ATOM     16  C   UNL     1      15.491   9.877  39.973  0.00  0.00    +0.000 A 
ATOM     17  C   UNL     1      15.232  10.593  38.800  0.00  0.00    +0.000 A 
BRANCH  15  18
ATOM     18  C   UNL     1      17.017   8.780  41.655  0.00  0.00    +0.000 C 
ATOM     19  C   UNL     1      16.692   9.684  42.810  0.00  0.00    +0.000 C 
ATOM     20  C   UNL     1      18.392   8.234  41.799  0.00  0.00    +0.000 C 
ATOM     21  C   UNL     1      16.076   7.555  41.742  0.00  0.00    +0.000 C 
ENDBRANCH  15  18
ENDBRANCH   2  12
TORSDOF 3
ENDMDL
MODEL 2
REMARK VINA RESULT:      -7.7      2.499      8.693
REMARK  Name = 
REMARK  3 active torsions:
REMARK  status: ('A' for Active; 'I' for Inactive)
REMARK    1  A    between atoms: C_5  and  N_6
REMARK    2  A    between atoms: C_7  and  C_9
REMARK    3  A    between atoms: C_12  and  C_13
REMARK                            x       y       z     vdW  Elec       q    Type
REMARK                         _______ _______ _______ _____ _____    ______ ____
ROOT
ATOM      1  N   UNL     1      17.281  10.663  37.116  0.00  0.00    +0.000 NA
ATOM      2  C   UNL     1      17.181   9.929  35.857  0.00  0.00    +0.000 C 
ATOM      3  O   UNL     1      17.502   8.764  35.876  0.00  0.00    +0.000 OA
ENDROOT
BRANCH   1   8
ATOM      4  C   UNL     1      18.702   8.049  42.035  0.00  0.00    +0.000 C 
ATOM      5  C   UNL     1      18.390   8.751  40.739  0.00  0.00    +0.000 A 
ATOM      6  C   UNL     1      17.132   9.257  40.485  0.00  0.00    +0.000 A 
ATOM      7  C   UNL     1      16.830   9.864  39.301  0.00  0.00    +0.000 A 
ATOM      8  C   UNL     1      17.799  10.021  38.257  0.00  0.00    +0.000 A 
ATOM      9  C   UNL     1      19.032   9.527  38.522  0.00  0.00    +0.000 A 
ATOM     10  C   UNL     1      19.352   8.894  39.740  0.00  0.00    +0.000 A 
ATOM     11  O   UNL     1      20.640   8.399  39.991  0.00  0.00    +0.000 OA
ENDBRANCH   1   8
BRANCH   2  12
ATOM     12  C   UNL     1      16.719  10.712  34.693  0.00  0.00    +0.000 A 
ATOM     13  C   UNL     1      17.089  10.443  33.418  0.00  0.00    +0.000 A 
ATOM     14  C   UNL     1      16.516  11.068  32.291  0.00  0.00    +0.000 A 
ATOM     15  C   UNL     1      15.541  12.007  32.465  0.00  0.00    +0.000 A 
ATOM     16  C   UNL     1      15.156  12.303  33.763  0.00  0.00    +0.000 A 
ATOM     17  C   UNL     1      15.723  11.680  34.880  0.00  0.00    +0.000 A 
BRANCH  15  18
ATOM     18  C   UNL     1      14.832  12.627  31.283  0.00  0.00    +0.000 C 
ATOM     19  C   UNL     1      13.771  13.595  31.722  0.00  0.00    +0.000 C 
ATOM     20  C   UNL     1      14.264  11.634  30.333  0.00  0.00    +0.000 C 
ATOM     21  C   UNL     1      15.882  13.422  30.469  0.00  0.00    +0.000 C 
ENDBRANCH  15  18
ENDBRANCH   2  12
TORSDOF 3
ENDMDL
MODEL 3
REMARK VINA RESULT:      -7.5      2.118      8.558
REMARK  Name = 
REMARK  3 active torsions:
REMARK  status: ('A' for Active; 'I' for Inactive)
REMARK    1  A    between atoms: C_5  and  N_6
REMARK    2  A    between atoms: C_7  and  C_9
REMARK    3  A    between atoms: C_12  and  C_13
REMARK                            x       y       z     vdW  Elec       q    Type
REMARK                         _______ _______ _______ _____ _____    ______ ____
ROOT
ATOM      1  N   UNL     1      17.112  10.030  37.019  0.00  0.00    +0.000 NA
ATOM      2  C   UNL     1      17.032  11.408  36.538  0.00  0.00    +0.000 C 
ATOM      3  O   UNL     1      17.488  12.266  37.256  0.00  0.00    +0.000 OA
ENDROOT
BRANCH   1   8
ATOM      4  C   UNL     1      19.929   8.902  41.902  0.00  0.00    +0.000 C 
ATOM      5  C   UNL     1      19.137   9.180  40.651  0.00  0.00    +0.000 A 
ATOM      6  C   UNL     1      19.726   9.119  39.405  0.00  0.00    +0.000 A 
ATOM      7  C   UNL     1      19.026   9.402  38.268  0.00  0.00    +0.000 A 
ATOM      8  C   UNL     1      17.641   9.770  38.298  0.00  0.00    +0.000 A 
ATOM      9  C   UNL     1      17.074   9.818  39.526  0.00  0.00    +0.000 A 
ATOM     10  C   UNL     1      17.789   9.532  40.707  0.00  0.00    +0.000 A 
ATOM     11  O   UNL     1      17.173   9.581  41.966  0.00  0.00    +0.000 OA
ENDBRANCH   1   8
BRANCH   2  12
ATOM     12  C   UNL     1      16.374  11.593  35.229  0.00  0.00    +0.000 A 
ATOM     13  C   UNL     1      15.236  12.307  35.060  0.00  0.00    +0.000 A 
ATOM     14  C   UNL     1      14.703  12.637  33.797  0.00  0.00    +0.000 A 
ATOM     15  C   UNL     1      15.341  12.218  32.666  0.00  0.00    +0.000 A 
ATOM     16  C   UNL     1      16.502  11.477  32.818  0.00  0.00    +0.000 A 
ATOM     17  C   UNL     1      17.031  11.153  34.072  0.00  0.00    +0.000 A 
BRANCH  15  18
ATOM     18  C   UNL     1      14.858  12.634  31.296  0.00  0.00    +0.000 C 
ATOM     19  C   UNL     1      14.372  11.456  30.501  0.00  0.00    +0.000 C 
ATOM     20  C   UNL     1      15.858  13.406  30.513  0.00  0.00    +0.000 C 
ATOM     21  C   UNL     1      13.658  13.593  31.490  0.00  0.00    +0.000 C 
ENDBRANCH  15  18
ENDBRANCH   2  12
TORSDOF 3
ENDMDL
MODEL 4
REMARK VINA RESULT:      -7.3      1.409      2.314
REMARK  Name = 
REMARK  3 active torsions:
REMARK  status: ('A' for Active; 'I' for Inactive)
REMARK    1  A    between atoms: C_5  and  N_6
REMARK    2  A    between atoms: C_7  and  C_9
REMARK    3  A    between atoms: C_12  and  C_13
REMARK                            x       y       z     vdW  Elec       q    Type
REMARK                         _______ _______ _______ _____ _____    ______ ____
ROOT
ATOM      1  N   UNL     1      15.646  11.065  35.814  0.00  0.00    +0.000 NA
ATOM      2  C   UNL     1      16.761  11.576  36.609  0.00  0.00    +0.000 C 
ATOM      3  O   UNL     1      17.256  12.618  36.252  0.00  0.00    +0.000 OA
ENDROOT
BRANCH   1   8
ATOM      4  C   UNL     1      13.705  14.372  31.530  0.00  0.00    +0.000 C 
ATOM      5  C   UNL     1      14.218  13.458  32.612  0.00  0.00    +0.000 A 
ATOM      6  C   UNL     1      13.905  13.673  33.938  0.00  0.00    +0.000 A 
ATOM      7  C   UNL     1      14.392  12.870  34.928  0.00  0.00    +0.000 A 
ATOM      8  C   UNL     1      15.248  11.755  34.652  0.00  0.00    +0.000 A 
ATOM      9  C   UNL     1      15.540  11.550  33.346  0.00  0.00    +0.000 A 
ATOM     10  C   UNL     1      15.046  12.375  32.316  0.00  0.00    +0.000 A 
ATOM     11  O   UNL     1      15.359  12.135  30.971  0.00  0.00    +0.000 OA
ENDBRANCH   1   8
BRANCH   2  12
ATOM     12  C   UNL     1      17.170  10.734  37.752  0.00  0.00    +0.000 A 
ATOM     13  C   UNL     1      16.412  10.560  38.860  0.00  0.00    +0.000 A 
ATOM     14  C   UNL     1      16.711   9.622  39.870  0.00  0.00    +0.000 A 
ATOM     15  C   UNL     1      17.825   8.842  39.756  0.00  0.00    +0.000 A 
ATOM     16  C   UNL     1      18.619   9.013  38.634  0.00  0.00    +0.000 A 
ATOM     17  C   UNL     1      18.319   9.941  37.631  0.00  0.00    +0.000 A 
BRANCH  15  18
ATOM     18  C   UNL     1      18.127   7.758  40.765  0.00  0.00    +0.000 C 
ATOM     19  C   UNL     1      18.898   6.628  40.146  0.00  0.00    +0.000 C 
ATOM     20  C   UNL     1      16.925   7.238  41.469  0.00  0.00    +0.000 C 
ATOM     21  C   UNL     1      19.015   8.379  41.871  0.00  0.00    +0.000 C 
ENDBRANCH  15  18
ENDBRANCH   2  12
TORSDOF 3
ENDMDL
MODEL 5
REMARK VINA RESULT:      -7.1      2.302      8.708
REMARK  Name = 
REMARK  3 active torsions:
REMARK  status: ('A' for Active; 'I' for Inactive)
REMARK    1  A    between atoms: C_5  and  N_6
REMARK    2  A    between atoms: C_7  and  C_9
REMARK    3  A    between atoms: C_12  and  C_13
REMARK                            x       y       z     vdW  Elec       q    Type
REMARK                         _______ _______ _______ _____ _____    ______ ____
ROOT
ATOM      1  N   UNL     1      17.670   9.897  36.969  0.00  0.00    +0.000 NA
ATOM      2  C   UNL     1      17.547  11.278  36.507  0.00  0.00    +0.000 C 
ATOM      3  O   UNL     1      18.061  12.131  37.190  0.00  0.00    +0.000 OA
ENDROOT
BRANCH   1   8
ATOM      4  C   UNL     1      19.587   8.807  42.279  0.00  0.00    +0.000 C 
ATOM      5  C   UNL     1      19.142   9.113  40.872  0.00  0.00    +0.000 A 
ATOM      6  C   UNL     1      17.825   9.405  40.587  0.00  0.00    +0.000 A 
ATOM      7  C   UNL     1      17.406   9.651  39.311  0.00  0.00    +0.000 A 
ATOM      8  C   UNL     1      18.306   9.629  38.197  0.00  0.00    +0.000 A 
ATOM      9  C   UNL     1      19.598   9.348  38.492  0.00  0.00    +0.000 A 
ATOM     10  C   UNL     1      20.040   9.089  39.805  0.00  0.00    +0.000 A 
ATOM     11  O   UNL     1      21.385   8.810  40.082  0.00  0.00    +0.000 OA
ENDBRANCH   1   8
BRANCH   2  12
ATOM     12  C   UNL     1      16.780  11.471  35.260  0.00  0.00    +0.000 A 
ATOM     13  C   UNL     1      15.606  12.144  35.203  0.00  0.00    +0.000 A 
ATOM     14  C   UNL     1      14.962  12.486  33.996  0.00  0.00    +0.000 A 
ATOM     15  C   UNL     1      15.522  12.122  32.806  0.00  0.00    +0.000 A 
ATOM     16  C   UNL     1      16.718  11.422  32.845  0.00  0.00    +0.000 A 
ATOM     17  C   UNL     1      17.358  11.087  34.043  0.00  0.00    +0.000 A 
BRANCH  15  18
ATOM     18  C   UNL     1      14.916  12.554  31.492  0.00  0.00    +0.000 C 
ATOM     19  C   UNL     1      15.958  13.098  30.556  0.00  0.00    +0.000 C 
ATOM     20  C   UNL     1      13.796  13.521  31.633  0.00  0.00    +0.000 C 
ATOM     21  C   UNL     1      14.297  11.302  30.824  0.00  0.00    +0.000 C 
ENDBRANCH  15  18
ENDBRANCH   2  12
TORSDOF 3
ENDMDL
MODEL 6
REMARK VINA RESULT:      -6.8     23.564     24.868
REMARK  Name = 
REMARK  3 active torsions:
REMARK  status: ('A' for Active; 'I' for Inactive)
REMARK    1  A    between atoms: C_5  and  N_6
REMARK    2  A    between atoms: C_7  and  C_9
REMARK    3  A    between atoms: C_12  and  C_13
REMARK                            x       y       z     vdW  Elec       q    Type
REMARK                         _______ _______ _______ _____ _____    ______ ____
ROOT
ATOM      1  N   UNL     1      22.469  -7.138  25.179  0.00  0.00    +0.000 NA
ATOM      2  C   UNL     1      22.723  -7.700  23.854  0.00  0.00    +0.000 C 
ATOM      3  O   UNL     1      21.760  -7.931  23.163  0.00  0.00    +0.000 OA
ENDROOT
BRANCH   1   8
ATOM      4  C   UNL     1      17.057  -7.119  27.121  0.00  0.00    +0.000 C 
ATOM      5  C   UNL     1      18.463  -7.072  26.580  0.00  0.00    +0.000 A 
ATOM      6  C   UNL     1      19.214  -8.220  26.441  0.00  0.00    +0.000 A 
ATOM      7  C   UNL     1      20.500  -8.183  25.983  0.00  0.00    +0.000 A 
ATOM      8  C   UNL     1      21.141  -6.956  25.614  0.00  0.00    +0.000 A 
ATOM      9  C   UNL     1      20.390  -5.838  25.748  0.00  0.00    +0.000 A 
ATOM     10  C   UNL     1      19.063  -5.864  26.223  0.00  0.00    +0.000 A 
ATOM     11  O   UNL     1      18.305  -4.691  26.344  0.00  0.00    +0.000 OA
ENDBRANCH   1   8
BRANCH   2  12
ATOM     12  C   UNL     1      24.142  -7.946  23.525  0.00  0.00    +0.000 A 
ATOM     13  C   UNL     1      24.617  -9.148  23.121  0.00  0.00    +0.000 A 
ATOM     14  C   UNL     1      25.925  -9.346  22.634  0.00  0.00    +0.000 A 
ATOM     15  C   UNL     1      26.786  -8.289  22.565  0.00  0.00    +0.000 A 
ATOM     16  C   UNL     1      26.321  -7.052  22.984  0.00  0.00    +0.000 A 
ATOM     17  C   UNL     1      25.021  -6.857  23.463  0.00  0.00    +0.000 A 
BRANCH  15  18
ATOM     18  C   UNL     1      28.161  -8.438  21.958  0.00  0.00    +0.000 C 
ATOM     19  C   UNL     1      28.093  -9.020  20.575  0.00  0.00    +0.000 C 
ATOM     20  C   UNL     1      29.109  -9.215  22.798  0.00  0.00    +0.000 C 
ATOM     21  C   UNL     1      28.779  -7.024  21.839  0.00  0.00    +0.000 C 
ENDBRANCH  15  18
ENDBRANCH   2  12
TORSDOF 3
ENDMDL
MODEL 7
REMARK VINA RESULT:      -6.6      1.574      2.201
REMARK  Name = 
REMARK  3 active torsions:
REMARK  status: ('A' for Active; 'I' for Inactive)
REMARK    1  A    between atoms: C_5  and  N_6
REMARK    2  A    between atoms: C_7  and  C_9
REMARK    3  A    between atoms: C_12  and  C_13
REMARK                            x       y       z     vdW  Elec       q    Type
REMARK                         _______ _______ _______ _____ _____    ______ ____
ROOT
ATOM      1  N   UNL     1      16.899  10.652  35.370  0.00  0.00    +0.000 NA
ATOM      2  C   UNL     1      16.278  10.734  36.691  0.00  0.00    +0.000 C 
ATOM      3  O   UNL     1      15.188  11.249  36.752  0.00  0.00    +0.000 OA
ENDROOT
BRANCH   1   8
ATOM      4  C   UNL     1      14.554  12.444  30.436  0.00  0.00    +0.000 C 
ATOM      5  C   UNL     1      15.160  12.032  31.752  0.00  0.00    +0.000 A 
ATOM      6  C   UNL     1      16.084  11.011  31.826  0.00  0.00    +0.000 A 
ATOM      7  C   UNL     1      16.612  10.608  33.018  0.00  0.00    +0.000 A 
ATOM      8  C   UNL     1      16.248  11.224  34.259  0.00  0.00    +0.000 A 
ATOM      9  C   UNL     1      15.346  12.230  34.172  0.00  0.00    +0.000 A 
ATOM     10  C   UNL     1      14.791  12.651  32.947  0.00  0.00    +0.000 A 
ATOM     11  O   UNL     1      13.865  13.702  32.885  0.00  0.00    +0.000 OA
ENDBRANCH   1   8
BRANCH   2  12
ATOM     12  C   UNL     1      17.079  10.195  37.809  0.00  0.00    +0.000 A 
ATOM     13  C   UNL     1      16.634  10.140  39.087  0.00  0.00    +0.000 A 
ATOM     14  C   UNL     1      17.316   9.467  40.121  0.00  0.00    +0.000 A 
ATOM     15  C   UNL     1      18.496   8.837  39.852  0.00  0.00    +0.000 A 
ATOM     16  C   UNL     1      18.973   8.892  38.552  0.00  0.00    +0.000 A 
ATOM     17  C   UNL     1      18.294   9.557  37.526  0.00  0.00    +0.000 A 
BRANCH  15  18
ATOM     18  C   UNL     1      19.207   8.023  40.908  0.00  0.00    +0.000 C 
ATOM     19  C   UNL     1      18.662   8.302  42.280  0.00  0.00    +0.000 C 
ATOM     20  C   UNL     1      20.685   8.181  40.898  0.00  0.00    +0.000 C 
ATOM     21  C   UNL     1      18.951   6.527  40.600  0.00  0.00    +0.000 C 
ENDBRANCH  15  18
ENDBRANCH   2  12
TORSDOF 3
ENDMDL
MODEL 8
REMARK VINA RESULT:      -6.6     19.963     22.358
REMARK  Name = 
REMARK  3 active torsions:
REMARK  status: ('A' for Active; 'I' for Inactive)
REMARK    1  A    between atoms: C_5  and  N_6
REMARK    2  A    between atoms: C_7  and  C_9
REMARK    3  A    between atoms: C_12  and  C_13
REMARK                            x       y       z     vdW  Elec       q    Type
REMARK                         _______ _______ _______ _____ _____    ______ ____
ROOT
ATOM      1  N   UNL     1      33.689  -0.098  34.127  0.00  0.00    +0.000 NA
ATOM      2  C   UNL     1      32.714  -0.968  34.780  0.00  0.00    +0.000 C 
ATOM      3  O   UNL     1      31.948  -0.447  35.555  0.00  0.00    +0.000 OA
ENDROOT
BRANCH   1   8
ATOM      4  C   UNL     1      33.669   5.607  34.837  0.00  0.00    +0.000 C 
ATOM      5  C   UNL     1      33.714   4.108  34.699  0.00  0.00    +0.000 A 
ATOM      6  C   UNL     1      33.468   3.493  33.489  0.00  0.00    +0.000 A 
ATOM      7  C   UNL     1      33.473   2.134  33.362  0.00  0.00    +0.000 A 
ATOM      8  C   UNL     1      33.743   1.267  34.470  0.00  0.00    +0.000 A 
ATOM      9  C   UNL     1      33.991   1.883  35.650  0.00  0.00    +0.000 A 
ATOM     10  C   UNL     1      33.984   3.286  35.793  0.00  0.00    +0.000 A 
ATOM     11  O   UNL     1      34.253   3.897  37.025  0.00  0.00    +0.000 OA
ENDBRANCH   1   8
BRANCH   2  12
ATOM     12  C   UNL     1      32.798  -2.401  34.430  0.00  0.00    +0.000 A 
ATOM     13  C   UNL     1      32.040  -3.358  35.016  0.00  0.00    +0.000 A 
ATOM     14  C   UNL     1      31.985  -4.693  34.565  0.00  0.00    +0.000 A 
ATOM     15  C   UNL     1      32.733  -5.073  33.489  0.00  0.00    +0.000 A 
ATOM     16  C   UNL     1      33.523  -4.109  32.882  0.00  0.00    +0.000 A 
ATOM     17  C   UNL     1      33.574  -2.784  33.328  0.00  0.00    +0.000 A 
BRANCH  15  18
ATOM     18  C   UNL     1      32.626  -6.466  32.915  0.00  0.00    +0.000 C 
ATOM     19  C   UNL     1      31.194  -6.884  32.744  0.00  0.00    +0.000 C 
ATOM     20  C   UNL     1      33.375  -7.494  33.685  0.00  0.00    +0.000 C 
ATOM     21  C   UNL     1      33.278  -6.448  31.511  0.00  0.00    +0.000 C 
ENDBRANCH  15  18
ENDBRANCH   2  12
TORSDOF 3
ENDMDL
MODEL 9
REMARK VINA RESULT:      -6.5     19.927     22.738
REMARK  Name = 
REMARK  3 active torsions:
REMARK  status: ('A' for Active; 'I' for Inactive)
REMARK    1  A    between atoms: C_5  and  N_6
REMARK    2  A    between atoms: C_7  and  C_9
REMARK    3  A    between atoms: C_12  and  C_13
REMARK                            x       y       z     vdW  Elec       q    Type
REMARK                         _______ _______ _______ _____ _____    ______ ____
ROOT
ATOM      1  N   UNL     1      34.265  -1.626  34.576  0.00  0.00    +0.000 NA
ATOM      2  C   UNL     1      33.170  -0.701  34.860  0.00  0.00    +0.000 C 
ATOM      3  O   UNL     1      32.075  -1.183  35.024  0.00  0.00    +0.000 OA
ENDROOT
BRANCH   1   8
ATOM      4  C   UNL     1      33.109  -7.109  33.287  0.00  0.00    +0.000 C 
ATOM      5  C   UNL     1      33.393  -5.683  33.684  0.00  0.00    +0.000 A 
ATOM      6  C   UNL     1      33.353  -4.662  32.757  0.00  0.00    +0.000 A 
ATOM      7  C   UNL     1      33.642  -3.373  33.100  0.00  0.00    +0.000 A 
ATOM      8  C   UNL     1      33.995  -3.002  34.438  0.00  0.00    +0.000 A 
ATOM      9  C   UNL     1      34.022  -4.012  35.339  0.00  0.00    +0.000 A 
ATOM     10  C   UNL     1      33.729  -5.347  34.995  0.00  0.00    +0.000 A 
ATOM     11  O   UNL     1      33.757  -6.373  35.951  0.00  0.00    +0.000 OA
ENDBRANCH   1   8
BRANCH   2  12
ATOM     12  C   UNL     1      33.532   0.731  34.889  0.00  0.00    +0.000 A 
ATOM     13  C   UNL     1      33.395   1.557  33.824  0.00  0.00    +0.000 A 
ATOM     14  C   UNL     1      33.567   2.955  33.895  0.00  0.00    +0.000 A 
ATOM     15  C   UNL     1      33.901   3.533  35.084  0.00  0.00    +0.000 A 
ATOM     16  C   UNL     1      34.056   2.703  36.183  0.00  0.00    +0.000 A 
ATOM     17  C   UNL     1      33.882   1.317  36.112  0.00  0.00    +0.000 A 
BRANCH  15  18
ATOM     18  C   UNL     1      33.997   5.034  35.224  0.00  0.00    +0.000 C 
ATOM     19  C   UNL     1      32.971   5.734  34.378  0.00  0.00    +0.000 C 
ATOM     20  C   UNL     1      35.352   5.580  34.948  0.00  0.00    +0.000 C 
ATOM     21  C   UNL     1      33.704   5.390  36.702  0.00  0.00    +0.000 C 
ENDBRANCH  15  18
ENDBRANCH   2  12
TORSDOF 3
ENDMDL
MODEL 10
REMARK VINA RESULT:      -6.4     20.086     22.041
REMARK  Name = 
REMARK  3 active torsions:
REMARK  status: ('A' for Active; 'I' for Inactive)
REMARK    1  A    between atoms: C_5  and  N_6
REMARK    2  A    between atoms: C_7  and  C_9
REMARK    3  A    between atoms: C_12  and  C_13
REMARK                            x       y       z     vdW  Elec       q    Type
REMARK                         _______ _______ _______ _____ _____    ______ ____
ROOT
ATOM      1  N   UNL     1      33.710  -0.132  35.157  0.00  0.00    +0.000 NA
ATOM      2  C   UNL     1      33.151   1.012  34.439  0.00  0.00    +0.000 C 
ATOM      3  O   UNL     1      32.387   0.770  33.535  0.00  0.00    +0.000 OA
ENDROOT
BRANCH   1   8
ATOM      4  C   UNL     1      31.936  -5.472  33.978  0.00  0.00    +0.000 C 
ATOM      5  C   UNL     1      32.455  -4.085  34.256  0.00  0.00    +0.000 A 
ATOM      6  C   UNL     1      32.023  -3.367  35.352  0.00  0.00    +0.000 A 
ATOM      7  C   UNL     1      32.461  -2.097  35.594  0.00  0.00    +0.000 A 
ATOM      8  C   UNL     1      33.399  -1.438  34.734  0.00  0.00    +0.000 A 
ATOM      9  C   UNL     1      33.821  -2.157  33.667  0.00  0.00    +0.000 A 
ATOM     10  C   UNL     1      33.371  -3.467  33.405  0.00  0.00    +0.000 A 
ATOM     11  O   UNL     1      33.831  -4.192  32.297  0.00  0.00    +0.000 OA
ENDBRANCH   1   8
BRANCH   2  12
ATOM     12  C   UNL     1      33.612   2.340  34.891  0.00  0.00    +0.000 A 
ATOM     13  C   UNL     1      34.171   2.563  36.104  0.00  0.00    +0.000 A 
ATOM     14  C   UNL     1      34.775   3.783  36.472  0.00  0.00    +0.000 A 
ATOM     15  C   UNL     1      34.801   4.817  35.582  0.00  0.00    +0.000 A 
ATOM     16  C   UNL     1      34.224   4.612  34.339  0.00  0.00    +0.000 A 
ATOM     17  C   UNL     1      33.629   3.399  33.974  0.00  0.00    +0.000 A 
BRANCH  15  18
ATOM     18  C   UNL     1      35.523   6.105  35.901  0.00  0.00    +0.000 C 
ATOM     19  C   UNL     1      34.588   7.138  36.462  0.00  0.00    +0.000 C 
ATOM     20  C   UNL     1      36.286   6.668  34.756  0.00  0.00    +0.000 C 
ATOM     21  C   UNL     1      36.582   5.795  36.988  0.00  0.00    +0.000 C 
ENDBRANCH  15  18
ENDBRANCH   2  12
TORSDOF 3
ENDMDL
