MODEL 1
REMARK VINA RESULT:      -6.2      0.000      0.000
REMARK  Name = 
REMARK  3 active torsions:
REMARK  status: ('A' for Active; 'I' for Inactive)
REMARK    1  A    between atoms: C_4  and  O_5
REMARK    2  A    between atoms: O_5  and  C_6
REMARK    3  A    between atoms: C_6  and  N_7
REMARK                            x       y       z     vdW  Elec       q    Type
REMARK                         _______ _______ _______ _____ _____    ______ ____
ROOT
ATOM      1  C   UNL     1      14.962  12.272  37.017  0.00  0.00    +0.000 C 
ATOM      2  C   UNL     1      16.017  11.346  36.506  0.00  0.00    +0.000 A 
ATOM      3  C   UNL     1      16.853  10.644  37.358  0.00  0.00    +0.000 A 
ATOM      4  C   UNL     1      17.826   9.791  36.879  0.00  0.00    +0.000 A 
ATOM      5  C   UNL     1      17.923   9.673  35.506  0.00  0.00    +0.000 A 
ATOM      6  C   UNL     1      17.089  10.374  34.656  0.00  0.00    +0.000 A 
ATOM      7  C   UNL     1      17.186  10.252  33.165  0.00  0.00    +0.000 C 
ATOM      8  C   UNL     1      16.117  11.226  35.137  0.00  0.00    +0.000 A 
ATOM      9 CL   UNL     1      15.053  12.118  34.057  0.00  0.00    +0.000 Cl
ENDROOT
BRANCH   4  10
ATOM     10  O   UNL     1      18.649   9.102  37.761  0.00  0.00    +0.000 OA
BRANCH  10  11
ATOM     11  C   UNL     1      18.629   9.329  39.134  0.00  0.00    +0.000 C 
BRANCH  11  12
ATOM     12  N   UNL     1      18.225   8.175  39.911  0.00  0.00    +0.000 N 
ATOM     13  N   UNL     1      18.843   7.000  40.000  0.00  0.00    +0.000 NA
ATOM     14  C   UNL     1      18.164   6.176  40.821  0.00  0.00    +0.000 A 
ATOM     15  N   UNL     1      18.463   4.837  41.201  0.00  0.00    +0.000 NA
ATOM     16  C   UNL     1      17.068   6.914  41.248  0.00  0.00    +0.000 A 
ATOM     17  C   UNL     1      17.114   8.167  40.671  0.00  0.00    +0.000 A 
ATOM     18  C   UNL     1      16.127   9.284  40.859  0.00  0.00    +0.000 C 
ENDBRANCH  11  12
ENDBRANCH  10  11
ENDBRANCH   4  10
TORSDOF 3
ENDMDL
MODEL 2
REMARK VINA RESULT:      -5.9      5.519      8.079
REMARK  Name = 
REMARK  3 active torsions:
REMARK  status: ('A' for Active; 'I' for Inactive)
REMARK    1  A    between atoms: C_4  and  O_5
REMARK    2  A    between atoms: O_5  and  C_6
REMARK    3  A    between atoms: C_6  and  N_7
REMARK                            x       y       z     vdW  Elec       q    Type
REMARK                         _______ _______ _______ _____ _____    ______ ____
ROOT
ATOM      1  C   UNL     1      14.636  11.885  37.582  0.00  0.00    +0.000 C 
ATOM      2  C   UNL     1      15.472  11.299  36.492  0.00  0.00    +0.000 A 
ATOM      3  C   UNL     1      15.040  11.257  35.177  0.00  0.00    +0.000 A 
ATOM      4  C   UNL     1      15.818  10.714  34.175  0.00  0.00    +0.000 A 
ATOM      5  C   UNL     1      17.049  10.215  34.551  0.00  0.00    +0.000 A 
ATOM      6  C   UNL     1      17.481  10.256  35.862  0.00  0.00    +0.000 A 
ATOM      7  C   UNL     1      18.815   9.716  36.280  0.00  0.00    +0.000 C 
ATOM      8  C   UNL     1      16.702  10.799  36.863  0.00  0.00    +0.000 A 
ATOM      9 CL   UNL     1      17.249  10.854  38.533  0.00  0.00    +0.000 Cl
ENDROOT
BRANCH   4  10
ATOM     10  O   UNL     1      15.354  10.688  32.866  0.00  0.00    +0.000 OA
BRANCH  10  11
ATOM     11  C   UNL     1      15.763  11.612  31.909  0.00  0.00    +0.000 C 
BRANCH  11  12
ATOM     12  N   UNL     1      15.049  12.871  31.969  0.00  0.00    +0.000 N 
ATOM     13  N   UNL     1      14.172  13.263  32.891  0.00  0.00    +0.000 NA
ATOM     14  C   UNL     1      13.719  14.499  32.608  0.00  0.00    +0.000 A 
ATOM     15  N   UNL     1      12.779  15.298  33.320  0.00  0.00    +0.000 NA
ATOM     16  C   UNL     1      14.373  14.865  31.439  0.00  0.00    +0.000 A 
ATOM     17  C   UNL     1      15.205  13.837  31.045  0.00  0.00    +0.000 A 
ATOM     18  C   UNL     1      16.096  13.810  29.836  0.00  0.00    +0.000 C 
ENDBRANCH  11  12
ENDBRANCH  10  11
ENDBRANCH   4  10
TORSDOF 3
ENDMDL
MODEL 3
REMARK VINA RESULT:      -5.8      3.375      4.505
REMARK  Name = 
REMARK  3 active torsions:
REMARK  status: ('A' for Active; 'I' for Inactive)
REMARK    1  A    between atoms: C_4  and  O_5
REMARK    2  A    between atoms: O_5  and  C_6
REMARK    3  A    between atoms: C_6  and  N_7
REMARK                            x       y       z     vdW  Elec       q    Type
REMARK                         _______ _______ _______ _____ _____    ______ ____
ROOT
ATOM      1  C   UNL     1      14.944  11.435  37.973  0.00  0.00    +0.000 C 
ATOM      2  C   UNL     1      15.828  11.158  36.802  0.00  0.00    +0.000 A 
ATOM      3  C   UNL     1      17.035  10.493  36.934  0.00  0.00    +0.000 A 
ATOM      4  C   UNL     1      17.847  10.241  35.847  0.00  0.00    +0.000 A 
ATOM      5  C   UNL     1      17.393  10.685  34.620  0.00  0.00    +0.000 A 
ATOM      6  C   UNL     1      16.189  11.349  34.488  0.00  0.00    +0.000 A 
ATOM      7  C   UNL     1      15.688  11.835  33.162  0.00  0.00    +0.000 C 
ATOM      8  C   UNL     1      15.379  11.600  35.576  0.00  0.00    +0.000 A 
ATOM      9 CL   UNL     1      13.845  12.444  35.410  0.00  0.00    +0.000 Cl
ENDROOT
BRANCH   4  10
ATOM     10  O   UNL     1      19.053   9.571  36.015  0.00  0.00    +0.000 OA
BRANCH  10  11
ATOM     11  C   UNL     1      19.747   9.572  37.221  0.00  0.00    +0.000 C 
BRANCH  11  12
ATOM     12  N   UNL     1      21.095  10.092  37.118  0.00  0.00    +0.000 N 
ATOM     13  N   UNL     1      22.115   9.573  36.439  0.00  0.00    +0.000 NA
ATOM     14  C   UNL     1      23.212  10.341  36.583  0.00  0.00    +0.000 A 
ATOM     15  N   UNL     1      24.514  10.163  36.034  0.00  0.00    +0.000 NA
ATOM     16  C   UNL     1      22.814  11.387  37.404  0.00  0.00    +0.000 A 
ATOM     17  C   UNL     1      21.484  11.223  37.735  0.00  0.00    +0.000 A 
ATOM     18  C   UNL     1      20.653  12.123  38.604  0.00  0.00    +0.000 C 
ENDBRANCH  11  12
ENDBRANCH  10  11
ENDBRANCH   4  10
TORSDOF 3
ENDMDL
MODEL 4
REMARK VINA RESULT:      -5.7     22.310     24.855
REMARK  Name = 
REMARK  3 active torsions:
REMARK  status: ('A' for Active; 'I' for Inactive)
REMARK    1  A    between atoms: C_4  and  O_5
REMARK    2  A    between atoms: O_5  and  C_6
REMARK    3  A    between atoms: C_6  and  N_7
REMARK                            x       y       z     vdW  Elec       q    Type
REMARK                         _______ _______ _______ _____ _____    ______ ____
ROOT
ATOM      1  C   UNL     1      25.640  24.136  25.880  0.00  0.00    +0.000 C 
ATOM      2  C   UNL     1      26.997  23.679  25.456  0.00  0.00    +0.000 A 
ATOM      3  C   UNL     1      27.466  23.867  24.166  0.00  0.00    +0.000 A 
ATOM      4  C   UNL     1      28.721  23.441  23.782  0.00  0.00    +0.000 A 
ATOM      5  C   UNL     1      29.485  22.817  24.749  0.00  0.00    +0.000 A 
ATOM      6  C   UNL     1      29.017  22.629  26.035  0.00  0.00    +0.000 A 
ATOM      7  C   UNL     1      29.839  21.953  27.091  0.00  0.00    +0.000 C 
ATOM      8  C   UNL     1      27.763  23.055  26.418  0.00  0.00    +0.000 A 
ATOM      9 CL   UNL     1      27.165  22.817  28.055  0.00  0.00    +0.000 Cl
ENDROOT
BRANCH   4  10
ATOM     10  O   UNL     1      29.161  23.646  22.480  0.00  0.00    +0.000 OA
BRANCH  10  11
ATOM     11  C   UNL     1      28.350  24.202  21.496  0.00  0.00    +0.000 C 
BRANCH  11  12
ATOM     12  N   UNL     1      28.891  25.410  20.906  0.00  0.00    +0.000 N 
ATOM     13  N   UNL     1      29.768  25.503  19.910  0.00  0.00    +0.000 NA
ATOM     14  C   UNL     1      30.031  26.796  19.639  0.00  0.00    +0.000 A 
ATOM     15  N   UNL     1      30.902  27.351  18.659  0.00  0.00    +0.000 NA
ATOM     16  C   UNL     1      29.254  27.518  20.536  0.00  0.00    +0.000 A 
ATOM     17  C   UNL     1      28.542  26.640  21.327  0.00  0.00    +0.000 A 
ATOM     18  C   UNL     1      27.581  26.991  22.427  0.00  0.00    +0.000 C 
ENDBRANCH  11  12
ENDBRANCH  10  11
ENDBRANCH   4  10
TORSDOF 3
ENDMDL
MODEL 5
REMARK VINA RESULT:      -5.6     20.997     22.571
REMARK  Name = 
REMARK  3 active torsions:
REMARK  status: ('A' for Active; 'I' for Inactive)
REMARK    1  A    between atoms: C_4  and  O_5
REMARK    2  A    between atoms: O_5  and  C_6
REMARK    3  A    between atoms: C_6  and  N_7
REMARK                            x       y       z     vdW  Elec       q    Type
REMARK                         _______ _______ _______ _____ _____    ______ ____
ROOT
ATOM      1  C   UNL     1      18.714  -4.715  26.551  0.00  0.00    +0.000 C 
ATOM      2  C   UNL     1      19.425  -5.950  26.103  0.00  0.00    +0.000 A 
ATOM      3  C   UNL     1      20.767  -5.941  25.763  0.00  0.00    +0.000 A 
ATOM      4  C   UNL     1      21.417  -7.086  25.350  0.00  0.00    +0.000 A 
ATOM      5  C   UNL     1      20.661  -8.241  25.294  0.00  0.00    +0.000 A 
ATOM      6  C   UNL     1      19.322  -8.249  25.632  0.00  0.00    +0.000 A 
ATOM      7  C   UNL     1      18.492  -9.496  25.575  0.00  0.00    +0.000 C 
ATOM      8  C   UNL     1      18.673  -7.104  26.045  0.00  0.00    +0.000 A 
ATOM      9 CL   UNL     1      16.969  -7.112  26.479  0.00  0.00    +0.000 Cl
ENDROOT
BRANCH   4  10
ATOM     10  O   UNL     1      22.765  -7.043  25.016  0.00  0.00    +0.000 OA
BRANCH  10  11
ATOM     11  C   UNL     1      23.214  -6.590  23.779  0.00  0.00    +0.000 C 
BRANCH  11  12
ATOM     12  N   UNL     1      24.289  -7.385  23.221  0.00  0.00    +0.000 N 
ATOM     13  N   UNL     1      25.571  -7.381  23.578  0.00  0.00    +0.000 NA
ATOM     14  C   UNL     1      26.268  -8.257  22.829  0.00  0.00    +0.000 A 
ATOM     15  N   UNL     1      27.656  -8.573  22.873  0.00  0.00    +0.000 NA
ATOM     16  C   UNL     1      25.334  -8.819  21.970  0.00  0.00    +0.000 A 
ATOM     17  C   UNL     1      24.095  -8.267  22.222  0.00  0.00    +0.000 A 
ATOM     18  C   UNL     1      22.805  -8.587  21.524  0.00  0.00    +0.000 C 
ENDBRANCH  11  12
ENDBRANCH  10  11
ENDBRANCH   4  10
TORSDOF 3
ENDMDL
MODEL 6
REMARK VINA RESULT:      -5.5     21.115     22.718
REMARK  Name = 
REMARK  3 active torsions:
REMARK  status: ('A' for Active; 'I' for Inactive)
REMARK    1  A    between atoms: C_4  and  O_5
REMARK    2  A    between atoms: O_5  and  C_6
REMARK    3  A    between atoms: C_6  and  N_7
REMARK                            x       y       z     vdW  Elec       q    Type
REMARK                         _______ _______ _______ _____ _____    ______ ____
ROOT
ATOM      1  C   UNL     1      18.904  -9.553  26.611  0.00  0.00    +0.000 C 
ATOM      2  C   UNL     1      19.561  -8.256  26.272  0.00  0.00    +0.000 A 
ATOM      3  C   UNL     1      20.839  -8.197  25.742  0.00  0.00    +0.000 A 
ATOM      4  C   UNL     1      21.440  -6.994  25.432  0.00  0.00    +0.000 A 
ATOM      5  C   UNL     1      20.702  -5.852  25.678  0.00  0.00    +0.000 A 
ATOM      6  C   UNL     1      19.428  -5.911  26.207  0.00  0.00    +0.000 A 
ATOM      7  C   UNL     1      18.619  -4.678  26.477  0.00  0.00    +0.000 C 
ATOM      8  C   UNL     1      18.828  -7.114  26.516  0.00  0.00    +0.000 A 
ATOM      9 CL   UNL     1      17.205  -7.192  27.189  0.00  0.00    +0.000 Cl
ENDROOT
BRANCH   4  10
ATOM     10  O   UNL     1      22.723  -6.969  24.901  0.00  0.00    +0.000 OA
BRANCH  10  11
ATOM     11  C   UNL     1      22.990  -6.526  23.609  0.00  0.00    +0.000 C 
BRANCH  11  12
ATOM     12  N   UNL     1      23.361  -7.584  22.693  0.00  0.00    +0.000 N 
ATOM     13  N   UNL     1      22.566  -8.254  21.862  0.00  0.00    +0.000 NA
ATOM     14  C   UNL     1      23.276  -9.165  21.169  0.00  0.00    +0.000 A 
ATOM     15  N   UNL     1      22.832 -10.089  20.180  0.00  0.00    +0.000 NA
ATOM     16  C   UNL     1      24.582  -9.024  21.619  0.00  0.00    +0.000 A 
ATOM     17  C   UNL     1      24.626  -8.031  22.576  0.00  0.00    +0.000 A 
ATOM     18  C   UNL     1      25.837  -7.553  23.325  0.00  0.00    +0.000 C 
ENDBRANCH  11  12
ENDBRANCH  10  11
ENDBRANCH   4  10
TORSDOF 3
ENDMDL
MODEL 7
REMARK VINA RESULT:      -5.4     22.729     25.137
REMARK  Name = 
REMARK  3 active torsions:
REMARK  status: ('A' for Active; 'I' for Inactive)
REMARK    1  A    between atoms: C_4  and  O_5
REMARK    2  A    between atoms: O_5  and  C_6
REMARK    3  A    between atoms: C_6  and  N_7
REMARK                            x       y       z     vdW  Elec       q    Type
REMARK                         _______ _______ _______ _____ _____    ______ ____
ROOT
ATOM      1  C   UNL     1      31.988  26.391  26.081  0.00  0.00    +0.000 C 
ATOM      2  C   UNL     1      31.450  25.010  25.895  0.00  0.00    +0.000 A 
ATOM      3  C   UNL     1      30.860  24.606  24.710  0.00  0.00    +0.000 A 
ATOM      4  C   UNL     1      30.366  23.328  24.546  0.00  0.00    +0.000 A 
ATOM      5  C   UNL     1      30.489  22.473  25.624  0.00  0.00    +0.000 A 
ATOM      6  C   UNL     1      31.077  22.878  26.807  0.00  0.00    +0.000 A 
ATOM      7  C   UNL     1      31.217  21.958  27.983  0.00  0.00    +0.000 C 
ATOM      8  C   UNL     1      31.572  24.155  26.970  0.00  0.00    +0.000 A 
ATOM      9 CL   UNL     1      32.322  24.671  28.474  0.00  0.00    +0.000 Cl
ENDROOT
BRANCH   4  10
ATOM     10  O   UNL     1      29.779  22.954  23.343  0.00  0.00    +0.000 OA
BRANCH  10  11
ATOM     11  C   UNL     1      28.596  23.521  22.880  0.00  0.00    +0.000 C 
BRANCH  11  12
ATOM     12  N   UNL     1      28.796  24.659  22.006  0.00  0.00    +0.000 N 
ATOM     13  N   UNL     1      29.576  24.727  20.929  0.00  0.00    +0.000 NA
ATOM     14  C   UNL     1      29.501  25.952  20.375  0.00  0.00    +0.000 A 
ATOM     15  N   UNL     1      30.162  26.460  19.221  0.00  0.00    +0.000 NA
ATOM     16  C   UNL     1      28.616  26.658  21.179  0.00  0.00    +0.000 A 
ATOM     17  C   UNL     1      28.179  25.839  22.200  0.00  0.00    +0.000 A 
ATOM     18  C   UNL     1      27.215  26.197  23.295  0.00  0.00    +0.000 C 
ENDBRANCH  11  12
ENDBRANCH  10  11
ENDBRANCH   4  10
TORSDOF 3
ENDMDL
MODEL 8
REMARK VINA RESULT:      -5.4     19.198     21.041
REMARK  Name = 
REMARK  3 active torsions:
REMARK  status: ('A' for Active; 'I' for Inactive)
REMARK    1  A    between atoms: C_4  and  O_5
REMARK    2  A    between atoms: O_5  and  C_6
REMARK    3  A    between atoms: C_6  and  N_7
REMARK                            x       y       z     vdW  Elec       q    Type
REMARK                         _______ _______ _______ _____ _____    ______ ____
ROOT
ATOM      1  C   UNL     1      32.620  23.683  27.506  0.00  0.00    +0.000 C 
ATOM      2  C   UNL     1      31.201  23.277  27.275  0.00  0.00    +0.000 A 
ATOM      3  C   UNL     1      30.337  23.000  28.321  0.00  0.00    +0.000 A 
ATOM      4  C   UNL     1      29.028  22.625  28.100  0.00  0.00    +0.000 A 
ATOM      5  C   UNL     1      28.623  22.541  26.782  0.00  0.00    +0.000 A 
ATOM      6  C   UNL     1      29.485  22.817  25.738  0.00  0.00    +0.000 A 
ATOM      7  C   UNL     1      29.055  22.729  24.305  0.00  0.00    +0.000 C 
ATOM      8  C   UNL     1      30.794  23.192  25.961  0.00  0.00    +0.000 A 
ATOM      9 CL   UNL     1      31.893  23.546  24.634  0.00  0.00    +0.000 Cl
ENDROOT
BRANCH   4  10
ATOM     10  O   UNL     1      28.187  22.354  29.172  0.00  0.00    +0.000 OA
BRANCH  10  11
ATOM     11  C   UNL     1      26.800  22.397  29.064  0.00  0.00    +0.000 C 
BRANCH  11  12
ATOM     12  N   UNL     1      26.210  23.608  29.599  0.00  0.00    +0.000 N 
ATOM     13  N   UNL     1      26.094  23.957  30.878  0.00  0.00    +0.000 NA
ATOM     14  C   UNL     1      25.489  25.156  30.981  0.00  0.00    +0.000 A 
ATOM     15  N   UNL     1      25.167  25.903  32.149  0.00  0.00    +0.000 NA
ATOM     16  C   UNL     1      25.231  25.544  29.673  0.00  0.00    +0.000 A 
ATOM     17  C   UNL     1      25.686  24.566  28.812  0.00  0.00    +0.000 A 
ATOM     18  C   UNL     1      25.609  24.578  27.312  0.00  0.00    +0.000 C 
ENDBRANCH  11  12
ENDBRANCH  10  11
ENDBRANCH   4  10
TORSDOF 3
ENDMDL
MODEL 9
REMARK VINA RESULT:      -5.4      3.599      6.610
REMARK  Name = 
REMARK  3 active torsions:
REMARK  status: ('A' for Active; 'I' for Inactive)
REMARK    1  A    between atoms: C_4  and  O_5
REMARK    2  A    between atoms: O_5  and  C_6
REMARK    3  A    between atoms: C_6  and  N_7
REMARK                            x       y       z     vdW  Elec       q    Type
REMARK                         _______ _______ _______ _____ _____    ______ ____
ROOT
ATOM      1  C   UNL     1      18.474   5.553  41.115  0.00  0.00    +0.000 C 
ATOM      2  C   UNL     1      18.077   6.915  40.649  0.00  0.00    +0.000 A 
ATOM      3  C   UNL     1      18.596   7.477  39.495  0.00  0.00    +0.000 A 
ATOM      4  C   UNL     1      18.224   8.736  39.071  0.00  0.00    +0.000 A 
ATOM      5  C   UNL     1      17.307   9.408  39.857  0.00  0.00    +0.000 A 
ATOM      6  C   UNL     1      16.790   8.848  41.009  0.00  0.00    +0.000 A 
ATOM      7  C   UNL     1      15.795   9.568  41.869  0.00  0.00    +0.000 C 
ATOM      8  C   UNL     1      17.163   7.589  41.432  0.00  0.00    +0.000 A 
ATOM      9 CL   UNL     1      16.505   6.873  42.897  0.00  0.00    +0.000 Cl
ENDROOT
BRANCH   4  10
ATOM     10  O   UNL     1      18.763   9.271  37.908  0.00  0.00    +0.000 OA
BRANCH  10  11
ATOM     11  C   UNL     1      18.584  10.602  37.544  0.00  0.00    +0.000 C 
BRANCH  11  12
ATOM     12  N   UNL     1      17.916  10.774  36.270  0.00  0.00    +0.000 N 
ATOM     13  N   UNL     1      18.082  10.053  35.163  0.00  0.00    +0.000 NA
ATOM     14  C   UNL     1      17.284  10.516  34.181  0.00  0.00    +0.000 A 
ATOM     15  N   UNL     1      17.138  10.047  32.845  0.00  0.00    +0.000 NA
ATOM     16  C   UNL     1      16.599  11.584  34.746  0.00  0.00    +0.000 A 
ATOM     17  C   UNL     1      17.002  11.739  36.056  0.00  0.00    +0.000 A 
ATOM     18  C   UNL     1      16.517  12.771  37.033  0.00  0.00    +0.000 C 
ENDBRANCH  11  12
ENDBRANCH  10  11
ENDBRANCH   4  10
TORSDOF 3
ENDMDL
MODEL 10
REMARK VINA RESULT:      -5.4     21.016     22.469
REMARK  Name = 
REMARK  3 active torsions:
REMARK  status: ('A' for Active; 'I' for Inactive)
REMARK    1  A    between atoms: C_4  and  O_5
REMARK    2  A    between atoms: O_5  and  C_6
REMARK    3  A    between atoms: C_6  and  N_7
REMARK                            x       y       z     vdW  Elec       q    Type
REMARK                         _______ _______ _______ _____ _____    ______ ____
ROOT
ATOM      1  C   UNL     1      18.555  -9.536  26.869  0.00  0.00    +0.000 C 
ATOM      2  C   UNL     1      19.323  -8.321  26.463  0.00  0.00    +0.000 A 
ATOM      3  C   UNL     1      20.620  -8.397  25.985  0.00  0.00    +0.000 A 
ATOM      4  C   UNL     1      21.322  -7.270  25.612  0.00  0.00    +0.000 A 
ATOM      5  C   UNL     1      20.666  -6.061  25.740  0.00  0.00    +0.000 A 
ATOM      6  C   UNL     1      19.372  -5.985  26.218  0.00  0.00    +0.000 A 
ATOM      7  C   UNL     1      18.651  -4.678  26.360  0.00  0.00    +0.000 C 
ATOM      8  C   UNL     1      18.671  -7.112  26.590  0.00  0.00    +0.000 A 
ATOM      9 CL   UNL     1      17.023  -7.018  27.197  0.00  0.00    +0.000 Cl
ENDROOT
BRANCH   4  10
ATOM     10  O   UNL     1      22.623  -7.382  25.136  0.00  0.00    +0.000 OA
BRANCH  10  11
ATOM     11  C   UNL     1      22.914  -7.841  23.855  0.00  0.00    +0.000 C 
BRANCH  11  12
ATOM     12  N   UNL     1      24.323  -8.092  23.629  0.00  0.00    +0.000 N 
ATOM     13  N   UNL     1      25.191  -7.317  22.984  0.00  0.00    +0.000 NA
ATOM     14  C   UNL     1      26.412  -7.886  22.981  0.00  0.00    +0.000 A 
ATOM     15  N   UNL     1      27.626  -7.408  22.410  0.00  0.00    +0.000 NA
ATOM     16  C   UNL     1      26.256  -9.079  23.673  0.00  0.00    +0.000 A 
ATOM     17  C   UNL     1      24.941  -9.200  24.076  0.00  0.00    +0.000 A 
ATOM     18  C   UNL     1      24.336 -10.336  24.850  0.00  0.00    +0.000 C 
ENDBRANCH  11  12
ENDBRANCH  10  11
ENDBRANCH   4  10
TORSDOF 3
ENDMDL
