MODEL 1
REMARK VINA RESULT:      -6.2      0.000      0.000
REMARK  Name = 
REMARK  3 active torsions:
REMARK  status: ('A' for Active; 'I' for Inactive)
REMARK    1  A    between atoms: C_6  and  N_7
REMARK    2  A    between atoms: N_7  and  C_8
REMARK    3  A    between atoms: C_8  and  C_9
REMARK                            x       y       z     vdW  Elec       q    Type
REMARK                         _______ _______ _______ _____ _____    ______ ____
ROOT
ATOM      1  C   UNL     1      26.200  23.747  12.005  0.00  0.00    +0.000 C 
ATOM      2  C   UNL     1      27.496  23.053  11.926  0.00  0.00    +0.000 A 
ATOM      3  N   UNL     1      27.938  22.161  11.011  0.00  0.00    +0.000 NA
ATOM      4  C   UNL     1      29.205  21.788  11.358  0.00  0.00    +0.000 A 
ATOM      5  C   UNL     1      30.104  20.925  10.727  0.00  0.00    +0.000 A 
ATOM      6  C   UNL     1      31.339  20.756  11.268  0.00  0.00    +0.000 A 
ATOM      7  C   UNL     1      31.607  21.501  12.465  0.00  0.00    +0.000 A 
ATOM      8  C   UNL     1      30.727  22.345  13.085  0.00  0.00    +0.000 A 
ATOM      9  C   UNL     1      29.462  22.508  12.520  0.00  0.00    +0.000 A 
ATOM     10  N   UNL     1      28.442  23.272  12.882  0.00  0.00    +0.000 N 
ATOM     11  C   UNL     1      28.344  24.065  14.124  0.00  0.00    +0.000 C 
ENDROOT
BRANCH   6  12
ATOM     12  N   UNL     1      32.359  20.015  10.778  0.00  0.00    +0.000 NA
BRANCH  12  13
ATOM     13  C   UNL     1      33.438  20.130   9.925  0.00  0.00    +0.000 C 
BRANCH  13  14
ATOM     14  C   UNL     1      34.089  21.405   9.651  0.00  0.00    +0.000 A 
ATOM     15  C   UNL     1      34.876  22.103  10.541  0.00  0.00    +0.000 A 
ATOM     16  C   UNL     1      35.287  23.448  10.362  0.00  0.00    +0.000 A 
ATOM     17  C   UNL     1      34.859  24.067   9.191  0.00  0.00    +0.000 A 
ATOM     18  C   UNL     1      34.046  23.369   8.263  0.00  0.00    +0.000 A 
ATOM     19  C   UNL     1      33.686  22.106   8.477  0.00  0.00    +0.000 A 
ATOM     20  O   UNL     1      32.905  21.353   7.619  0.00  0.00    +0.000 OA
ENDBRANCH  13  14
ENDBRANCH  12  13
ENDBRANCH   6  12
TORSDOF 3
ENDMDL
MODEL 2
REMARK VINA RESULT:      -6.2      1.864      2.679
REMARK  Name = 
REMARK  3 active torsions:
REMARK  status: ('A' for Active; 'I' for Inactive)
REMARK    1  A    between atoms: C_6  and  N_7
REMARK    2  A    between atoms: N_7  and  C_8
REMARK    3  A    between atoms: C_8  and  C_9
REMARK                            x       y       z     vdW  Elec       q    Type
REMARK                         _______ _______ _______ _____ _____    ______ ____
ROOT
ATOM      1  C   UNL     1      26.064  23.724  12.137  0.00  0.00    +0.000 C 
ATOM      2  C   UNL     1      27.370  23.062  11.988  0.00  0.00    +0.000 A 
ATOM      3  N   UNL     1      27.796  22.205  11.033  0.00  0.00    +0.000 NA
ATOM      4  C   UNL     1      29.083  21.853  11.320  0.00  0.00    +0.000 A 
ATOM      5  C   UNL     1      29.976  21.028  10.632  0.00  0.00    +0.000 A 
ATOM      6  C   UNL     1      31.235  20.874  11.119  0.00  0.00    +0.000 A 
ATOM      7  C   UNL     1      31.534  21.595  12.324  0.00  0.00    +0.000 A 
ATOM      8  C   UNL     1      30.660  22.402  13.000  0.00  0.00    +0.000 A 
ATOM      9  C   UNL     1      29.370  22.549  12.490  0.00  0.00    +0.000 A 
ATOM     10  N   UNL     1      28.349  23.279  12.912  0.00  0.00    +0.000 N 
ATOM     11  C   UNL     1      28.283  24.038  14.177  0.00  0.00    +0.000 C 
ENDROOT
BRANCH   6  12
ATOM     12  N   UNL     1      32.251  20.171  10.570  0.00  0.00    +0.000 NA
BRANCH  12  13
ATOM     13  C   UNL     1      33.172  20.262   9.546  0.00  0.00    +0.000 C 
BRANCH  13  14
ATOM     14  C   UNL     1      32.780  20.354   8.145  0.00  0.00    +0.000 A 
ATOM     15  C   UNL     1      32.038  21.375   7.592  0.00  0.00    +0.000 A 
ATOM     16  C   UNL     1      31.447  21.329   6.305  0.00  0.00    +0.000 A 
ATOM     17  C   UNL     1      31.664  20.164   5.574  0.00  0.00    +0.000 A 
ATOM     18  C   UNL     1      32.421  19.100   6.124  0.00  0.00    +0.000 A 
ATOM     19  C   UNL     1      32.956  19.192   7.339  0.00  0.00    +0.000 A 
ATOM     20  O   UNL     1      33.714  18.205   7.942  0.00  0.00    +0.000 OA
ENDBRANCH  13  14
ENDBRANCH  12  13
ENDBRANCH   6  12
TORSDOF 3
ENDMDL
MODEL 3
REMARK VINA RESULT:      -6.1     29.324     30.974
REMARK  Name = 
REMARK  3 active torsions:
REMARK  status: ('A' for Active; 'I' for Inactive)
REMARK    1  A    between atoms: C_6  and  N_7
REMARK    2  A    between atoms: N_7  and  C_8
REMARK    3  A    between atoms: C_8  and  C_9
REMARK                            x       y       z     vdW  Elec       q    Type
REMARK                         _______ _______ _______ _____ _____    ______ ____
ROOT
ATOM      1  C   UNL     1      25.754  12.421  38.488  0.00  0.00    +0.000 C 
ATOM      2  C   UNL     1      24.401  11.910  38.218  0.00  0.00    +0.000 A 
ATOM      3  N   UNL     1      23.219  12.277  38.762  0.00  0.00    +0.000 NA
ATOM      4  C   UNL     1      22.236  11.516  38.199  0.00  0.00    +0.000 A 
ATOM      5  C   UNL     1      20.853  11.529  38.390  0.00  0.00    +0.000 A 
ATOM      6  C   UNL     1      20.081  10.680  37.661  0.00  0.00    +0.000 A 
ATOM      7  C   UNL     1      20.782   9.831  36.739  0.00  0.00    +0.000 A 
ATOM      8  C   UNL     1      22.137   9.816  36.552  0.00  0.00    +0.000 A 
ATOM      9  C   UNL     1      22.916  10.691  37.308  0.00  0.00    +0.000 A 
ATOM     10  N   UNL     1      24.223  10.909  37.310  0.00  0.00    +0.000 N 
ATOM     11  C   UNL     1      25.238  10.128  36.574  0.00  0.00    +0.000 C 
ENDROOT
BRANCH   6  12
ATOM     12  N   UNL     1      18.732  10.585  37.661  0.00  0.00    +0.000 NA
BRANCH  12  13
ATOM     13  C   UNL     1      17.723   9.829  37.101  0.00  0.00    +0.000 C 
BRANCH  13  14
ATOM     14  C   UNL     1      17.072  10.195  35.849  0.00  0.00    +0.000 A 
ATOM     15  C   UNL     1      17.561   9.922  34.590  0.00  0.00    +0.000 A 
ATOM     16  C   UNL     1      17.063  10.500  33.395  0.00  0.00    +0.000 A 
ATOM     17  C   UNL     1      16.000  11.387  33.542  0.00  0.00    +0.000 A 
ATOM     18  C   UNL     1      15.483  11.685  34.828  0.00  0.00    +0.000 A 
ATOM     19  C   UNL     1      15.987  11.116  35.921  0.00  0.00    +0.000 A 
ATOM     20  O   UNL     1      15.534  11.345  37.207  0.00  0.00    +0.000 OA
ENDBRANCH  13  14
ENDBRANCH  12  13
ENDBRANCH   6  12
TORSDOF 3
ENDMDL
MODEL 4
REMARK VINA RESULT:      -5.7     31.776     33.281
REMARK  Name = 
REMARK  3 active torsions:
REMARK  status: ('A' for Active; 'I' for Inactive)
REMARK    1  A    between atoms: C_6  and  N_7
REMARK    2  A    between atoms: N_7  and  C_8
REMARK    3  A    between atoms: C_8  and  C_9
REMARK                            x       y       z     vdW  Elec       q    Type
REMARK                         _______ _______ _______ _____ _____    ______ ____
ROOT
ATOM      1  C   UNL     1      34.002   5.046  34.304  0.00  0.00    +0.000 C 
ATOM      2  C   UNL     1      33.819   3.589  34.407  0.00  0.00    +0.000 A 
ATOM      3  N   UNL     1      33.461   2.699  33.453  0.00  0.00    +0.000 NA
ATOM      4  C   UNL     1      33.416   1.459  34.024  0.00  0.00    +0.000 A 
ATOM      5  C   UNL     1      33.137   0.211  33.465  0.00  0.00    +0.000 A 
ATOM      6  C   UNL     1      33.202  -0.892  34.257  0.00  0.00    +0.000 A 
ATOM      7  C   UNL     1      33.563  -0.660  35.627  0.00  0.00    +0.000 A 
ATOM      8  C   UNL     1      33.835   0.564  36.176  0.00  0.00    +0.000 A 
ATOM      9  C   UNL     1      33.763   1.686  35.351  0.00  0.00    +0.000 A 
ATOM     10  N   UNL     1      34.003   2.964  35.604  0.00  0.00    +0.000 N 
ATOM     11  C   UNL     1      34.277   3.555  36.929  0.00  0.00    +0.000 C 
ENDROOT
BRANCH   6  12
ATOM     12  N   UNL     1      33.024  -2.182  33.891  0.00  0.00    +0.000 NA
BRANCH  12  13
ATOM     13  C   UNL     1      33.682  -3.394  33.926  0.00  0.00    +0.000 C 
BRANCH  13  14
ATOM     14  C   UNL     1      33.312  -4.513  33.068  0.00  0.00    +0.000 A 
ATOM     15  C   UNL     1      33.736  -4.693  31.770  0.00  0.00    +0.000 A 
ATOM     16  C   UNL     1      33.174  -5.631  30.867  0.00  0.00    +0.000 A 
ATOM     17  C   UNL     1      32.136  -6.413  31.366  0.00  0.00    +0.000 A 
ATOM     18  C   UNL     1      31.681  -6.242  32.697  0.00  0.00    +0.000 A 
ATOM     19  C   UNL     1      32.242  -5.346  33.506  0.00  0.00    +0.000 A 
ATOM     20  O   UNL     1      31.864  -5.126  34.818  0.00  0.00    +0.000 OA
ENDBRANCH  13  14
ENDBRANCH  12  13
ENDBRANCH   6  12
TORSDOF 3
ENDMDL
MODEL 5
REMARK VINA RESULT:      -5.7     19.926     21.244
REMARK  Name = 
REMARK  3 active torsions:
REMARK  status: ('A' for Active; 'I' for Inactive)
REMARK    1  A    between atoms: C_6  and  N_7
REMARK    2  A    between atoms: N_7  and  C_8
REMARK    3  A    between atoms: C_8  and  C_9
REMARK                            x       y       z     vdW  Elec       q    Type
REMARK                         _______ _______ _______ _____ _____    ______ ____
ROOT
ATOM      1  C   UNL     1      18.506   1.286  16.834  0.00  0.00    +0.000 C 
ATOM      2  C   UNL     1      19.925   1.641  16.997  0.00  0.00    +0.000 A 
ATOM      3  N   UNL     1      20.503   2.492  17.875  0.00  0.00    +0.000 NA
ATOM      4  C   UNL     1      21.847   2.498  17.640  0.00  0.00    +0.000 A 
ATOM      5  C   UNL     1      22.881   3.175  18.290  0.00  0.00    +0.000 A 
ATOM      6  C   UNL     1      24.161   2.970  17.878  0.00  0.00    +0.000 A 
ATOM      7  C   UNL     1      24.328   2.053  16.787  0.00  0.00    +0.000 A 
ATOM      8  C   UNL     1      23.316   1.389  16.148  0.00  0.00    +0.000 A 
ATOM      9  C   UNL     1      22.009   1.611  16.581  0.00  0.00    +0.000 A 
ATOM     10  N   UNL     1      20.861   1.088  16.175  0.00  0.00    +0.000 N 
ATOM     11  C   UNL     1      20.668   0.210  15.003  0.00  0.00    +0.000 C 
ENDROOT
BRANCH   6  12
ATOM     12  N   UNL     1      25.291   3.485  18.412  0.00  0.00    +0.000 NA
BRANCH  12  13
ATOM     13  C   UNL     1      25.796   4.683  18.873  0.00  0.00    +0.000 C 
BRANCH  13  14
ATOM     14  C   UNL     1      26.371   5.685  17.983  0.00  0.00    +0.000 A 
ATOM     15  C   UNL     1      25.914   5.980  16.718  0.00  0.00    +0.000 A 
ATOM     16  C   UNL     1      26.626   6.760  15.772  0.00  0.00    +0.000 A 
ATOM     17  C   UNL     1      27.859   7.254  16.190  0.00  0.00    +0.000 A 
ATOM     18  C   UNL     1      28.349   6.960  17.486  0.00  0.00    +0.000 A 
ATOM     19  C   UNL     1      27.642   6.222  18.339  0.00  0.00    +0.000 A 
ATOM     20  O   UNL     1      28.045   5.900  19.622  0.00  0.00    +0.000 OA
ENDBRANCH  13  14
ENDBRANCH  12  13
ENDBRANCH   6  12
TORSDOF 3
ENDMDL
MODEL 6
REMARK VINA RESULT:      -5.7     14.640     17.690
REMARK  Name = 
REMARK  3 active torsions:
REMARK  status: ('A' for Active; 'I' for Inactive)
REMARK    1  A    between atoms: C_6  and  N_7
REMARK    2  A    between atoms: N_7  and  C_8
REMARK    3  A    between atoms: C_8  and  C_9
REMARK                            x       y       z     vdW  Elec       q    Type
REMARK                         _______ _______ _______ _____ _____    ______ ____
ROOT
ATOM      1  C   UNL     1      25.142  26.129  32.833  0.00  0.00    +0.000 C 
ATOM      2  C   UNL     1      25.219  25.721  31.421  0.00  0.00    +0.000 A 
ATOM      3  N   UNL     1      25.817  24.641  30.870  0.00  0.00    +0.000 NA
ATOM      4  C   UNL     1      25.626  24.691  29.519  0.00  0.00    +0.000 A 
ATOM      5  C   UNL     1      26.010  23.803  28.513  0.00  0.00    +0.000 A 
ATOM      6  C   UNL     1      25.652  24.071  27.229  0.00  0.00    +0.000 A 
ATOM      7  C   UNL     1      24.892  25.273  27.029  0.00  0.00    +0.000 A 
ATOM      8  C   UNL     1      24.516  26.145  28.014  0.00  0.00    +0.000 A 
ATOM      9  C   UNL     1      24.892  25.857  29.326  0.00  0.00    +0.000 A 
ATOM     10  N   UNL     1      24.642  26.496  30.459  0.00  0.00    +0.000 N 
ATOM     11  C   UNL     1      23.995  27.817  30.592  0.00  0.00    +0.000 C 
ENDROOT
BRANCH   6  12
ATOM     12  N   UNL     1      25.878  23.311  26.134  0.00  0.00    +0.000 NA
BRANCH  12  13
ATOM     13  C   UNL     1      26.765  23.204  25.083  0.00  0.00    +0.000 C 
BRANCH  13  14
ATOM     14  C   UNL     1      28.158  22.815  25.270  0.00  0.00    +0.000 A 
ATOM     15  C   UNL     1      28.725  22.440  26.468  0.00  0.00    +0.000 A 
ATOM     16  C   UNL     1      30.119  22.315  26.689  0.00  0.00    +0.000 A 
ATOM     17  C   UNL     1      30.939  22.585  25.596  0.00  0.00    +0.000 A 
ATOM     18  C   UNL     1      30.377  22.975  24.355  0.00  0.00    +0.000 A 
ATOM     19  C   UNL     1      29.059  23.078  24.198  0.00  0.00    +0.000 A 
ATOM     20  O   UNL     1      28.434  23.442  23.019  0.00  0.00    +0.000 OA
ENDBRANCH  13  14
ENDBRANCH  12  13
ENDBRANCH   6  12
TORSDOF 3
ENDMDL
MODEL 7
REMARK VINA RESULT:      -5.6     32.995     34.781
REMARK  Name = 
REMARK  3 active torsions:
REMARK  status: ('A' for Active; 'I' for Inactive)
REMARK    1  A    between atoms: C_6  and  N_7
REMARK    2  A    between atoms: N_7  and  C_8
REMARK    3  A    between atoms: C_8  and  C_9
REMARK                            x       y       z     vdW  Elec       q    Type
REMARK                         _______ _______ _______ _____ _____    ______ ____
ROOT
ATOM      1  C   UNL     1      25.637 -10.590  20.435  0.00  0.00    +0.000 C 
ATOM      2  C   UNL     1      25.047  -9.665  21.417  0.00  0.00    +0.000 A 
ATOM      3  N   UNL     1      23.772  -9.578  21.858  0.00  0.00    +0.000 NA
ATOM      4  C   UNL     1      23.704  -8.560  22.764  0.00  0.00    +0.000 A 
ATOM      5  C   UNL     1      22.632  -8.091  23.527  0.00  0.00    +0.000 A 
ATOM      6  C   UNL     1      22.844  -7.072  24.401  0.00  0.00    +0.000 A 
ATOM      7  C   UNL     1      24.186  -6.564  24.458  0.00  0.00    +0.000 A 
ATOM      8  C   UNL     1      25.237  -7.021  23.710  0.00  0.00    +0.000 A 
ATOM      9  C   UNL     1      25.003  -8.067  22.816  0.00  0.00    +0.000 A 
ATOM     10  N   UNL     1      25.827  -8.715  22.006  0.00  0.00    +0.000 N 
ATOM     11  C   UNL     1      27.237  -8.368  21.735  0.00  0.00    +0.000 C 
ENDROOT
BRANCH   6  12
ATOM     12  N   UNL     1      21.955  -6.524  25.260  0.00  0.00    +0.000 NA
BRANCH  12  13
ATOM     13  C   UNL     1      20.623  -6.174  25.326  0.00  0.00    +0.000 C 
BRANCH  13  14
ATOM     14  C   UNL     1      19.683  -6.829  26.227  0.00  0.00    +0.000 A 
ATOM     15  C   UNL     1      19.694  -8.169  26.549  0.00  0.00    +0.000 A 
ATOM     16  C   UNL     1      18.636  -8.841  27.211  0.00  0.00    +0.000 A 
ATOM     17  C   UNL     1      17.535  -8.061  27.554  0.00  0.00    +0.000 A 
ATOM     18  C   UNL     1      17.501  -6.682  27.230  0.00  0.00    +0.000 A 
ATOM     19  C   UNL     1      18.521  -6.096  26.606  0.00  0.00    +0.000 A 
ATOM     20  O   UNL     1      18.570  -4.757  26.264  0.00  0.00    +0.000 OA
ENDBRANCH  13  14
ENDBRANCH  12  13
ENDBRANCH   6  12
TORSDOF 3
ENDMDL
MODEL 8
REMARK VINA RESULT:      -5.3     32.193     34.786
REMARK  Name = 
REMARK  3 active torsions:
REMARK  status: ('A' for Active; 'I' for Inactive)
REMARK    1  A    between atoms: C_6  and  N_7
REMARK    2  A    between atoms: N_7  and  C_8
REMARK    3  A    between atoms: C_8  and  C_9
REMARK                            x       y       z     vdW  Elec       q    Type
REMARK                         _______ _______ _______ _____ _____    ______ ____
ROOT
ATOM      1  C   UNL     1      17.901   5.446  44.574  0.00  0.00    +0.000 C 
ATOM      2  C   UNL     1      17.776   6.361  43.428  0.00  0.00    +0.000 A 
ATOM      3  N   UNL     1      18.457   6.373  42.260  0.00  0.00    +0.000 NA
ATOM      4  C   UNL     1      17.995   7.415  41.509  0.00  0.00    +0.000 A 
ATOM      5  C   UNL     1      18.342   7.833  40.223  0.00  0.00    +0.000 A 
ATOM      6  C   UNL     1      17.689   8.894  39.679  0.00  0.00    +0.000 A 
ATOM      7  C   UNL     1      16.679   9.497  40.502  0.00  0.00    +0.000 A 
ATOM      8  C   UNL     1      16.338   9.090  41.763  0.00  0.00    +0.000 A 
ATOM      9  C   UNL     1      17.018   8.000  42.308  0.00  0.00    +0.000 A 
ATOM     10  N   UNL     1      16.875   7.383  43.472  0.00  0.00    +0.000 N 
ATOM     11  C   UNL     1      16.015   7.819  44.590  0.00  0.00    +0.000 C 
ENDROOT
BRANCH   6  12
ATOM     12  N   UNL     1      17.841   9.408  38.437  0.00  0.00    +0.000 NA
BRANCH  12  13
ATOM     13  C   UNL     1      17.624  10.580  37.742  0.00  0.00    +0.000 C 
BRANCH  13  14
ATOM     14  C   UNL     1      17.078  10.599  36.390  0.00  0.00    +0.000 A 
ATOM     15  C   UNL     1      17.725  10.137  35.265  0.00  0.00    +0.000 A 
ATOM     16  C   UNL     1      17.301  10.393  33.937  0.00  0.00    +0.000 A 
ATOM     17  C   UNL     1      16.143  11.154  33.800  0.00  0.00    +0.000 A 
ATOM     18  C   UNL     1      15.464  11.642  34.943  0.00  0.00    +0.000 A 
ATOM     19  C   UNL     1      15.902  11.375  36.171  0.00  0.00    +0.000 A 
ATOM     20  O   UNL     1      15.292  11.804  37.336  0.00  0.00    +0.000 OA
ENDBRANCH  13  14
ENDBRANCH  12  13
ENDBRANCH   6  12
TORSDOF 3
ENDMDL
MODEL 9
REMARK VINA RESULT:      -5.3     15.166     18.184
REMARK  Name = 
REMARK  3 active torsions:
REMARK  status: ('A' for Active; 'I' for Inactive)
REMARK    1  A    between atoms: C_6  and  N_7
REMARK    2  A    between atoms: N_7  and  C_8
REMARK    3  A    between atoms: C_8  and  C_9
REMARK                            x       y       z     vdW  Elec       q    Type
REMARK                         _______ _______ _______ _____ _____    ______ ____
ROOT
ATOM      1  C   UNL     1      24.889  26.598  32.689  0.00  0.00    +0.000 C 
ATOM      2  C   UNL     1      25.638  25.680  31.815  0.00  0.00    +0.000 A 
ATOM      3  N   UNL     1      25.256  25.089  30.661  0.00  0.00    +0.000 NA
ATOM      4  C   UNL     1      26.291  24.318  30.215  0.00  0.00    +0.000 A 
ATOM      5  C   UNL     1      26.414  23.540  29.062  0.00  0.00    +0.000 A 
ATOM      6  C   UNL     1      27.586  22.892  28.829  0.00  0.00    +0.000 A 
ATOM      7  C   UNL     1      28.611  23.077  29.818  0.00  0.00    +0.000 A 
ATOM      8  C   UNL     1      28.491  23.837  30.949  0.00  0.00    +0.000 A 
ATOM      9  C   UNL     1      27.281  24.495  31.175  0.00  0.00    +0.000 A 
ATOM     10  N   UNL     1      26.905  25.307  32.151  0.00  0.00    +0.000 N 
ATOM     11  C   UNL     1      27.670  25.609  33.378  0.00  0.00    +0.000 C 
ENDROOT
BRANCH   6  12
ATOM     12  N   UNL     1      27.916  22.145  27.751  0.00  0.00    +0.000 NA
BRANCH  12  13
ATOM     13  C   UNL     1      28.459  22.286  26.491  0.00  0.00    +0.000 C 
BRANCH  13  14
ATOM     14  C   UNL     1      27.721  22.879  25.381  0.00  0.00    +0.000 A 
ATOM     15  C   UNL     1      26.348  22.954  25.290  0.00  0.00    +0.000 A 
ATOM     16  C   UNL     1      25.643  23.291  24.107  0.00  0.00    +0.000 A 
ATOM     17  C   UNL     1      26.423  23.573  22.989  0.00  0.00    +0.000 A 
ATOM     18  C   UNL     1      27.836  23.499  23.060  0.00  0.00    +0.000 A 
ATOM     19  C   UNL     1      28.452  23.176  24.195  0.00  0.00    +0.000 A 
ATOM     20  O   UNL     1      29.824  23.093  24.349  0.00  0.00    +0.000 OA
ENDBRANCH  13  14
ENDBRANCH  12  13
ENDBRANCH   6  12
TORSDOF 3
ENDMDL
MODEL 10
REMARK VINA RESULT:      -5.3     14.294     16.885
REMARK  Name = 
REMARK  3 active torsions:
REMARK  status: ('A' for Active; 'I' for Inactive)
REMARK    1  A    between atoms: C_6  and  N_7
REMARK    2  A    between atoms: N_7  and  C_8
REMARK    3  A    between atoms: C_8  and  C_9
REMARK                            x       y       z     vdW  Elec       q    Type
REMARK                         _______ _______ _______ _____ _____    ______ ____
ROOT
ATOM      1  C   UNL     1      34.163  27.152  25.341  0.00  0.00    +0.000 C 
ATOM      2  C   UNL     1      33.056  26.186  25.254  0.00  0.00    +0.000 A 
ATOM      3  N   UNL     1      31.744  26.355  25.538  0.00  0.00    +0.000 NA
ATOM      4  C   UNL     1      31.104  25.171  25.309  0.00  0.00    +0.000 A 
ATOM      5  C   UNL     1      29.753  24.833  25.416  0.00  0.00    +0.000 A 
ATOM      6  C   UNL     1      29.364  23.574  25.082  0.00  0.00    +0.000 A 
ATOM      7  C   UNL     1      30.407  22.692  24.639  0.00  0.00    +0.000 A 
ATOM      8  C   UNL     1      31.731  23.022  24.535  0.00  0.00    +0.000 A 
ATOM      9  C   UNL     1      32.116  24.317  24.883  0.00  0.00    +0.000 A 
ATOM     10  N   UNL     1      33.300  24.909  24.848  0.00  0.00    +0.000 N 
ATOM     11  C   UNL     1      34.593  24.255  24.558  0.00  0.00    +0.000 C 
ENDROOT
BRANCH   6  12
ATOM     12  N   UNL     1      28.107  23.077  25.064  0.00  0.00    +0.000 NA
BRANCH  12  13
ATOM     13  C   UNL     1      27.086  22.745  25.931  0.00  0.00    +0.000 C 
BRANCH  13  14
ATOM     14  C   UNL     1      27.150  23.024  27.360  0.00  0.00    +0.000 A 
ATOM     15  C   UNL     1      28.014  22.422  28.249  0.00  0.00    +0.000 A 
ATOM     16  C   UNL     1      27.896  22.505  29.659  0.00  0.00    +0.000 A 
ATOM     17  C   UNL     1      26.833  23.265  30.141  0.00  0.00    +0.000 A 
ATOM     18  C   UNL     1      25.931  23.890  29.245  0.00  0.00    +0.000 A 
ATOM     19  C   UNL     1      26.084  23.781  27.927  0.00  0.00    +0.000 A 
ATOM     20  O   UNL     1      25.255  24.367  26.988  0.00  0.00    +0.000 OA
ENDBRANCH  13  14
ENDBRANCH  12  13
ENDBRANCH   6  12
TORSDOF 3
ENDMDL
