MODEL 1
REMARK VINA RESULT:      -7.5      0.000      0.000
REMARK  Name = 
REMARK  0 active torsions:
REMARK  status: ('A' for Active; 'I' for Inactive)
REMARK                            x       y       z     vdW  Elec       q    Type
REMARK                         _______ _______ _______ _____ _____    ______ ____
ROOT
ATOM      1  C   UNL     1      28.194  25.954  23.621  0.00  0.00    +0.000 C 
ATOM      2  C   UNL     1      27.481  24.772  23.450  0.00  0.00    +0.000 C 
ATOM      3  C   UNL     1      26.267  24.383  24.142  0.00  0.00    +0.000 C 
ATOM      4  C   UNL     1      26.417  23.998  25.576  0.00  0.00    +0.000 C 
ATOM      5  C   UNL     1      27.497  22.792  25.689  0.00  0.00    +0.000 C 
ATOM      6  C   UNL     1      27.737  22.855  27.210  0.00  0.00    +0.000 A 
ATOM      7  C   UNL     1      26.730  23.147  28.084  0.00  0.00    +0.000 A 
ATOM      8  C   UNL     1      26.975  23.203  29.470  0.00  0.00    +0.000 A 
ATOM      9  O   UNL     1      25.948  23.500  30.357  0.00  0.00    +0.000 OA
ATOM     10  C   UNL     1      28.240  22.959  29.954  0.00  0.00    +0.000 A 
ATOM     11  O   UNL     1      28.484  23.015  31.343  0.00  0.00    +0.000 OA
ATOM     12  C   UNL     1      29.247  22.667  29.070  0.00  0.00    +0.000 A 
ATOM     13  C   UNL     1      28.987  22.615  27.678  0.00  0.00    +0.000 A 
ATOM     14  C   UNL     1      30.118  22.288  26.776  0.00  0.00    +0.000 C 
ATOM     15  C   UNL     1      29.875  22.624  25.331  0.00  0.00    +0.000 C 
ATOM     16  C   UNL     1      28.786  23.786  25.241  0.00  0.00    +0.000 C 
ATOM     17  C   UNL     1      28.397  23.420  23.621  0.00  0.00    +0.000 C 
ATOM     18  C   UNL     1      29.631  24.189  22.928  0.00  0.00    +0.000 C 
ATOM     19  C   UNL     1      29.021  24.425  21.611  0.00  0.00    +0.000 C 
ATOM     20  C   UNL     1      27.390  24.319  21.873  0.00  0.00    +0.000 C 
ATOM     21  O   UNL     1      27.154  25.736  21.345  0.00  0.00    +0.000 OA
ENDROOT
TORSDOF 0
ENDMDL
MODEL 2
REMARK VINA RESULT:      -7.4      2.059      6.552
REMARK  Name = 
REMARK  0 active torsions:
REMARK  status: ('A' for Active; 'I' for Inactive)
REMARK                            x       y       z     vdW  Elec       q    Type
REMARK                         _______ _______ _______ _____ _____    ______ ____
ROOT
ATOM      1  C   UNL     1      30.790  24.713  28.555  0.00  0.00    +0.000 C 
ATOM      2  C   UNL     1      31.160  23.456  28.087  0.00  0.00    +0.000 C 
ATOM      3  C   UNL     1      31.877  23.164  26.861  0.00  0.00    +0.000 C 
ATOM      4  C   UNL     1      31.111  23.329  25.590  0.00  0.00    +0.000 C 
ATOM      5  C   UNL     1      29.778  22.407  25.654  0.00  0.00    +0.000 C 
ATOM      6  C   UNL     1      29.024  23.030  24.463  0.00  0.00    +0.000 A 
ATOM      7  C   UNL     1      29.679  23.461  23.346  0.00  0.00    +0.000 A 
ATOM      8  C   UNL     1      28.968  24.032  22.272  0.00  0.00    +0.000 A 
ATOM      9  O   UNL     1      29.637  24.470  21.135  0.00  0.00    +0.000 OA
ATOM     10  C   UNL     1      27.599  24.157  22.343  0.00  0.00    +0.000 A 
ATOM     11  O   UNL     1      26.888  24.729  21.266  0.00  0.00    +0.000 OA
ATOM     12  C   UNL     1      26.948  23.722  23.469  0.00  0.00    +0.000 A 
ATOM     13  C   UNL     1      27.675  23.151  24.543  0.00  0.00    +0.000 A 
ATOM     14  C   UNL     1      26.911  22.696  25.729  0.00  0.00    +0.000 C 
ATOM     15  C   UNL     1      27.750  22.467  26.956  0.00  0.00    +0.000 C 
ATOM     16  C   UNL     1      29.071  23.356  26.858  0.00  0.00    +0.000 C 
ATOM     17  C   UNL     1      29.911  22.395  27.991  0.00  0.00    +0.000 C 
ATOM     18  C   UNL     1      29.280  23.043  29.325  0.00  0.00    +0.000 C 
ATOM     19  C   UNL     1      30.371  22.714  30.255  0.00  0.00    +0.000 C 
ATOM     20  C   UNL     1      31.695  22.473  29.291  0.00  0.00    +0.000 C 
ATOM     21  O   UNL     1      32.489  23.568  30.008  0.00  0.00    +0.000 OA
ENDROOT
TORSDOF 0
ENDMDL
MODEL 3
REMARK VINA RESULT:      -7.4     21.292     23.909
REMARK  Name = 
REMARK  0 active torsions:
REMARK  status: ('A' for Active; 'I' for Inactive)
REMARK                            x       y       z     vdW  Elec       q    Type
REMARK                         _______ _______ _______ _____ _____    ______ ____
ROOT
ATOM      1  C   UNL     1      37.303   5.432  36.120  0.00  0.00    +0.000 C 
ATOM      2  C   UNL     1      36.139   5.493  36.879  0.00  0.00    +0.000 C 
ATOM      3  C   UNL     1      35.666   4.498  37.822  0.00  0.00    +0.000 C 
ATOM      4  C   UNL     1      35.130   3.233  37.238  0.00  0.00    +0.000 C 
ATOM      5  C   UNL     1      33.930   3.595  36.206  0.00  0.00    +0.000 C 
ATOM      6  C   UNL     1      33.831   2.229  35.499  0.00  0.00    +0.000 A 
ATOM      7  C   UNL     1      34.018   1.057  36.172  0.00  0.00    +0.000 A 
ATOM      8  C   UNL     1      33.927  -0.179  35.503  0.00  0.00    +0.000 A 
ATOM      9  O   UNL     1      34.117  -1.371  36.190  0.00  0.00    +0.000 OA
ATOM     10  C   UNL     1      33.646  -0.211  34.155  0.00  0.00    +0.000 A 
ATOM     11  O   UNL     1      33.555  -1.450  33.485  0.00  0.00    +0.000 OA
ATOM     12  C   UNL     1      33.461   0.971  33.485  0.00  0.00    +0.000 A 
ATOM     13  C   UNL     1      33.556   2.207  34.171  0.00  0.00    +0.000 A 
ATOM     14  C   UNL     1      33.339   3.449  33.389  0.00  0.00    +0.000 C 
ATOM     15  C   UNL     1      33.826   4.700  34.067  0.00  0.00    +0.000 C 
ATOM     16  C   UNL     1      34.980   4.319  35.100  0.00  0.00    +0.000 C 
ATOM     17  C   UNL     1      34.786   5.763  35.988  0.00  0.00    +0.000 C 
ATOM     18  C   UNL     1      35.638   6.725  35.016  0.00  0.00    +0.000 C 
ATOM     19  C   UNL     1      36.007   7.750  36.005  0.00  0.00    +0.000 C 
ATOM     20  C   UNL     1      35.857   6.999  37.473  0.00  0.00    +0.000 C 
ATOM     21  O   UNL     1      37.320   7.273  37.828  0.00  0.00    +0.000 OA
ENDROOT
TORSDOF 0
ENDMDL
MODEL 4
REMARK VINA RESULT:      -7.4      1.298      6.600
REMARK  Name = 
REMARK  0 active torsions:
REMARK  status: ('A' for Active; 'I' for Inactive)
REMARK                            x       y       z     vdW  Elec       q    Type
REMARK                         _______ _______ _______ _____ _____    ______ ____
ROOT
ATOM      1  C   UNL     1      28.609  24.082  29.015  0.00  0.00    +0.000 C 
ATOM      2  C   UNL     1      27.955  22.966  28.503  0.00  0.00    +0.000 C 
ATOM      3  C   UNL     1      28.437  22.081  27.460  0.00  0.00    +0.000 C 
ATOM      4  C   UNL     1      28.430  22.629  26.071  0.00  0.00    +0.000 C 
ATOM      5  C   UNL     1      26.925  23.110  25.701  0.00  0.00    +0.000 C 
ATOM      6  C   UNL     1      27.263  23.940  24.447  0.00  0.00    +0.000 A 
ATOM      7  C   UNL     1      28.247  23.562  23.580  0.00  0.00    +0.000 A 
ATOM      8  C   UNL     1      28.540  24.339  22.443  0.00  0.00    +0.000 A 
ATOM      9  O   UNL     1      29.543  23.952  21.561  0.00  0.00    +0.000 OA
ATOM     10  C   UNL     1      27.830  25.492  22.197  0.00  0.00    +0.000 A 
ATOM     11  O   UNL     1      28.125  26.271  21.057  0.00  0.00    +0.000 OA
ATOM     12  C   UNL     1      26.843  25.866  23.073  0.00  0.00    +0.000 A 
ATOM     13  C   UNL     1      26.559  25.075  24.213  0.00  0.00    +0.000 A 
ATOM     14  C   UNL     1      25.476  25.532  25.118  0.00  0.00    +0.000 C 
ATOM     15  C   UNL     1      25.487  24.883  26.475  0.00  0.00    +0.000 C 
ATOM     16  C   UNL     1      26.967  24.387  26.804  0.00  0.00    +0.000 C 
ATOM     17  C   UNL     1      26.429  23.277  27.983  0.00  0.00    +0.000 C 
ATOM     18  C   UNL     1      26.248  24.325  29.193  0.00  0.00    +0.000 C 
ATOM     19  C   UNL     1      26.397  23.382  30.312  0.00  0.00    +0.000 C 
ATOM     20  C   UNL     1      27.207  22.087  29.674  0.00  0.00    +0.000 C 
ATOM     21  O   UNL     1      28.347  22.225  30.686  0.00  0.00    +0.000 OA
ENDROOT
TORSDOF 0
ENDMDL
MODEL 5
REMARK VINA RESULT:      -7.2      1.491      2.069
REMARK  Name = 
REMARK  0 active torsions:
REMARK  status: ('A' for Active; 'I' for Inactive)
REMARK                            x       y       z     vdW  Elec       q    Type
REMARK                         _______ _______ _______ _____ _____    ______ ____
ROOT
ATOM      1  C   UNL     1      28.326  25.535  24.123  0.00  0.00    +0.000 C 
ATOM      2  C   UNL     1      27.132  24.832  23.999  0.00  0.00    +0.000 C 
ATOM      3  C   UNL     1      25.827  25.251  24.471  0.00  0.00    +0.000 C 
ATOM      4  C   UNL     1      25.611  25.211  25.947  0.00  0.00    +0.000 C 
ATOM      5  C   UNL     1      25.908  23.708  26.483  0.00  0.00    +0.000 C 
ATOM      6  C   UNL     1      25.988  24.026  27.990  0.00  0.00    +0.000 A 
ATOM      7  C   UNL     1      25.188  24.967  28.568  0.00  0.00    +0.000 A 
ATOM      8  C   UNL     1      25.283  25.242  29.946  0.00  0.00    +0.000 A 
ATOM      9  O   UNL     1      24.466  26.201  30.533  0.00  0.00    +0.000 OA
ATOM     10  C   UNL     1      26.190  24.557  30.723  0.00  0.00    +0.000 A 
ATOM     11  O   UNL     1      26.285  24.834  32.103  0.00  0.00    +0.000 OA
ATOM     12  C   UNL     1      26.992  23.613  30.133  0.00  0.00    +0.000 A 
ATOM     13  C   UNL     1      26.886  23.347  28.746  0.00  0.00    +0.000 A 
ATOM     14  C   UNL     1      27.778  22.310  28.172  0.00  0.00    +0.000 C 
ATOM     15  C   UNL     1      27.890  22.349  26.673  0.00  0.00    +0.000 C 
ATOM     16  C   UNL     1      27.561  23.826  26.164  0.00  0.00    +0.000 C 
ATOM     17  C   UNL     1      27.208  23.298  24.580  0.00  0.00    +0.000 C 
ATOM     18  C   UNL     1      28.726  23.190  24.051  0.00  0.00    +0.000 C 
ATOM     19  C   UNL     1      28.459  23.352  22.613  0.00  0.00    +0.000 C 
ATOM     20  C   UNL     1      26.985  24.101  22.535  0.00  0.00    +0.000 C 
ATOM     21  O   UNL     1      27.560  25.279  21.745  0.00  0.00    +0.000 OA
ENDROOT
TORSDOF 0
ENDMDL
MODEL 6
REMARK VINA RESULT:      -7.0     21.316     22.464
REMARK  Name = 
REMARK  0 active torsions:
REMARK  status: ('A' for Active; 'I' for Inactive)
REMARK                            x       y       z     vdW  Elec       q    Type
REMARK                         _______ _______ _______ _____ _____    ______ ____
ROOT
ATOM      1  C   UNL     1      26.024   6.901  17.161  0.00  0.00    +0.000 C 
ATOM      2  C   UNL     1      26.631   5.794  16.578  0.00  0.00    +0.000 C 
ATOM      3  C   UNL     1      26.345   5.235  15.271  0.00  0.00    +0.000 C 
ATOM      4  C   UNL     1      25.051   4.504  15.133  0.00  0.00    +0.000 C 
ATOM      5  C   UNL     1      24.994   3.317  16.238  0.00  0.00    +0.000 C 
ATOM      6  C   UNL     1      23.489   2.998  16.139  0.00  0.00    +0.000 A 
ATOM      7  C   UNL     1      22.820   3.055  14.951  0.00  0.00    +0.000 A 
ATOM      8  C   UNL     1      21.444   2.763  14.887  0.00  0.00    +0.000 A 
ATOM      9  O   UNL     1      20.765   2.821  13.677  0.00  0.00    +0.000 OA
ATOM     10  C   UNL     1      20.761   2.416  16.032  0.00  0.00    +0.000 A 
ATOM     11  O   UNL     1      19.382   2.125  15.967  0.00  0.00    +0.000 OA
ATOM     12  C   UNL     1      21.441   2.362  17.222  0.00  0.00    +0.000 A 
ATOM     13  C   UNL     1      22.825   2.659  17.272  0.00  0.00    +0.000 A 
ATOM     14  C   UNL     1      23.502   2.576  18.589  0.00  0.00    +0.000 C 
ATOM     15  C   UNL     1      24.839   3.262  18.643  0.00  0.00    +0.000 C 
ATOM     16  C   UNL     1      24.887   4.401  17.527  0.00  0.00    +0.000 C 
ATOM     17  C   UNL     1      26.592   4.449  17.520  0.00  0.00    +0.000 C 
ATOM     18  C   UNL     1      26.782   5.377  18.824  0.00  0.00    +0.000 C 
ATOM     19  C   UNL     1      28.106   5.930  18.497  0.00  0.00    +0.000 C 
ATOM     20  C   UNL     1      28.250   5.750  16.858  0.00  0.00    +0.000 C 
ATOM     21  O   UNL     1      28.458   7.252  16.652  0.00  0.00    +0.000 OA
ENDROOT
TORSDOF 0
ENDMDL
MODEL 7
REMARK VINA RESULT:      -7.0      3.042      5.871
REMARK  Name = 
REMARK  0 active torsions:
REMARK  status: ('A' for Active; 'I' for Inactive)
REMARK                            x       y       z     vdW  Elec       q    Type
REMARK                         _______ _______ _______ _____ _____    ______ ____
ROOT
ATOM      1  C   UNL     1      32.245  25.926  26.874  0.00  0.00    +0.000 C 
ATOM      2  C   UNL     1      32.676  24.716  26.339  0.00  0.00    +0.000 C 
ATOM      3  C   UNL     1      32.605  24.308  24.950  0.00  0.00    +0.000 C 
ATOM      4  C   UNL     1      31.248  23.969  24.428  0.00  0.00    +0.000 C 
ATOM      5  C   UNL     1      30.602  22.803  25.354  0.00  0.00    +0.000 C 
ATOM      6  C   UNL     1      29.145  22.918  24.864  0.00  0.00    +0.000 A 
ATOM      7  C   UNL     1      28.845  23.202  23.563  0.00  0.00    +0.000 A 
ATOM      8  C   UNL     1      27.506  23.305  23.141  0.00  0.00    +0.000 A 
ATOM      9  O   UNL     1      27.203  23.594  21.816  0.00  0.00    +0.000 OA
ATOM     10  C   UNL     1      26.484  23.118  24.044  0.00  0.00    +0.000 A 
ATOM     11  O   UNL     1      25.142  23.222  23.620  0.00  0.00    +0.000 OA
ATOM     12  C   UNL     1      26.793  22.834  25.350  0.00  0.00    +0.000 A 
ATOM     13  C   UNL     1      28.145  22.733  25.761  0.00  0.00    +0.000 A 
ATOM     14  C   UNL     1      28.411  22.418  27.186  0.00  0.00    +0.000 C 
ATOM     15  C   UNL     1      29.819  22.704  27.632  0.00  0.00    +0.000 C 
ATOM     16  C   UNL     1      30.447  23.827  26.688  0.00  0.00    +0.000 C 
ATOM     17  C   UNL     1      32.048  23.401  27.095  0.00  0.00    +0.000 C 
ATOM     18  C   UNL     1      32.126  24.191  28.497  0.00  0.00    +0.000 C 
ATOM     19  C   UNL     1      33.585  24.368  28.559  0.00  0.00    +0.000 C 
ATOM     20  C   UNL     1      34.099  24.216  26.993  0.00  0.00    +0.000 C 
ATOM     21  O   UNL     1      34.733  25.608  27.003  0.00  0.00    +0.000 OA
ENDROOT
TORSDOF 0
ENDMDL
MODEL 8
REMARK VINA RESULT:      -6.9     19.886     23.288
REMARK  Name = 
REMARK  0 active torsions:
REMARK  status: ('A' for Active; 'I' for Inactive)
REMARK                            x       y       z     vdW  Elec       q    Type
REMARK                         _______ _______ _______ _____ _____    ______ ____
ROOT
ATOM      1  C   UNL     1      16.876   6.482  41.167  0.00  0.00    +0.000 C 
ATOM      2  C   UNL     1      17.086   7.742  41.718  0.00  0.00    +0.000 C 
ATOM      3  C   UNL     1      16.175   8.869  41.677  0.00  0.00    +0.000 C 
ATOM      4  C   UNL     1      16.026   9.553  40.358  0.00  0.00    +0.000 C 
ATOM      5  C   UNL     1      17.489  10.038  39.847  0.00  0.00    +0.000 C 
ATOM      6  C   UNL     1      17.119  10.340  38.381  0.00  0.00    +0.000 A 
ATOM      7  C   UNL     1      15.908  10.867  38.041  0.00  0.00    +0.000 A 
ATOM      8  C   UNL     1      15.591  11.131  36.694  0.00  0.00    +0.000 A 
ATOM      9  O   UNL     1      14.357  11.668  36.350  0.00  0.00    +0.000 OA
ATOM     10  C   UNL     1      16.511  10.856  35.706  0.00  0.00    +0.000 A 
ATOM     11  O   UNL     1      16.193  11.120  34.357  0.00  0.00    +0.000 OA
ATOM     12  C   UNL     1      17.726  10.325  36.057  0.00  0.00    +0.000 A 
ATOM     13  C   UNL     1      18.030  10.065  37.415  0.00  0.00    +0.000 A 
ATOM     14  C   UNL     1      19.364   9.495  37.727  0.00  0.00    +0.000 C 
ATOM     15  C   UNL     1      19.475   8.894  39.101  0.00  0.00    +0.000 C 
ATOM     16  C   UNL     1      18.024   8.456  39.598  0.00  0.00    +0.000 C 
ATOM     17  C   UNL     1      18.491   8.444  41.239  0.00  0.00    +0.000 C 
ATOM     18  C   UNL     1      19.198   6.997  41.247  0.00  0.00    +0.000 C 
ATOM     19  C   UNL     1      19.050   6.698  42.680  0.00  0.00    +0.000 C 
ATOM     20  C   UNL     1      17.810   7.667  43.192  0.00  0.00    +0.000 C 
ATOM     21  O   UNL     1      16.993   6.466  43.675  0.00  0.00    +0.000 OA
ENDROOT
TORSDOF 0
ENDMDL
MODEL 9
REMARK VINA RESULT:      -6.7      2.407      3.486
REMARK  Name = 
REMARK  0 active torsions:
REMARK  status: ('A' for Active; 'I' for Inactive)
REMARK                            x       y       z     vdW  Elec       q    Type
REMARK                         _______ _______ _______ _____ _____    ______ ____
ROOT
ATOM      1  C   UNL     1      27.009  24.966  25.310  0.00  0.00    +0.000 C 
ATOM      2  C   UNL     1      27.263  23.639  24.976  0.00  0.00    +0.000 C 
ATOM      3  C   UNL     1      27.387  22.523  25.893  0.00  0.00    +0.000 C 
ATOM      4  C   UNL     1      28.631  22.476  26.716  0.00  0.00    +0.000 C 
ATOM      5  C   UNL     1      29.919  22.492  25.728  0.00  0.00    +0.000 C 
ATOM      6  C   UNL     1      30.998  22.815  26.780  0.00  0.00    +0.000 A 
ATOM      7  C   UNL     1      30.935  22.315  28.049  0.00  0.00    +0.000 A 
ATOM      8  C   UNL     1      31.931  22.628  28.994  0.00  0.00    +0.000 A 
ATOM      9  O   UNL     1      31.865  22.118  30.285  0.00  0.00    +0.000 OA
ATOM     10  C   UNL     1      32.982  23.444  28.641  0.00  0.00    +0.000 A 
ATOM     11  O   UNL     1      33.979  23.757  29.589  0.00  0.00    +0.000 OA
ATOM     12  C   UNL     1      33.037  23.943  27.364  0.00  0.00    +0.000 A 
ATOM     13  C   UNL     1      32.028  23.621  26.423  0.00  0.00    +0.000 A 
ATOM     14  C   UNL     1      32.150  24.188  25.058  0.00  0.00    +0.000 C 
ATOM     15  C   UNL     1      30.885  24.132  24.248  0.00  0.00    +0.000 C 
ATOM     16  C   UNL     1      29.634  24.082  25.238  0.00  0.00    +0.000 C 
ATOM     17  C   UNL     1      28.599  23.440  24.042  0.00  0.00    +0.000 C 
ATOM     18  C   UNL     1      28.260  24.824  23.291  0.00  0.00    +0.000 C 
ATOM     19  C   UNL     1      26.968  24.435  22.706  0.00  0.00    +0.000 C 
ATOM     20  C   UNL     1      26.446  23.166  23.631  0.00  0.00    +0.000 C 
ATOM     21  O   UNL     1      25.152  23.892  24.004  0.00  0.00    +0.000 OA
ENDROOT
TORSDOF 0
ENDMDL
MODEL 10
REMARK VINA RESULT:      -6.7      1.688      6.226
REMARK  Name = 
REMARK  0 active torsions:
REMARK  status: ('A' for Active; 'I' for Inactive)
REMARK                            x       y       z     vdW  Elec       q    Type
REMARK                         _______ _______ _______ _____ _____    ______ ____
ROOT
ATOM      1  C   UNL     1      25.805  23.787  28.460  0.00  0.00    +0.000 C 
ATOM      2  C   UNL     1      26.938  24.483  28.868  0.00  0.00    +0.000 C 
ATOM      3  C   UNL     1      27.380  25.778  28.387  0.00  0.00    +0.000 C 
ATOM      4  C   UNL     1      27.948  25.813  27.006  0.00  0.00    +0.000 C 
ATOM      5  C   UNL     1      29.185  24.766  26.918  0.00  0.00    +0.000 C 
ATOM      6  C   UNL     1      29.322  24.719  25.383  0.00  0.00    +0.000 A 
ATOM      7  C   UNL     1      29.117  25.824  24.610  0.00  0.00    +0.000 A 
ATOM      8  C   UNL     1      29.244  25.755  23.209  0.00  0.00    +0.000 A 
ATOM      9  O   UNL     1      29.035  26.882  22.424  0.00  0.00    +0.000 OA
ATOM     10  C   UNL     1      29.578  24.563  22.608  0.00  0.00    +0.000 A 
ATOM     11  O   UNL     1      29.705  24.494  21.204  0.00  0.00    +0.000 OA
ATOM     12  C   UNL     1      29.782  23.455  23.392  0.00  0.00    +0.000 A 
ATOM     13  C   UNL     1      29.650  23.539  24.800  0.00  0.00    +0.000 A 
ATOM     14  C   UNL     1      29.889  22.307  25.590  0.00  0.00    +0.000 C 
ATOM     15  C   UNL     1      29.367  22.364  26.999  0.00  0.00    +0.000 C 
ATOM     16  C   UNL     1      28.175  23.422  27.072  0.00  0.00    +0.000 C 
ATOM     17  C   UNL     1      28.323  23.608  28.761  0.00  0.00    +0.000 C 
ATOM     18  C   UNL     1      27.504  22.290  29.192  0.00  0.00    +0.000 C 
ATOM     19  C   UNL     1      27.088  22.728  30.533  0.00  0.00    +0.000 C 
ATOM     20  C   UNL     1      27.185  24.380  30.490  0.00  0.00    +0.000 C 
ATOM     21  O   UNL     1      25.707  24.535  30.855  0.00  0.00    +0.000 OA
ENDROOT
TORSDOF 0
ENDMDL
