MODEL 1
REMARK VINA RESULT:      -7.0      0.000      0.000
REMARK  Name = 
REMARK  7 active torsions:
REMARK  status: ('A' for Active; 'I' for Inactive)
REMARK    1  A    between atoms: C_2  and  O_3
REMARK    2  A    between atoms: O_3  and  C_4
REMARK    3  A    between atoms: C_9  and  N_10
REMARK    4  A    between atoms: C_11  and  C_13
REMARK    5  A    between atoms: C_14  and  N_15
REMARK    6  A    between atoms: N_15  and  C_16
REMARK    7  A    between atoms: C_16  and  C_17
REMARK                            x       y       z     vdW  Elec       q    Type
REMARK                         _______ _______ _______ _____ _____    ______ ____
ROOT
ATOM      1  C   UNL     1      36.233   1.718  14.986  0.00  0.00    +0.000 A 
ATOM      2  C   UNL     1      35.246   1.605  15.917  0.00  0.00    +0.000 A 
ATOM      3  S   UNL     1      34.420   3.129  15.762  0.00  0.00    +0.000 S 
ATOM      4  C   UNL     1      35.377   3.826  14.525  0.00  0.00    +0.000 A 
ATOM      5  C   UNL     1      36.296   2.875  14.269  0.00  0.00    +0.000 A 
ATOM      6  C   UNL     1      37.342   3.175  13.192  0.00  0.00    +0.000 C 
ATOM      7  C   UNL     1      36.748   4.208  12.291  0.00  0.00    +0.000 C 
ATOM      8  C   UNL     1      36.781   5.507  13.343  0.00  0.00    +0.000 C 
ATOM      9  C   UNL     1      36.272   6.552  12.168  0.00  0.00    +0.000 C 
ATOM     10  C   UNL     1      35.263   5.172  13.841  0.00  0.00    +0.000 C 
ENDROOT
BRANCH   1  12
ATOM     11  N   UNL     1      38.498   0.575  15.196  0.00  0.00    +0.000 NA
ATOM     12  C   UNL     1      37.147   0.563  14.744  0.00  0.00    +0.000 C 
ATOM     13  O   UNL     1      36.789  -0.465  14.141  0.00  0.00    +0.000 OA
BRANCH  11  19
ATOM     14  C   UNL     1      40.244  -0.537  13.896  0.00  0.00    +0.000 A 
ATOM     15  C   UNL     1      41.090  -1.604  13.637  0.00  0.00    +0.000 A 
ATOM     16  C   UNL     1      41.016  -2.692  14.491  0.00  0.00    +0.000 A 
ATOM     17  C   UNL     1      40.148  -2.736  15.560  0.00  0.00    +0.000 A 
ATOM     18  C   UNL     1      39.330  -1.654  15.773  0.00  0.00    +0.000 A 
ATOM     19  C   UNL     1      39.359  -0.542  14.953  0.00  0.00    +0.000 A 
BRANCH  14  20
ATOM     20  O   UNL     1      40.262   0.601  13.073  0.00  0.00    +0.000 OA
BRANCH  20  22
ATOM     21  C   UNL     1      38.728   0.271  11.303  0.00  0.00    +0.000 C 
ATOM     22  C   UNL     1      40.200   0.482  11.665  0.00  0.00    +0.000 C 
ENDBRANCH  20  22
ENDBRANCH  14  20
ENDBRANCH  11  19
ENDBRANCH   1  12
BRANCH   2  23
ATOM     23  N   UNL     1      34.860   0.665  16.879  0.00  0.00    +0.000 NA
BRANCH  23  24
ATOM     24  C   UNL     1      34.631  -0.682  16.987  0.00  0.00    +0.000 C 
BRANCH  24  25
ATOM     25  C   UNL     1      35.788  -1.358  17.685  0.00  0.00    +0.000 A 
ATOM     26  C   UNL     1      36.453  -0.685  18.688  0.00  0.00    +0.000 A 
ATOM     27  C   UNL     1      37.504  -1.347  19.297  0.00  0.00    +0.000 A 
ATOM     28  C   UNL     1      37.881  -2.619  18.926  0.00  0.00    +0.000 A 
ATOM     29  N   UNL     1      37.197  -3.237  17.935  0.00  0.00    +0.000 NA
ATOM     30  C   UNL     1      36.168  -2.632  17.315  0.00  0.00    +0.000 A 
ENDBRANCH  24  25
ENDBRANCH  23  24
ENDBRANCH   2  23
TORSDOF 7
ENDMDL
MODEL 2
REMARK VINA RESULT:      -6.8      2.801      6.512
REMARK  Name = 
REMARK  7 active torsions:
REMARK  status: ('A' for Active; 'I' for Inactive)
REMARK    1  A    between atoms: C_2  and  O_3
REMARK    2  A    between atoms: O_3  and  C_4
REMARK    3  A    between atoms: C_9  and  N_10
REMARK    4  A    between atoms: C_11  and  C_13
REMARK    5  A    between atoms: C_14  and  N_15
REMARK    6  A    between atoms: N_15  and  C_16
REMARK    7  A    between atoms: C_16  and  C_17
REMARK                            x       y       z     vdW  Elec       q    Type
REMARK                         _______ _______ _______ _____ _____    ______ ____
ROOT
ATOM      1  C   UNL     1      39.482   0.754  14.102  0.00  0.00    +0.000 A 
ATOM      2  C   UNL     1      39.555   2.009  13.580  0.00  0.00    +0.000 A 
ATOM      3  S   UNL     1      41.213   2.094  13.061  0.00  0.00    +0.000 S 
ATOM      4  C   UNL     1      41.722   0.530  13.540  0.00  0.00    +0.000 A 
ATOM      5  C   UNL     1      40.612  -0.007  14.080  0.00  0.00    +0.000 A 
ATOM      6  C   UNL     1      40.711  -1.432  14.630  0.00  0.00    +0.000 C 
ATOM      7  C   UNL     1      41.852  -2.088  13.923  0.00  0.00    +0.000 C 
ATOM      8  C   UNL     1      43.106  -1.232  14.624  0.00  0.00    +0.000 C 
ATOM      9  C   UNL     1      44.245  -2.173  13.882  0.00  0.00    +0.000 C 
ATOM     10  C   UNL     1      43.072  -0.142  13.409  0.00  0.00    +0.000 C 
ENDROOT
BRANCH   1  12
ATOM     11  N   UNL     1      37.965  -0.044  15.985  0.00  0.00    +0.000 NA
ATOM     12  C   UNL     1      38.171   0.246  14.605  0.00  0.00    +0.000 C 
ATOM     13  O   UNL     1      37.194   0.048  13.860  0.00  0.00    +0.000 OA
BRANCH  11  19
ATOM     14  C   UNL     1      36.448  -1.885  16.518  0.00  0.00    +0.000 A 
ATOM     15  C   UNL     1      35.234  -2.386  16.963  0.00  0.00    +0.000 A 
ATOM     16  C   UNL     1      34.270  -1.465  17.341  0.00  0.00    +0.000 A 
ATOM     17  C   UNL     1      34.485  -0.106  17.288  0.00  0.00    +0.000 A 
ATOM     18  C   UNL     1      35.703   0.339  16.839  0.00  0.00    +0.000 A 
ATOM     19  C   UNL     1      36.702  -0.532  16.448  0.00  0.00    +0.000 A 
BRANCH  14  20
ATOM     20  O   UNL     1      37.472  -2.758  16.117  0.00  0.00    +0.000 OA
BRANCH  20  22
ATOM     21  C   UNL     1      37.499  -3.390  13.837  0.00  0.00    +0.000 C 
ATOM     22  C   UNL     1      37.203  -3.854  15.265  0.00  0.00    +0.000 C 
ENDBRANCH  20  22
ENDBRANCH  14  20
ENDBRANCH  11  19
ENDBRANCH   1  12
BRANCH   2  23
ATOM     23  N   UNL     1      38.699   3.109  13.454  0.00  0.00    +0.000 NA
BRANCH  23  24
ATOM     24  C   UNL     1      38.626   4.422  13.839  0.00  0.00    +0.000 C 
BRANCH  24  25
ATOM     25  C   UNL     1      38.667   4.531  15.346  0.00  0.00    +0.000 A 
ATOM     26  C   UNL     1      39.580   5.383  15.933  0.00  0.00    +0.000 A 
ATOM     27  C   UNL     1      39.578   5.448  17.314  0.00  0.00    +0.000 A 
ATOM     28  C   UNL     1      38.712   4.700  18.081  0.00  0.00    +0.000 A 
ATOM     29  N   UNL     1      37.835   3.879  17.457  0.00  0.00    +0.000 NA
ATOM     30  C   UNL     1      37.801   3.784  16.117  0.00  0.00    +0.000 A 
ENDBRANCH  24  25
ENDBRANCH  23  24
ENDBRANCH   2  23
TORSDOF 7
ENDMDL
MODEL 3
REMARK VINA RESULT:      -6.8      2.806      5.433
REMARK  Name = 
REMARK  7 active torsions:
REMARK  status: ('A' for Active; 'I' for Inactive)
REMARK    1  A    between atoms: C_2  and  O_3
REMARK    2  A    between atoms: O_3  and  C_4
REMARK    3  A    between atoms: C_9  and  N_10
REMARK    4  A    between atoms: C_11  and  C_13
REMARK    5  A    between atoms: C_14  and  N_15
REMARK    6  A    between atoms: N_15  and  C_16
REMARK    7  A    between atoms: C_16  and  C_17
REMARK                            x       y       z     vdW  Elec       q    Type
REMARK                         _______ _______ _______ _____ _____    ______ ____
ROOT
ATOM      1  C   UNL     1      38.181   2.631  14.785  0.00  0.00    +0.000 A 
ATOM      2  C   UNL     1      38.985   2.660  13.687  0.00  0.00    +0.000 A 
ATOM      3  S   UNL     1      39.981   4.052  13.998  0.00  0.00    +0.000 S 
ATOM      4  C   UNL     1      39.318   4.522  15.505  0.00  0.00    +0.000 A 
ATOM      5  C   UNL     1      38.359   3.603  15.724  0.00  0.00    +0.000 A 
ATOM      6  C   UNL     1      37.540   3.728  17.012  0.00  0.00    +0.000 C 
ATOM      7  C   UNL     1      38.379   4.494  17.982  0.00  0.00    +0.000 C 
ATOM      8  C   UNL     1      38.311   5.992  17.243  0.00  0.00    +0.000 C 
ATOM      9  C   UNL     1      39.113   6.715  18.495  0.00  0.00    +0.000 C 
ATOM     10  C   UNL     1      39.683   5.673  16.418  0.00  0.00    +0.000 C 
ENDROOT
BRANCH   1  12
ATOM     11  N   UNL     1      37.542   0.325  15.653  0.00  0.00    +0.000 NA
ATOM     12  C   UNL     1      37.203   1.515  14.948  0.00  0.00    +0.000 C 
ATOM     13  O   UNL     1      36.049   1.557  14.483  0.00  0.00    +0.000 OA
BRANCH  11  19
ATOM     14  C   UNL     1      35.720  -0.764  16.867  0.00  0.00    +0.000 A 
ATOM     15  C   UNL     1      34.788  -1.777  17.032  0.00  0.00    +0.000 A 
ATOM     16  C   UNL     1      34.761  -2.774  16.071  0.00  0.00    +0.000 A 
ATOM     17  C   UNL     1      35.611  -2.781  14.988  0.00  0.00    +0.000 A 
ATOM     18  C   UNL     1      36.516  -1.756  14.870  0.00  0.00    +0.000 A 
ATOM     19  C   UNL     1      36.590  -0.734  15.798  0.00  0.00    +0.000 A 
BRANCH  14  20
ATOM     20  O   UNL     1      35.808   0.281  17.802  0.00  0.00    +0.000 OA
BRANCH  20  22
ATOM     21  C   UNL     1      37.136  -0.894  19.368  0.00  0.00    +0.000 C 
ATOM     22  C   UNL     1      35.916   0.012  19.186  0.00  0.00    +0.000 C 
ENDBRANCH  20  22
ENDBRANCH  14  20
ENDBRANCH  11  19
ENDBRANCH   1  12
BRANCH   2  23
ATOM     23  N   UNL     1      39.107   1.931  12.498  0.00  0.00    +0.000 NA
BRANCH  23  24
ATOM     24  C   UNL     1      39.951   1.022  11.915  0.00  0.00    +0.000 C 
BRANCH  24  25
ATOM     25  C   UNL     1      39.995  -0.251  12.729  0.00  0.00    +0.000 A 
ATOM     26  C   UNL     1      40.672  -0.257  13.931  0.00  0.00    +0.000 A 
ATOM     27  C   UNL     1      40.682  -1.445  14.638  0.00  0.00    +0.000 A 
ATOM     28  C   UNL     1      40.052  -2.579  14.174  0.00  0.00    +0.000 A 
ATOM     29  N   UNL     1      39.402  -2.522  12.988  0.00  0.00    +0.000 NA
ATOM     30  C   UNL     1      39.365  -1.388  12.266  0.00  0.00    +0.000 A 
ENDBRANCH  24  25
ENDBRANCH  23  24
ENDBRANCH   2  23
TORSDOF 7
ENDMDL
MODEL 4
REMARK VINA RESULT:      -6.8      2.916      6.769
REMARK  Name = 
REMARK  7 active torsions:
REMARK  status: ('A' for Active; 'I' for Inactive)
REMARK    1  A    between atoms: C_2  and  O_3
REMARK    2  A    between atoms: O_3  and  C_4
REMARK    3  A    between atoms: C_9  and  N_10
REMARK    4  A    between atoms: C_11  and  C_13
REMARK    5  A    between atoms: C_14  and  N_15
REMARK    6  A    between atoms: N_15  and  C_16
REMARK    7  A    between atoms: C_16  and  C_17
REMARK                            x       y       z     vdW  Elec       q    Type
REMARK                         _______ _______ _______ _____ _____    ______ ____
ROOT
ATOM      1  C   UNL     1      39.662   0.557  14.275  0.00  0.00    +0.000 A 
ATOM      2  C   UNL     1      39.730   1.871  13.927  0.00  0.00    +0.000 A 
ATOM      3  S   UNL     1      41.385   2.028  13.414  0.00  0.00    +0.000 S 
ATOM      4  C   UNL     1      41.899   0.415  13.674  0.00  0.00    +0.000 A 
ATOM      5  C   UNL     1      40.793  -0.192  14.143  0.00  0.00    +0.000 A 
ATOM      6  C   UNL     1      40.898  -1.678  14.495  0.00  0.00    +0.000 C 
ATOM      7  C   UNL     1      42.035  -2.229  13.698  0.00  0.00    +0.000 C 
ATOM      8  C   UNL     1      43.292  -1.474  14.501  0.00  0.00    +0.000 C 
ATOM      9  C   UNL     1      44.428  -2.303  13.632  0.00  0.00    +0.000 C 
ATOM     10  C   UNL     1      43.249  -0.230  13.445  0.00  0.00    +0.000 C 
ENDROOT
BRANCH   1  12
ATOM     11  N   UNL     1      38.042  -0.189  16.091  0.00  0.00    +0.000 NA
ATOM     12  C   UNL     1      38.355  -0.018  14.712  0.00  0.00    +0.000 C 
ATOM     13  O   UNL     1      37.474  -0.377  13.910  0.00  0.00    +0.000 OA
BRANCH  11  19
ATOM     14  C   UNL     1      35.734   0.073  16.853  0.00  0.00    +0.000 A 
ATOM     15  C   UNL     1      34.505  -0.435  17.244  0.00  0.00    +0.000 A 
ATOM     16  C   UNL     1      34.366  -1.813  17.258  0.00  0.00    +0.000 A 
ATOM     17  C   UNL     1      35.389  -2.664  16.903  0.00  0.00    +0.000 A 
ATOM     18  C   UNL     1      36.587  -2.111  16.524  0.00  0.00    +0.000 A 
ATOM     19  C   UNL     1      36.784  -0.743  16.491  0.00  0.00    +0.000 A 
BRANCH  14  20
ATOM     20  O   UNL     1      35.950   1.460  16.815  0.00  0.00    +0.000 OA
BRANCH  20  22
ATOM     21  C   UNL     1      35.323   2.348  14.713  0.00  0.00    +0.000 C 
ATOM     22  C   UNL     1      35.009   2.327  16.211  0.00  0.00    +0.000 C 
ENDBRANCH  20  22
ENDBRANCH  14  20
ENDBRANCH  11  19
ENDBRANCH   1  12
BRANCH   2  23
ATOM     23  N   UNL     1      38.871   2.976  13.956  0.00  0.00    +0.000 NA
BRANCH  23  24
ATOM     24  C   UNL     1      38.934   4.341  14.060  0.00  0.00    +0.000 C 
BRANCH  24  25
ATOM     25  C   UNL     1      39.118   4.750  15.503  0.00  0.00    +0.000 A 
ATOM     26  C   UNL     1      38.240   4.271  16.454  0.00  0.00    +0.000 A 
ATOM     27  C   UNL     1      38.451   4.674  17.760  0.00  0.00    +0.000 A 
ATOM     28  C   UNL     1      39.484   5.516  18.109  0.00  0.00    +0.000 A 
ATOM     29  N   UNL     1      40.317   5.959  17.138  0.00  0.00    +0.000 NA
ATOM     30  C   UNL     1      40.151   5.593  15.855  0.00  0.00    +0.000 A 
ENDBRANCH  24  25
ENDBRANCH  23  24
ENDBRANCH   2  23
TORSDOF 7
ENDMDL
MODEL 5
REMARK VINA RESULT:      -6.7      2.452      6.271
REMARK  Name = 
REMARK  7 active torsions:
REMARK  status: ('A' for Active; 'I' for Inactive)
REMARK    1  A    between atoms: C_2  and  O_3
REMARK    2  A    between atoms: O_3  and  C_4
REMARK    3  A    between atoms: C_9  and  N_10
REMARK    4  A    between atoms: C_11  and  C_13
REMARK    5  A    between atoms: C_14  and  N_15
REMARK    6  A    between atoms: N_15  and  C_16
REMARK    7  A    between atoms: C_16  and  C_17
REMARK                            x       y       z     vdW  Elec       q    Type
REMARK                         _______ _______ _______ _____ _____    ______ ____
ROOT
ATOM      1  C   UNL     1      38.930  -1.283  14.442  0.00  0.00    +0.000 A 
ATOM      2  C   UNL     1      39.410  -1.816  15.599  0.00  0.00    +0.000 A 
ATOM      3  S   UNL     1      40.734  -2.791  15.030  0.00  0.00    +0.000 S 
ATOM      4  C   UNL     1      40.601  -2.470  13.354  0.00  0.00    +0.000 A 
ATOM      5  C   UNL     1      39.552  -1.629  13.280  0.00  0.00    +0.000 A 
ATOM      6  C   UNL     1      39.141  -1.132  11.892  0.00  0.00    +0.000 C 
ATOM      7  C   UNL     1      40.348  -1.244  11.019  0.00  0.00    +0.000 C 
ATOM      8  C   UNL     1      40.424  -2.911  10.911  0.00  0.00    +0.000 C 
ATOM      9  C   UNL     1      41.660  -2.846   9.815  0.00  0.00    +0.000 C 
ATOM     10  C   UNL     1      41.433  -2.971  12.193  0.00  0.00    +0.000 C 
ENDROOT
BRANCH   1  12
ATOM     11  N   UNL     1      38.000   1.027  14.972  0.00  0.00    +0.000 NA
ATOM     12  C   UNL     1      37.805  -0.302  14.499  0.00  0.00    +0.000 C 
ATOM     13  O   UNL     1      36.647  -0.584  14.142  0.00  0.00    +0.000 OA
BRANCH  11  19
ATOM     14  C   UNL     1      36.106   2.042  16.137  0.00  0.00    +0.000 A 
ATOM     15  C   UNL     1      35.043   2.929  16.212  0.00  0.00    +0.000 A 
ATOM     16  C   UNL     1      34.813   3.736  15.109  0.00  0.00    +0.000 A 
ATOM     17  C   UNL     1      35.593   3.678  13.975  0.00  0.00    +0.000 A 
ATOM     18  C   UNL     1      36.633   2.783  13.950  0.00  0.00    +0.000 A 
ATOM     19  C   UNL     1      36.909   1.953  15.020  0.00  0.00    +0.000 A 
BRANCH  14  20
ATOM     20  O   UNL     1      36.399   1.193  17.215  0.00  0.00    +0.000 OA
BRANCH  20  22
ATOM     21  C   UNL     1      35.953  -0.028  19.192  0.00  0.00    +0.000 C 
ATOM     22  C   UNL     1      35.380   0.449  17.855  0.00  0.00    +0.000 C 
ENDBRANCH  20  22
ENDBRANCH  14  20
ENDBRANCH  11  19
ENDBRANCH   1  12
BRANCH   2  23
ATOM     23  N   UNL     1      39.059  -1.787  16.953  0.00  0.00    +0.000 NA
BRANCH  23  24
ATOM     24  C   UNL     1      38.387  -2.551  17.872  0.00  0.00    +0.000 C 
BRANCH  24  25
ATOM     25  C   UNL     1      37.380  -3.441  17.180  0.00  0.00    +0.000 A 
ATOM     26  C   UNL     1      37.691  -4.768  16.965  0.00  0.00    +0.000 A 
ATOM     27  C   UNL     1      36.737  -5.540  16.330  0.00  0.00    +0.000 A 
ATOM     28  C   UNL     1      35.528  -5.020  15.922  0.00  0.00    +0.000 A 
ATOM     29  N   UNL     1      35.270  -3.712  16.155  0.00  0.00    +0.000 NA
ATOM     30  C   UNL     1      36.168  -2.923  16.771  0.00  0.00    +0.000 A 
ENDBRANCH  24  25
ENDBRANCH  23  24
ENDBRANCH   2  23
TORSDOF 7
ENDMDL
MODEL 6
REMARK VINA RESULT:      -6.7      2.361      6.087
REMARK  Name = 
REMARK  7 active torsions:
REMARK  status: ('A' for Active; 'I' for Inactive)
REMARK    1  A    between atoms: C_2  and  O_3
REMARK    2  A    between atoms: O_3  and  C_4
REMARK    3  A    between atoms: C_9  and  N_10
REMARK    4  A    between atoms: C_11  and  C_13
REMARK    5  A    between atoms: C_14  and  N_15
REMARK    6  A    between atoms: N_15  and  C_16
REMARK    7  A    between atoms: C_16  and  C_17
REMARK                            x       y       z     vdW  Elec       q    Type
REMARK                         _______ _______ _______ _____ _____    ______ ____
ROOT
ATOM      1  C   UNL     1      39.509  -0.875  14.426  0.00  0.00    +0.000 A 
ATOM      2  C   UNL     1      39.138  -2.055  14.993  0.00  0.00    +0.000 A 
ATOM      3  S   UNL     1      40.657  -2.894  15.120  0.00  0.00    +0.000 S 
ATOM      4  C   UNL     1      41.679  -1.698  14.442  0.00  0.00    +0.000 A 
ATOM      5  C   UNL     1      40.829  -0.697  14.142  0.00  0.00    +0.000 A 
ATOM      6  C   UNL     1      41.419   0.560  13.498  0.00  0.00    +0.000 C 
ATOM      7  C   UNL     1      42.862   0.605  13.882  0.00  0.00    +0.000 C 
ATOM      8  C   UNL     1      43.405  -0.683  12.964  0.00  0.00    +0.000 C 
ATOM      9  C   UNL     1      44.981  -0.385  13.365  0.00  0.00    +0.000 C 
ATOM     10  C   UNL     1      43.176  -1.703  14.218  0.00  0.00    +0.000 C 
ENDROOT
BRANCH   1  12
ATOM     11  N   UNL     1      38.113   1.090  15.248  0.00  0.00    +0.000 NA
ATOM     12  C   UNL     1      38.482   0.187  14.209  0.00  0.00    +0.000 C 
ATOM     13  O   UNL     1      37.896   0.346  13.123  0.00  0.00    +0.000 OA
BRANCH  11  19
ATOM     14  C   UNL     1      35.791   1.853  15.257  0.00  0.00    +0.000 A 
ATOM     15  C   UNL     1      34.814   2.813  15.047  0.00  0.00    +0.000 A 
ATOM     16  C   UNL     1      35.231   4.050  14.584  0.00  0.00    +0.000 A 
ATOM     17  C   UNL     1      36.555   4.339  14.336  0.00  0.00    +0.000 A 
ATOM     18  C   UNL     1      37.484   3.354  14.560  0.00  0.00    +0.000 A 
ATOM     19  C   UNL     1      37.126   2.101  15.020  0.00  0.00    +0.000 A 
BRANCH  14  20
ATOM     20  O   UNL     1      35.443   0.575  15.725  0.00  0.00    +0.000 OA
BRANCH  20  22
ATOM     21  C   UNL     1      35.829   0.535  18.058  0.00  0.00    +0.000 C 
ATOM     22  C   UNL     1      34.772   0.409  16.959  0.00  0.00    +0.000 C 
ENDBRANCH  20  22
ENDBRANCH  14  20
ENDBRANCH  11  19
ENDBRANCH   1  12
BRANCH   2  23
ATOM     23  N   UNL     1      37.939  -2.665  15.379  0.00  0.00    +0.000 NA
BRANCH  23  24
ATOM     24  C   UNL     1      37.076  -2.684  16.444  0.00  0.00    +0.000 C 
BRANCH  24  25
ATOM     25  C   UNL     1      37.761  -3.250  17.666  0.00  0.00    +0.000 A 
ATOM     26  C   UNL     1      37.836  -2.482  18.810  0.00  0.00    +0.000 A 
ATOM     27  C   UNL     1      38.472  -3.044  19.901  0.00  0.00    +0.000 A 
ATOM     28  C   UNL     1      39.011  -4.311  19.862  0.00  0.00    +0.000 A 
ATOM     29  N   UNL     1      38.912  -5.024  18.716  0.00  0.00    +0.000 NA
ATOM     30  C   UNL     1      38.302  -4.518  17.630  0.00  0.00    +0.000 A 
ENDBRANCH  24  25
ENDBRANCH  23  24
ENDBRANCH   2  23
TORSDOF 7
ENDMDL
MODEL 7
REMARK VINA RESULT:      -6.7      3.559      6.166
REMARK  Name = 
REMARK  7 active torsions:
REMARK  status: ('A' for Active; 'I' for Inactive)
REMARK    1  A    between atoms: C_2  and  O_3
REMARK    2  A    between atoms: O_3  and  C_4
REMARK    3  A    between atoms: C_9  and  N_10
REMARK    4  A    between atoms: C_11  and  C_13
REMARK    5  A    between atoms: C_14  and  N_15
REMARK    6  A    between atoms: N_15  and  C_16
REMARK    7  A    between atoms: C_16  and  C_17
REMARK                            x       y       z     vdW  Elec       q    Type
REMARK                         _______ _______ _______ _____ _____    ______ ____
ROOT
ATOM      1  C   UNL     1      38.985   3.864  14.843  0.00  0.00    +0.000 A 
ATOM      2  C   UNL     1      39.762   4.306  13.816  0.00  0.00    +0.000 A 
ATOM      3  S   UNL     1      40.539   5.696  14.516  0.00  0.00    +0.000 S 
ATOM      4  C   UNL     1      39.831   5.640  16.074  0.00  0.00    +0.000 A 
ATOM      5  C   UNL     1      39.025   4.564  16.011  0.00  0.00    +0.000 A 
ATOM      6  C   UNL     1      38.213   4.215  17.262  0.00  0.00    +0.000 C 
ATOM      7  C   UNL     1      38.938   4.809  18.425  0.00  0.00    +0.000 C 
ATOM      8  C   UNL     1      38.635   6.423  18.111  0.00  0.00    +0.000 C 
ATOM      9  C   UNL     1      39.333   6.895  19.533  0.00  0.00    +0.000 C 
ATOM     10  C   UNL     1      40.029   6.545  17.271  0.00  0.00    +0.000 C 
ENDROOT
BRANCH   1  12
ATOM     11  N   UNL     1      38.625   1.373  15.224  0.00  0.00    +0.000 NA
ATOM     12  C   UNL     1      38.189   2.613  14.673  0.00  0.00    +0.000 C 
ATOM     13  O   UNL     1      37.112   2.578  14.049  0.00  0.00    +0.000 OA
BRANCH  11  19
ATOM     14  C   UNL     1      36.891  -0.179  15.974  0.00  0.00    +0.000 A 
ATOM     15  C   UNL     1      36.124  -1.324  15.831  0.00  0.00    +0.000 A 
ATOM     16  C   UNL     1      36.356  -2.105  14.710  0.00  0.00    +0.000 A 
ATOM     17  C   UNL     1      37.301  -1.778  13.763  0.00  0.00    +0.000 A 
ATOM     18  C   UNL     1      38.035  -0.634  13.951  0.00  0.00    +0.000 A 
ATOM     19  C   UNL     1      37.848   0.183  15.050  0.00  0.00    +0.000 A 
BRANCH  14  20
ATOM     20  O   UNL     1      36.713   0.662  17.084  0.00  0.00    +0.000 OA
BRANCH  20  22
ATOM     21  C   UNL     1      34.841   2.006  16.550  0.00  0.00    +0.000 C 
ATOM     22  C   UNL     1      35.418   0.996  17.545  0.00  0.00    +0.000 C 
ENDBRANCH  20  22
ENDBRANCH  14  20
ENDBRANCH  11  19
ENDBRANCH   1  12
BRANCH   2  23
ATOM     23  N   UNL     1      39.978   3.950  12.480  0.00  0.00    +0.000 NA
BRANCH  23  24
ATOM     24  C   UNL     1      40.284   2.841  11.733  0.00  0.00    +0.000 C 
BRANCH  24  25
ATOM     25  C   UNL     1      41.460   2.109  12.336  0.00  0.00    +0.000 A 
ATOM     26  C   UNL     1      41.249   0.894  12.956  0.00  0.00    +0.000 A 
ATOM     27  C   UNL     1      42.357   0.264  13.491  0.00  0.00    +0.000 A 
ATOM     28  C   UNL     1      43.618   0.812  13.418  0.00  0.00    +0.000 A 
ATOM     29  N   UNL     1      43.773   2.006  12.800  0.00  0.00    +0.000 NA
ATOM     30  C   UNL     1      42.724   2.656  12.265  0.00  0.00    +0.000 A 
ENDBRANCH  24  25
ENDBRANCH  23  24
ENDBRANCH   2  23
TORSDOF 7
ENDMDL
MODEL 8
REMARK VINA RESULT:      -6.6      2.290      5.688
REMARK  Name = 
REMARK  7 active torsions:
REMARK  status: ('A' for Active; 'I' for Inactive)
REMARK    1  A    between atoms: C_2  and  O_3
REMARK    2  A    between atoms: O_3  and  C_4
REMARK    3  A    between atoms: C_9  and  N_10
REMARK    4  A    between atoms: C_11  and  C_13
REMARK    5  A    between atoms: C_14  and  N_15
REMARK    6  A    between atoms: N_15  and  C_16
REMARK    7  A    between atoms: C_16  and  C_17
REMARK                            x       y       z     vdW  Elec       q    Type
REMARK                         _______ _______ _______ _____ _____    ______ ____
ROOT
ATOM      1  C   UNL     1      38.873  -1.274  14.467  0.00  0.00    +0.000 A 
ATOM      2  C   UNL     1      39.367  -1.804  15.619  0.00  0.00    +0.000 A 
ATOM      3  S   UNL     1      40.714  -2.742  15.043  0.00  0.00    +0.000 S 
ATOM      4  C   UNL     1      40.573  -2.411  13.369  0.00  0.00    +0.000 A 
ATOM      5  C   UNL     1      39.504  -1.595  13.302  0.00  0.00    +0.000 A 
ATOM      6  C   UNL     1      39.079  -1.098  11.918  0.00  0.00    +0.000 C 
ATOM      7  C   UNL     1      40.289  -1.174  11.044  0.00  0.00    +0.000 C 
ATOM      8  C   UNL     1      40.405  -2.837  10.923  0.00  0.00    +0.000 C 
ATOM      9  C   UNL     1      41.639  -2.733   9.826  0.00  0.00    +0.000 C 
ATOM     10  C   UNL     1      41.416  -2.883  12.203  0.00  0.00    +0.000 C 
ENDROOT
BRANCH   1  12
ATOM     11  N   UNL     1      37.877   0.993  15.058  0.00  0.00    +0.000 NA
ATOM     12  C   UNL     1      37.725  -0.322  14.532  0.00  0.00    +0.000 C 
ATOM     13  O   UNL     1      36.582  -0.616  14.135  0.00  0.00    +0.000 OA
BRANCH  11  19
ATOM     14  C   UNL     1      36.680   2.968  14.256  0.00  0.00    +0.000 A 
ATOM     15  C   UNL     1      35.614   3.853  14.286  0.00  0.00    +0.000 A 
ATOM     16  C   UNL     1      34.620   3.615  15.222  0.00  0.00    +0.000 A 
ATOM     17  C   UNL     1      34.665   2.551  16.094  0.00  0.00    +0.000 A 
ATOM     18  C   UNL     1      35.742   1.703  16.025  0.00  0.00    +0.000 A 
ATOM     19  C   UNL     1      36.764   1.891  15.113  0.00  0.00    +0.000 A 
BRANCH  14  20
ATOM     20  O   UNL     1      37.726   3.146  13.336  0.00  0.00    +0.000 OA
BRANCH  20  22
ATOM     21  C   UNL     1      38.697   2.470  11.287  0.00  0.00    +0.000 C 
ATOM     22  C   UNL     1      37.481   3.128  11.943  0.00  0.00    +0.000 C 
ENDBRANCH  20  22
ENDBRANCH  14  20
ENDBRANCH  11  19
ENDBRANCH   1  12
BRANCH   2  23
ATOM     23  N   UNL     1      39.016  -1.794  16.974  0.00  0.00    +0.000 NA
BRANCH  23  24
ATOM     24  C   UNL     1      38.252  -2.512  17.857  0.00  0.00    +0.000 C 
BRANCH  24  25
ATOM     25  C   UNL     1      36.794  -2.143  17.711  0.00  0.00    +0.000 A 
ATOM     26  C   UNL     1      36.285  -1.104  18.462  0.00  0.00    +0.000 A 
ATOM     27  C   UNL     1      34.946  -0.805  18.292  0.00  0.00    +0.000 A 
ATOM     28  C   UNL     1      34.145  -1.507  17.418  0.00  0.00    +0.000 A 
ATOM     29  N   UNL     1      34.691  -2.519  16.704  0.00  0.00    +0.000 NA
ATOM     30  C   UNL     1      35.989  -2.844  16.837  0.00  0.00    +0.000 A 
ENDBRANCH  24  25
ENDBRANCH  23  24
ENDBRANCH   2  23
TORSDOF 7
ENDMDL
MODEL 9
REMARK VINA RESULT:      -6.6      2.697      5.220
REMARK  Name = 
REMARK  7 active torsions:
REMARK  status: ('A' for Active; 'I' for Inactive)
REMARK    1  A    between atoms: C_2  and  O_3
REMARK    2  A    between atoms: O_3  and  C_4
REMARK    3  A    between atoms: C_9  and  N_10
REMARK    4  A    between atoms: C_11  and  C_13
REMARK    5  A    between atoms: C_14  and  N_15
REMARK    6  A    between atoms: N_15  and  C_16
REMARK    7  A    between atoms: C_16  and  C_17
REMARK                            x       y       z     vdW  Elec       q    Type
REMARK                         _______ _______ _______ _____ _____    ______ ____
ROOT
ATOM      1  C   UNL     1      38.119   2.477  14.779  0.00  0.00    +0.000 A 
ATOM      2  C   UNL     1      38.930   2.292  13.702  0.00  0.00    +0.000 A 
ATOM      3  S   UNL     1      40.017   3.645  13.825  0.00  0.00    +0.000 S 
ATOM      4  C   UNL     1      39.376   4.373  15.237  0.00  0.00    +0.000 A 
ATOM      5  C   UNL     1      38.356   3.561  15.570  0.00  0.00    +0.000 A 
ATOM      6  C   UNL     1      37.538   3.926  16.812  0.00  0.00    +0.000 C 
ATOM      7  C   UNL     1      38.421   4.768  17.675  0.00  0.00    +0.000 C 
ATOM      8  C   UNL     1      38.460   6.144  16.725  0.00  0.00    +0.000 C 
ATOM      9  C   UNL     1      39.300   6.987  17.873  0.00  0.00    +0.000 C 
ATOM     10  C   UNL     1      39.813   5.618  15.979  0.00  0.00    +0.000 C 
ENDROOT
BRANCH   1  12
ATOM     11  N   UNL     1      37.247   0.487  16.105  0.00  0.00    +0.000 NA
ATOM     12  C   UNL     1      37.065   1.464  15.085  0.00  0.00    +0.000 C 
ATOM     13  O   UNL     1      35.981   1.413  14.475  0.00  0.00    +0.000 OA
BRANCH  11  19
ATOM     14  C   UNL     1      36.300  -1.755  15.873  0.00  0.00    +0.000 A 
ATOM     15  C   UNL     1      35.327  -2.709  16.126  0.00  0.00    +0.000 A 
ATOM     16  C   UNL     1      34.260  -2.328  16.923  0.00  0.00    +0.000 A 
ATOM     17  C   UNL     1      34.148  -1.062  17.453  0.00  0.00    +0.000 A 
ATOM     18  C   UNL     1      35.138  -0.153  17.173  0.00  0.00    +0.000 A 
ATOM     19  C   UNL     1      36.226  -0.477  16.383  0.00  0.00    +0.000 A 
BRANCH  14  20
ATOM     20  O   UNL     1      37.411  -2.069  15.073  0.00  0.00    +0.000 OA
BRANCH  20  22
ATOM     21  C   UNL     1      39.050  -2.848  16.591  0.00  0.00    +0.000 C 
ATOM     22  C   UNL     1      38.217  -3.196  15.355  0.00  0.00    +0.000 C 
ENDBRANCH  20  22
ENDBRANCH  14  20
ENDBRANCH  11  19
ENDBRANCH   1  12
BRANCH   2  23
ATOM     23  N   UNL     1      39.011   1.391  12.633  0.00  0.00    +0.000 NA
BRANCH  23  24
ATOM     24  C   UNL     1      38.595   0.128  12.302  0.00  0.00    +0.000 C 
BRANCH  24  25
ATOM     25  C   UNL     1      39.631  -0.892  12.715  0.00  0.00    +0.000 A 
ATOM     26  C   UNL     1      40.483  -0.600  13.760  0.00  0.00    +0.000 A 
ATOM     27  C   UNL     1      41.412  -1.566  14.100  0.00  0.00    +0.000 A 
ATOM     28  C   UNL     1      41.495  -2.768  13.433  0.00  0.00    +0.000 A 
ATOM     29  N   UNL     1      40.638  -3.007  12.413  0.00  0.00    +0.000 NA
ATOM     30  C   UNL     1      39.717  -2.097  12.048  0.00  0.00    +0.000 A 
ENDBRANCH  24  25
ENDBRANCH  23  24
ENDBRANCH   2  23
TORSDOF 7
ENDMDL
MODEL 10
REMARK VINA RESULT:      -6.5      2.448      5.716
REMARK  Name = 
REMARK  7 active torsions:
REMARK  status: ('A' for Active; 'I' for Inactive)
REMARK    1  A    between atoms: C_2  and  O_3
REMARK    2  A    between atoms: O_3  and  C_4
REMARK    3  A    between atoms: C_9  and  N_10
REMARK    4  A    between atoms: C_11  and  C_13
REMARK    5  A    between atoms: C_14  and  N_15
REMARK    6  A    between atoms: N_15  and  C_16
REMARK    7  A    between atoms: C_16  and  C_17
REMARK                            x       y       z     vdW  Elec       q    Type
REMARK                         _______ _______ _______ _____ _____    ______ ____
ROOT
ATOM      1  C   UNL     1      36.847  -1.708  16.212  0.00  0.00    +0.000 A 
ATOM      2  C   UNL     1      36.244  -0.788  17.014  0.00  0.00    +0.000 A 
ATOM      3  S   UNL     1      34.627  -1.417  17.141  0.00  0.00    +0.000 S 
ATOM      4  C   UNL     1      34.807  -2.813  16.164  0.00  0.00    +0.000 A 
ATOM      5  C   UNL     1      36.094  -2.755  15.774  0.00  0.00    +0.000 A 
ATOM      6  C   UNL     1      36.606  -3.873  14.861  0.00  0.00    +0.000 C 
ATOM      7  C   UNL     1      35.721  -5.054  15.089  0.00  0.00    +0.000 C 
ATOM      8  C   UNL     1      34.331  -4.468  14.368  0.00  0.00    +0.000 C 
ATOM      9  C   UNL     1      33.550  -5.914  14.554  0.00  0.00    +0.000 C 
ATOM     10  C   UNL     1      33.805  -3.888  15.801  0.00  0.00    +0.000 C 
ENDROOT
BRANCH   1  12
ATOM     11  N   UNL     1      38.764  -1.251  14.600  0.00  0.00    +0.000 NA
ATOM     12  C   UNL     1      38.303  -1.572  15.909  0.00  0.00    +0.000 C 
ATOM     13  O   UNL     1      39.188  -1.730  16.770  0.00  0.00    +0.000 OA
BRANCH  11  19
ATOM     14  C   UNL     1      40.781   0.106  14.343  0.00  0.00    +0.000 A 
ATOM     15  C   UNL     1      42.134   0.256  14.085  0.00  0.00    +0.000 A 
ATOM     16  C   UNL     1      42.857  -0.893  13.807  0.00  0.00    +0.000 A 
ATOM     17  C   UNL     1      42.279  -2.143  13.784  0.00  0.00    +0.000 A 
ATOM     18  C   UNL     1      40.935  -2.238  14.046  0.00  0.00    +0.000 A 
ATOM     19  C   UNL     1      40.163  -1.127  14.329  0.00  0.00    +0.000 A 
BRANCH  14  20
ATOM     20  O   UNL     1      39.984   1.225  14.631  0.00  0.00    +0.000 OA
BRANCH  20  22
ATOM     21  C   UNL     1      40.098   3.418  13.751  0.00  0.00    +0.000 C 
ATOM     22  C   UNL     1      39.462   2.035  13.596  0.00  0.00    +0.000 C 
ENDBRANCH  20  22
ENDBRANCH  14  20
ENDBRANCH  11  19
ENDBRANCH   1  12
BRANCH   2  23
ATOM     23  N   UNL     1      36.600   0.423  17.618  0.00  0.00    +0.000 NA
BRANCH  23  24
ATOM     24  C   UNL     1      36.040   1.633  17.935  0.00  0.00    +0.000 C 
BRANCH  24  25
ATOM     25  C   UNL     1      35.896   2.487  16.696  0.00  0.00    +0.000 A 
ATOM     26  C   UNL     1      34.707   2.461  15.997  0.00  0.00    +0.000 A 
ATOM     27  C   UNL     1      34.624   3.259  14.872  0.00  0.00    +0.000 A 
ATOM     28  C   UNL     1      35.674   4.048  14.455  0.00  0.00    +0.000 A 
ATOM     29  N   UNL     1      36.820   4.038  15.174  0.00  0.00    +0.000 NA
ATOM     30  C   UNL     1      36.946   3.277  16.276  0.00  0.00    +0.000 A 
ENDBRANCH  24  25
ENDBRANCH  23  24
ENDBRANCH   2  23
TORSDOF 7
ENDMDL
