MODEL 1
REMARK VINA RESULT:      -7.4      0.000      0.000
REMARK  Name = 
REMARK  3 active torsions:
REMARK  status: ('A' for Active; 'I' for Inactive)
REMARK    1  A    between atoms: C_5  and  C_6
REMARK    2  A    between atoms: N_8  and  N_9
REMARK    3  A    between atoms: C_10  and  C_11
REMARK                            x       y       z     vdW  Elec       q    Type
REMARK                         _______ _______ _______ _____ _____    ______ ____
ROOT
ATOM      1  N   UNL     1      16.439  10.700  36.960  0.00  0.00    +0.000 NA
ATOM      2  C   UNL     1      15.555  11.408  36.369  0.00  0.00    +0.000 C 
ENDROOT
BRANCH   2   3
ATOM      3  C   UNL     1      15.583  11.572  34.924  0.00  0.00    +0.000 A 
ATOM      4  C   UNL     1      16.457  10.830  34.165  0.00  0.00    +0.000 A 
ATOM      5  C   UNL     1      16.489  10.981  32.790  0.00  0.00    +0.000 A 
ATOM      6  C   UNL     1      15.647  11.878  32.144  0.00  0.00    +0.000 A 
ATOM      7  C   UNL     1      14.772  12.621  32.904  0.00  0.00    +0.000 A 
ATOM      8  C   UNL     1      14.748  12.461  34.284  0.00  0.00    +0.000 A 
ATOM      9  O   UNL     1      13.944  13.508  32.228  0.00  0.00    +0.000 OA
ATOM     10  C   UNL     1      14.460  14.175  31.098  0.00  0.00    +0.000 C 
ATOM     11  C   UNL     1      15.385  13.350  30.267  0.00  0.00    +0.000 C 
ATOM     12  O   UNL     1      15.640  12.065  30.776  0.00  0.00    +0.000 OA
ENDBRANCH   2   3
BRANCH   1  15
ATOM     13  C   UNL     1      17.459   9.739  38.998  0.00  0.00    +0.000 C 
ATOM     14  O   UNL     1      18.369   9.201  38.319  0.00  0.00    +0.000 OA
ATOM     15  N   UNL     1      16.476  10.497  38.342  0.00  0.00    +0.000 NA
BRANCH  13  20
ATOM     16  C   UNL     1      17.569   8.933  44.717  0.00  0.00    +0.000 C 
ATOM     17  C   UNL     1      17.536   9.141  43.244  0.00  0.00    +0.000 A 
ATOM     18  C   UNL     1      18.701   9.165  42.502  0.00  0.00    +0.000 A 
ATOM     19  C   UNL     1      18.665   9.358  41.136  0.00  0.00    +0.000 A 
ATOM     20  C   UNL     1      17.485   9.535  40.445  0.00  0.00    +0.000 A 
ATOM     21  C   UNL     1      16.317   9.510  41.195  0.00  0.00    +0.000 A 
ATOM     22  C   UNL     1      16.347   9.317  42.560  0.00  0.00    +0.000 A 
ENDBRANCH  13  20
ENDBRANCH   1  15
TORSDOF 3
ENDMDL
MODEL 2
REMARK VINA RESULT:      -7.3      2.336      2.735
REMARK  Name = 
REMARK  3 active torsions:
REMARK  status: ('A' for Active; 'I' for Inactive)
REMARK    1  A    between atoms: C_5  and  C_6
REMARK    2  A    between atoms: N_8  and  N_9
REMARK    3  A    between atoms: C_10  and  C_11
REMARK                            x       y       z     vdW  Elec       q    Type
REMARK                         _______ _______ _______ _____ _____    ______ ____
ROOT
ATOM      1  N   UNL     1      17.768  10.467  35.537  0.00  0.00    +0.000 NA
ATOM      2  C   UNL     1      17.301   9.892  34.497  0.00  0.00    +0.000 C 
ENDROOT
BRANCH   2   3
ATOM      3  C   UNL     1      16.479  10.629  33.550  0.00  0.00    +0.000 A 
ATOM      4  C   UNL     1      16.579  10.368  32.203  0.00  0.00    +0.000 A 
ATOM      5  C   UNL     1      15.800  11.066  31.297  0.00  0.00    +0.000 A 
ATOM      6  C   UNL     1      14.904  12.041  31.719  0.00  0.00    +0.000 A 
ATOM      7  C   UNL     1      14.804  12.303  33.067  0.00  0.00    +0.000 A 
ATOM      8  C   UNL     1      15.591  11.596  33.968  0.00  0.00    +0.000 A 
ATOM      9  O   UNL     1      13.900  13.282  33.455  0.00  0.00    +0.000 OA
ATOM     10  C   UNL     1      13.732  14.406  32.620  0.00  0.00    +0.000 C 
ATOM     11  C   UNL     1      13.815  14.105  31.161  0.00  0.00    +0.000 C 
ATOM     12  O   UNL     1      14.105  12.764  30.855  0.00  0.00    +0.000 OA
ENDBRANCH   2   3
BRANCH   1  15
ATOM     13  C   UNL     1      18.208   9.674  37.838  0.00  0.00    +0.000 C 
ATOM     14  O   UNL     1      17.110  10.139  38.235  0.00  0.00    +0.000 OA
ATOM     15  N   UNL     1      18.565   9.825  36.489  0.00  0.00    +0.000 NA
BRANCH  13  20
ATOM     16  C   UNL     1      21.537   7.003  41.732  0.00  0.00    +0.000 C 
ATOM     17  C   UNL     1      20.682   7.694  40.728  0.00  0.00    +0.000 A 
ATOM     18  C   UNL     1      19.407   7.244  40.447  0.00  0.00    +0.000 A 
ATOM     19  C   UNL     1      18.619   7.889  39.516  0.00  0.00    +0.000 A 
ATOM     20  C   UNL     1      19.051   8.999  38.824  0.00  0.00    +0.000 A 
ATOM     21  C   UNL     1      20.335   9.448  39.108  0.00  0.00    +0.000 A 
ATOM     22  C   UNL     1      21.126   8.808  40.038  0.00  0.00    +0.000 A 
ENDBRANCH  13  20
ENDBRANCH   1  15
TORSDOF 3
ENDMDL
MODEL 3
REMARK VINA RESULT:      -7.2      1.202      1.939
REMARK  Name = 
REMARK  3 active torsions:
REMARK  status: ('A' for Active; 'I' for Inactive)
REMARK    1  A    between atoms: C_5  and  C_6
REMARK    2  A    between atoms: N_8  and  N_9
REMARK    3  A    between atoms: C_10  and  C_11
REMARK                            x       y       z     vdW  Elec       q    Type
REMARK                         _______ _______ _______ _____ _____    ______ ____
ROOT
ATOM      1  N   UNL     1      15.741  11.528  37.216  0.00  0.00    +0.000 NA
ATOM      2  C   UNL     1      14.575  11.700  36.724  0.00  0.00    +0.000 C 
ENDROOT
BRANCH   2   3
ATOM      3  C   UNL     1      14.402  12.393  35.457  0.00  0.00    +0.000 A 
ATOM      4  C   UNL     1      13.646  13.540  35.397  0.00  0.00    +0.000 A 
ATOM      5  C   UNL     1      13.477  14.204  34.195  0.00  0.00    +0.000 A 
ATOM      6  C   UNL     1      14.061  13.734  33.025  0.00  0.00    +0.000 A 
ATOM      7  C   UNL     1      14.818  12.585  33.084  0.00  0.00    +0.000 A 
ATOM      8  C   UNL     1      14.980  11.926  34.297  0.00  0.00    +0.000 A 
ATOM      9  O   UNL     1      15.388  12.142  31.898  0.00  0.00    +0.000 OA
ATOM     10  C   UNL     1      14.658  12.309  30.702  0.00  0.00    +0.000 C 
ATOM     11  C   UNL     1      13.864  13.571  30.639  0.00  0.00    +0.000 C 
ATOM     12  O   UNL     1      13.923  14.359  31.802  0.00  0.00    +0.000 OA
ENDBRANCH   2   3
BRANCH   1  15
ATOM     13  C   UNL     1      17.079  10.024  38.653  0.00  0.00    +0.000 C 
ATOM     14  O   UNL     1      17.901   9.826  37.725  0.00  0.00    +0.000 OA
ATOM     15  N   UNL     1      15.984  10.873  38.427  0.00  0.00    +0.000 NA
BRANCH  13  20
ATOM     16  C   UNL     1      18.041   7.339  43.678  0.00  0.00    +0.000 C 
ATOM     17  C   UNL     1      17.789   8.032  42.385  0.00  0.00    +0.000 A 
ATOM     18  C   UNL     1      18.671   7.912  41.328  0.00  0.00    +0.000 A 
ATOM     19  C   UNL     1      18.433   8.557  40.132  0.00  0.00    +0.000 A 
ATOM     20  C   UNL     1      17.321   9.345  39.926  0.00  0.00    +0.000 A 
ATOM     21  C   UNL     1      16.437   9.464  40.991  0.00  0.00    +0.000 A 
ATOM     22  C   UNL     1      16.670   8.821  42.188  0.00  0.00    +0.000 A 
ENDBRANCH  13  20
ENDBRANCH   1  15
TORSDOF 3
ENDMDL
MODEL 4
REMARK VINA RESULT:      -7.2      4.679      8.513
REMARK  Name = 
REMARK  3 active torsions:
REMARK  status: ('A' for Active; 'I' for Inactive)
REMARK    1  A    between atoms: C_5  and  C_6
REMARK    2  A    between atoms: N_8  and  N_9
REMARK    3  A    between atoms: C_10  and  C_11
REMARK                            x       y       z     vdW  Elec       q    Type
REMARK                         _______ _______ _______ _____ _____    ______ ____
ROOT
ATOM      1  N   UNL     1      19.224  10.413  36.945  0.00  0.00    +0.000 NA
ATOM      2  C   UNL     1      19.985   9.815  37.779  0.00  0.00    +0.000 C 
ENDROOT
BRANCH   2   3
ATOM      3  C   UNL     1      21.430   9.854  37.620  0.00  0.00    +0.000 A 
ATOM      4  C   UNL     1      21.984   9.844  36.361  0.00  0.00    +0.000 A 
ATOM      5  C   UNL     1      23.358   9.880  36.202  0.00  0.00    +0.000 A 
ATOM      6  C   UNL     1      24.209   9.927  37.300  0.00  0.00    +0.000 A 
ATOM      7  C   UNL     1      23.655   9.937  38.561  0.00  0.00    +0.000 A 
ATOM      8  C   UNL     1      22.273   9.900  38.708  0.00  0.00    +0.000 A 
ATOM      9  O   UNL     1      24.531   9.984  39.636  0.00  0.00    +0.000 OA
ATOM     10  C   UNL     1      25.754   9.289  39.533  0.00  0.00    +0.000 C 
ATOM     11  C   UNL     1      26.359   9.310  38.169  0.00  0.00    +0.000 C 
ATOM     12  O   UNL     1      25.585   9.965  37.195  0.00  0.00    +0.000 OA
ENDBRANCH   2   3
BRANCH   1  15
ATOM     13  C   UNL     1      17.049  11.588  37.049  0.00  0.00    +0.000 C 
ATOM     14  O   UNL     1      17.621  12.704  36.981  0.00  0.00    +0.000 OA
ATOM     15  N   UNL     1      17.829  10.420  37.033  0.00  0.00    +0.000 NA
BRANCH  13  20
ATOM     16  C   UNL     1      11.284  11.556  37.421  0.00  0.00    +0.000 C 
ATOM     17  C   UNL     1      12.769  11.566  37.321  0.00  0.00    +0.000 A 
ATOM     18  C   UNL     1      13.552  10.954  38.281  0.00  0.00    +0.000 A 
ATOM     19  C   UNL     1      14.928  10.967  38.183  0.00  0.00    +0.000 A 
ATOM     20  C   UNL     1      15.590  11.580  37.142  0.00  0.00    +0.000 A 
ATOM     21  C   UNL     1      14.799  12.195  36.179  0.00  0.00    +0.000 A 
ATOM     22  C   UNL     1      13.424  12.185  36.271  0.00  0.00    +0.000 A 
ENDBRANCH  13  20
ENDBRANCH   1  15
TORSDOF 3
ENDMDL
MODEL 5
REMARK VINA RESULT:      -7.1     19.445     21.676
REMARK  Name = 
REMARK  3 active torsions:
REMARK  status: ('A' for Active; 'I' for Inactive)
REMARK    1  A    between atoms: C_5  and  C_6
REMARK    2  A    between atoms: N_8  and  N_9
REMARK    3  A    between atoms: C_10  and  C_11
REMARK                            x       y       z     vdW  Elec       q    Type
REMARK                         _______ _______ _______ _____ _____    ______ ____
ROOT
ATOM      1  N   UNL     1      33.020  -0.369  34.075  0.00  0.00    +0.000 NA
ATOM      2  C   UNL     1      33.108  -1.409  34.811  0.00  0.00    +0.000 C 
ENDROOT
BRANCH   2   3
ATOM      3  C   UNL     1      32.968  -2.737  34.234  0.00  0.00    +0.000 A 
ATOM      4  C   UNL     1      33.693  -3.081  33.117  0.00  0.00    +0.000 A 
ATOM      5  C   UNL     1      33.565  -4.343  32.563  0.00  0.00    +0.000 A 
ATOM      6  C   UNL     1      32.708  -5.287  33.114  0.00  0.00    +0.000 A 
ATOM      7  C   UNL     1      31.982  -4.943  34.232  0.00  0.00    +0.000 A 
ATOM      8  C   UNL     1      32.118  -3.673  34.780  0.00  0.00    +0.000 A 
ATOM      9  O   UNL     1      31.135  -5.909  34.758  0.00  0.00    +0.000 OA
ATOM     10  C   UNL     1      30.470  -6.774  33.863  0.00  0.00    +0.000 C 
ATOM     11  C   UNL     1      31.277  -7.162  32.670  0.00  0.00    +0.000 C 
ATOM     12  O   UNL     1      32.545  -6.558  32.599  0.00  0.00    +0.000 OA
ENDBRANCH   2   3
BRANCH   1  15
ATOM     13  C   UNL     1      33.624   2.014  33.794  0.00  0.00    +0.000 C 
ATOM     14  O   UNL     1      33.970   1.812  32.603  0.00  0.00    +0.000 OA
ATOM     15  N   UNL     1      33.144   0.937  34.557  0.00  0.00    +0.000 NA
BRANCH  13  20
ATOM     16  C   UNL     1      34.113   7.395  35.837  0.00  0.00    +0.000 C 
ATOM     17  C   UNL     1      33.990   6.007  35.314  0.00  0.00    +0.000 A 
ATOM     18  C   UNL     1      33.094   5.702  34.308  0.00  0.00    +0.000 A 
ATOM     19  C   UNL     1      32.985   4.414  33.826  0.00  0.00    +0.000 A 
ATOM     20  C   UNL     1      33.749   3.375  34.312  0.00  0.00    +0.000 A 
ATOM     21  C   UNL     1      34.649   3.686  35.324  0.00  0.00    +0.000 A 
ATOM     22  C   UNL     1      34.763   4.972  35.809  0.00  0.00    +0.000 A 
ENDBRANCH  13  20
ENDBRANCH   1  15
TORSDOF 3
ENDMDL
MODEL 6
REMARK VINA RESULT:      -7.1     21.592     26.573
REMARK  Name = 
REMARK  3 active torsions:
REMARK  status: ('A' for Active; 'I' for Inactive)
REMARK    1  A    between atoms: C_5  and  C_6
REMARK    2  A    between atoms: N_8  and  N_9
REMARK    3  A    between atoms: C_10  and  C_11
REMARK                            x       y       z     vdW  Elec       q    Type
REMARK                         _______ _______ _______ _____ _____    ______ ____
ROOT
ATOM      1  N   UNL     1      29.685  24.943  21.142  0.00  0.00    +0.000 NA
ATOM      2  C   UNL     1      28.631  24.390  21.604  0.00  0.00    +0.000 C 
ENDROOT
BRANCH   2   3
ATOM      3  C   UNL     1      28.624  23.812  22.940  0.00  0.00    +0.000 A 
ATOM      4  C   UNL     1      27.432  23.618  23.599  0.00  0.00    +0.000 A 
ATOM      5  C   UNL     1      27.418  23.070  24.869  0.00  0.00    +0.000 A 
ATOM      6  C   UNL     1      28.597  22.703  25.508  0.00  0.00    +0.000 A 
ATOM      7  C   UNL     1      29.790  22.898  24.849  0.00  0.00    +0.000 A 
ATOM      8  C   UNL     1      29.792  23.450  23.573  0.00  0.00    +0.000 A 
ATOM      9  O   UNL     1      30.948  22.522  25.514  0.00  0.00    +0.000 OA
ATOM     10  C   UNL     1      31.007  22.708  26.912  0.00  0.00    +0.000 C 
ATOM     11  C   UNL     1      29.715  22.467  27.618  0.00  0.00    +0.000 C 
ATOM     12  O   UNL     1      28.636  22.153  26.774  0.00  0.00    +0.000 OA
ENDBRANCH   2   3
BRANCH   1  15
ATOM     13  C   UNL     1      29.748  26.902  19.633  0.00  0.00    +0.000 C 
ATOM     14  O   UNL     1      29.653  27.688  20.608  0.00  0.00    +0.000 OA
ATOM     15  N   UNL     1      29.767  25.519  19.871  0.00  0.00    +0.000 NA
BRANCH  13  20
ATOM     16  C   UNL     1      30.082  29.230  14.356  0.00  0.00    +0.000 C 
ATOM     17  C   UNL     1      30.000  28.629  15.715  0.00  0.00    +0.000 A 
ATOM     18  C   UNL     1      28.894  28.830  16.518  0.00  0.00    +0.000 A 
ATOM     19  C   UNL     1      28.823  28.269  17.776  0.00  0.00    +0.000 A 
ATOM     20  C   UNL     1      29.834  27.491  18.297  0.00  0.00    +0.000 A 
ATOM     21  C   UNL     1      30.945  27.292  17.487  0.00  0.00    +0.000 A 
ATOM     22  C   UNL     1      31.021  27.849  16.228  0.00  0.00    +0.000 A 
ENDBRANCH  13  20
ENDBRANCH   1  15
TORSDOF 3
ENDMDL
MODEL 7
REMARK VINA RESULT:      -7.1      2.100      9.682
REMARK  Name = 
REMARK  3 active torsions:
REMARK  status: ('A' for Active; 'I' for Inactive)
REMARK    1  A    between atoms: C_5  and  C_6
REMARK    2  A    between atoms: N_8  and  N_9
REMARK    3  A    between atoms: C_10  and  C_11
REMARK                            x       y       z     vdW  Elec       q    Type
REMARK                         _______ _______ _______ _____ _____    ______ ____
ROOT
ATOM      1  N   UNL     1      17.064  10.181  37.267  0.00  0.00    +0.000 NA
ATOM      2  C   UNL     1      16.684  10.297  38.481  0.00  0.00    +0.000 C 
ENDROOT
BRANCH   2   3
ATOM      3  C   UNL     1      17.361   9.566  39.541  0.00  0.00    +0.000 A 
ATOM      4  C   UNL     1      18.560   8.942  39.288  0.00  0.00    +0.000 A 
ATOM      5  C   UNL     1      19.210   8.245  40.291  0.00  0.00    +0.000 A 
ATOM      6  C   UNL     1      18.673   8.156  41.570  0.00  0.00    +0.000 A 
ATOM      7  C   UNL     1      17.472   8.780  41.823  0.00  0.00    +0.000 A 
ATOM      8  C   UNL     1      16.829   9.478  40.808  0.00  0.00    +0.000 A 
ATOM      9  O   UNL     1      16.963   8.673  43.110  0.00  0.00    +0.000 OA
ATOM     10  C   UNL     1      17.160   7.463  43.808  0.00  0.00    +0.000 C 
ATOM     11  C   UNL     1      18.476   6.811  43.547  0.00  0.00    +0.000 C 
ATOM     12  O   UNL     1      19.281   7.473  42.604  0.00  0.00    +0.000 OA
ENDBRANCH   2   3
BRANCH   1  15
ATOM     13  C   UNL     1      16.667  10.517  34.849  0.00  0.00    +0.000 C 
ATOM     14  O   UNL     1      17.431   9.562  34.564  0.00  0.00    +0.000 OA
ATOM     15  N   UNL     1      16.464  10.851  36.197  0.00  0.00    +0.000 NA
BRANCH  13  20
ATOM     16  C   UNL     1      14.156  13.327  30.469  0.00  0.00    +0.000 C 
ATOM     17  C   UNL     1      14.805  12.601  31.595  0.00  0.00    +0.000 A 
ATOM     18  C   UNL     1      14.478  12.882  32.907  0.00  0.00    +0.000 A 
ATOM     19  C   UNL     1      15.083  12.205  33.946  0.00  0.00    +0.000 A 
ATOM     20  C   UNL     1      16.032  11.228  33.739  0.00  0.00    +0.000 A 
ATOM     21  C   UNL     1      16.358  10.949  32.418  0.00  0.00    +0.000 A 
ATOM     22  C   UNL     1      15.757  11.621  31.375  0.00  0.00    +0.000 A 
ENDBRANCH  13  20
ENDBRANCH   1  15
TORSDOF 3
ENDMDL
MODEL 8
REMARK VINA RESULT:      -7.0     19.909     22.049
REMARK  Name = 
REMARK  3 active torsions:
REMARK  status: ('A' for Active; 'I' for Inactive)
REMARK    1  A    between atoms: C_5  and  C_6
REMARK    2  A    between atoms: N_8  and  N_9
REMARK    3  A    between atoms: C_10  and  C_11
REMARK                            x       y       z     vdW  Elec       q    Type
REMARK                         _______ _______ _______ _____ _____    ______ ____
ROOT
ATOM      1  N   UNL     1      32.943  -0.688  34.041  0.00  0.00    +0.000 NA
ATOM      2  C   UNL     1      33.012  -1.726  34.782  0.00  0.00    +0.000 C 
ENDROOT
BRANCH   2   3
ATOM      3  C   UNL     1      32.886  -3.056  34.206  0.00  0.00    +0.000 A 
ATOM      4  C   UNL     1      32.066  -3.987  34.800  0.00  0.00    +0.000 A 
ATOM      5  C   UNL     1      31.942  -5.254  34.257  0.00  0.00    +0.000 A 
ATOM      6  C   UNL     1      32.636  -5.617  33.109  0.00  0.00    +0.000 A 
ATOM      7  C   UNL     1      33.457  -4.685  32.515  0.00  0.00    +0.000 A 
ATOM      8  C   UNL     1      33.574  -3.415  33.069  0.00  0.00    +0.000 A 
ATOM      9  O   UNL     1      34.135  -5.079  31.370  0.00  0.00    +0.000 OA
ATOM     10  C   UNL     1      34.597  -6.409  31.290  0.00  0.00    +0.000 C 
ATOM     11  C   UNL     1      33.685  -7.413  31.913  0.00  0.00    +0.000 C 
ATOM     12  O   UNL     1      32.546  -6.867  32.529  0.00  0.00    +0.000 OA
ENDBRANCH   2   3
BRANCH   1  15
ATOM     13  C   UNL     1      33.546   1.695  33.765  0.00  0.00    +0.000 C 
ATOM     14  O   UNL     1      33.913   1.492  32.582  0.00  0.00    +0.000 OA
ATOM     15  N   UNL     1      33.055   0.620  34.522  0.00  0.00    +0.000 NA
BRANCH  13  20
ATOM     16  C   UNL     1      33.992   7.079  35.811  0.00  0.00    +0.000 C 
ATOM     17  C   UNL     1      33.875   5.694  35.281  0.00  0.00    +0.000 A 
ATOM     18  C   UNL     1      34.475   4.630  35.927  0.00  0.00    +0.000 A 
ATOM     19  C   UNL     1      34.362   3.348  35.431  0.00  0.00    +0.000 A 
ATOM     20  C   UNL     1      33.658   3.059  34.282  0.00  0.00    +0.000 A 
ATOM     21  C   UNL     1      33.057   4.131  33.636  0.00  0.00    +0.000 A 
ATOM     22  C   UNL     1      33.166   5.414  34.127  0.00  0.00    +0.000 A 
ENDBRANCH  13  20
ENDBRANCH   1  15
TORSDOF 3
ENDMDL
MODEL 9
REMARK VINA RESULT:      -6.8     21.090     23.188
REMARK  Name = 
REMARK  3 active torsions:
REMARK  status: ('A' for Active; 'I' for Inactive)
REMARK    1  A    between atoms: C_5  and  C_6
REMARK    2  A    between atoms: N_8  and  N_9
REMARK    3  A    between atoms: C_10  and  C_11
REMARK                            x       y       z     vdW  Elec       q    Type
REMARK                         _______ _______ _______ _____ _____    ______ ____
ROOT
ATOM      1  N   UNL     1      15.938  -7.989  25.875  0.00  0.00    +0.000 NA
ATOM      2  C   UNL     1      16.724  -7.374  26.674  0.00  0.00    +0.000 C 
ENDROOT
BRANCH   2   3
ATOM      3  C   UNL     1      18.114  -7.145  26.312  0.00  0.00    +0.000 A 
ATOM      4  C   UNL     1      18.610  -5.862  26.266  0.00  0.00    +0.000 A 
ATOM      5  C   UNL     1      19.931  -5.636  25.922  0.00  0.00    +0.000 A 
ATOM      6  C   UNL     1      20.785  -6.688  25.617  0.00  0.00    +0.000 A 
ATOM      7  C   UNL     1      20.290  -7.972  25.662  0.00  0.00    +0.000 A 
ATOM      8  C   UNL     1      18.961  -8.187  26.008  0.00  0.00    +0.000 A 
ATOM      9  O   UNL     1      21.169  -9.001  25.352  0.00  0.00    +0.000 OA
ATOM     10  C   UNL     1      22.135  -8.775  24.349  0.00  0.00    +0.000 C 
ATOM     11  C   UNL     1      22.685  -7.388  24.328  0.00  0.00    +0.000 C 
ATOM     12  O   UNL     1      22.110  -6.516  25.269  0.00  0.00    +0.000 OA
ENDBRANCH   2   3
BRANCH   1  15
ATOM     13  C   UNL     1      13.613  -8.452  25.169  0.00  0.00    +0.000 C 
ATOM     14  O   UNL     1      13.945  -8.407  23.959  0.00  0.00    +0.000 OA
ATOM     15  N   UNL     1      14.593  -8.245  26.154  0.00  0.00    +0.000 NA
BRANCH  13  20
ATOM     16  C   UNL     1       8.065  -9.507  26.383  0.00  0.00    +0.000 C 
ATOM     17  C   UNL     1       9.493  -9.235  26.066  0.00  0.00    +0.000 A 
ATOM     18  C   UNL     1      10.446  -9.174  27.065  0.00  0.00    +0.000 A 
ATOM     19  C   UNL     1      11.769  -8.922  26.765  0.00  0.00    +0.000 A 
ATOM     20  C   UNL     1      12.208  -8.719  25.475  0.00  0.00    +0.000 A 
ATOM     21  C   UNL     1      11.248  -8.780  24.474  0.00  0.00    +0.000 A 
ATOM     22  C   UNL     1       9.924  -9.032  24.768  0.00  0.00    +0.000 A 
ENDBRANCH  13  20
ENDBRANCH   1  15
TORSDOF 3
ENDMDL
MODEL 10
REMARK VINA RESULT:      -6.7     19.047     21.080
REMARK  Name = 
REMARK  3 active torsions:
REMARK  status: ('A' for Active; 'I' for Inactive)
REMARK    1  A    between atoms: C_5  and  C_6
REMARK    2  A    between atoms: N_8  and  N_9
REMARK    3  A    between atoms: C_10  and  C_11
REMARK                            x       y       z     vdW  Elec       q    Type
REMARK                         _______ _______ _______ _____ _____    ______ ____
ROOT
ATOM      1  N   UNL     1      33.636   0.810  34.337  0.00  0.00    +0.000 NA
ATOM      2  C   UNL     1      33.547   1.829  33.571  0.00  0.00    +0.000 C 
ENDROOT
BRANCH   2   3
ATOM      3  C   UNL     1      33.613   3.175  34.120  0.00  0.00    +0.000 A 
ATOM      4  C   UNL     1      32.868   4.184  33.556  0.00  0.00    +0.000 A 
ATOM      5  C   UNL     1      32.926   5.467  34.073  0.00  0.00    +0.000 A 
ATOM      6  C   UNL     1      33.731   5.767  35.164  0.00  0.00    +0.000 A 
ATOM      7  C   UNL     1      34.478   4.757  35.728  0.00  0.00    +0.000 A 
ATOM      8  C   UNL     1      34.412   3.473  35.201  0.00  0.00    +0.000 A 
ATOM      9  O   UNL     1      35.273   5.090  36.817  0.00  0.00    +0.000 OA
ATOM     10  C   UNL     1      35.887   6.360  36.832  0.00  0.00    +0.000 C 
ATOM     11  C   UNL     1      35.057   7.451  36.244  0.00  0.00    +0.000 C 
ATOM     12  O   UNL     1      33.824   7.029  35.716  0.00  0.00    +0.000 OA
ENDBRANCH   2   3
BRANCH   1  15
ATOM     13  C   UNL     1      32.916  -1.546  34.558  0.00  0.00    +0.000 C 
ATOM     14  O   UNL     1      32.329  -1.292  35.639  0.00  0.00    +0.000 OA
ATOM     15  N   UNL     1      33.581  -0.510  33.882  0.00  0.00    +0.000 NA
BRANCH  13  20
ATOM     16  C   UNL     1      32.728  -6.988  32.630  0.00  0.00    +0.000 C 
ATOM     17  C   UNL     1      32.774  -5.587  33.129  0.00  0.00    +0.000 A 
ATOM     18  C   UNL     1      33.607  -4.650  32.550  0.00  0.00    +0.000 A 
ATOM     19  C   UNL     1      33.645  -3.353  33.017  0.00  0.00    +0.000 A 
ATOM     20  C   UNL     1      32.868  -2.924  34.071  0.00  0.00    +0.000 A 
ATOM     21  C   UNL     1      32.031  -3.869  34.651  0.00  0.00    +0.000 A 
ATOM     22  C   UNL     1      31.989  -5.167  34.188  0.00  0.00    +0.000 A 
ENDBRANCH  13  20
ENDBRANCH   1  15
TORSDOF 3
ENDMDL
