MODEL 1
REMARK VINA RESULT:      -8.5      0.000      0.000
REMARK  Name = 
REMARK  7 active torsions:
REMARK  status: ('A' for Active; 'I' for Inactive)
REMARK    1  A    between atoms: C_2  and  C_3
REMARK    2  A    between atoms: C_6  and  N_7
REMARK    3  A    between atoms: C_8  and  C_10
REMARK    4  A    between atoms: C_10  and  S_11
REMARK    5  A    between atoms: S_11  and  C_12
REMARK    6  A    between atoms: C_15  and  C_16
REMARK    7  A    between atoms: C_16  and  C_17
REMARK                            x       y       z     vdW  Elec       q    Type
REMARK                         _______ _______ _______ _____ _____    ______ ____
ROOT
ATOM      1  C   UNL     1      35.970   2.264  15.181  0.00  0.00    +0.000 A 
ATOM      2  N   UNL     1      35.142   2.727  16.170  0.00  0.00    +0.000 NA
ATOM      3  N   UNL     1      34.660   1.694  16.791  0.00  0.00    +0.000 NA
ATOM      4  C   UNL     1      35.142   0.568  16.246  0.00  0.00    +0.000 A 
ATOM      5  N   UNL     1      35.973   0.916  15.224  0.00  0.00    +0.000 N 
ATOM      6  C   UNL     1      36.689   0.011  14.346  0.00  0.00    +0.000 C 
ENDROOT
BRANCH   1   7
ATOM      7  S   UNL     1      36.794   3.386  14.078  0.00  0.00    +0.000 S 
BRANCH   7   8
ATOM      8  C   UNL     1      36.648   5.081  14.582  0.00  0.00    +0.000 C 
BRANCH   8  10
ATOM      9  N   UNL     1      38.543   4.789  16.307  0.00  0.00    +0.000 NA
ATOM     10  C   UNL     1      37.613   5.531  15.578  0.00  0.00    +0.000 C 
ATOM     11  O   UNL     1      37.623   6.799  15.834  0.00  0.00    +0.000 OA
BRANCH   9  15
ATOM     12  C   UNL     1      41.179   6.557  19.145  0.00  0.00    +0.000 A 
ATOM     13  C   UNL     1      41.546   6.497  17.803  0.00  0.00    +0.000 A 
ATOM     14  C   UNL     1      40.646   5.905  16.902  0.00  0.00    +0.000 A 
ATOM     15  C   UNL     1      39.437   5.389  17.268  0.00  0.00    +0.000 A 
ATOM     16  C   UNL     1      39.075   5.452  18.598  0.00  0.00    +0.000 A 
ATOM     17  C   UNL     1      39.965   6.040  19.510  0.00  0.00    +0.000 A 
BRANCH  12  19
ATOM     18  C   UNL     1      42.821   6.127  20.966  0.00  0.00    +0.000 C 
ATOM     19  C   UNL     1      42.099   7.173  20.149  0.00  0.00    +0.000 C 
ENDBRANCH  12  19
ENDBRANCH   9  15
ENDBRANCH   8  10
ENDBRANCH   7   8
ENDBRANCH   1   7
BRANCH   4  20
ATOM     20  C   UNL     1      34.891  -0.846  16.613  0.00  0.00    +0.000 C 
BRANCH  20  21
ATOM     21  C   UNL     1      35.982  -1.318  17.544  0.00  0.00    +0.000 A 
ATOM     22  C   UNL     1      36.328  -0.593  18.640  0.00  0.00    +0.000 A 
ATOM     23  C   UNL     1      37.325  -1.025  19.491  0.00  0.00    +0.000 A 
ATOM     24  C   UNL     1      37.956  -2.211  19.195  0.00  0.00    +0.000 A 
ATOM     25  C   UNL     1      37.611  -2.945  18.091  0.00  0.00    +0.000 A 
ATOM     26  C   UNL     1      38.227  -4.131  17.780  0.00  0.00    +0.000 A 
ATOM     27  C   UNL     1      37.851  -4.844  16.661  0.00  0.00    +0.000 A 
ATOM     28  C   UNL     1      36.856  -4.379  15.844  0.00  0.00    +0.000 A 
ATOM     29  C   UNL     1      36.241  -3.207  16.146  0.00  0.00    +0.000 A 
ATOM     30  C   UNL     1      36.623  -2.499  17.266  0.00  0.00    +0.000 A 
ENDBRANCH  20  21
ENDBRANCH   4  20
TORSDOF 7
ENDMDL
MODEL 2
REMARK VINA RESULT:      -8.4      3.431      5.221
REMARK  Name = 
REMARK  7 active torsions:
REMARK  status: ('A' for Active; 'I' for Inactive)
REMARK    1  A    between atoms: C_2  and  C_3
REMARK    2  A    between atoms: C_6  and  N_7
REMARK    3  A    between atoms: C_8  and  C_10
REMARK    4  A    between atoms: C_10  and  S_11
REMARK    5  A    between atoms: S_11  and  C_12
REMARK    6  A    between atoms: C_15  and  C_16
REMARK    7  A    between atoms: C_16  and  C_17
REMARK                            x       y       z     vdW  Elec       q    Type
REMARK                         _______ _______ _______ _____ _____    ______ ____
ROOT
ATOM      1  C   UNL     1      36.759   3.670  15.749  0.00  0.00    +0.000 A 
ATOM      2  N   UNL     1      37.468   3.590  16.920  0.00  0.00    +0.000 NA
ATOM      3  N   UNL     1      37.013   2.571  17.582  0.00  0.00    +0.000 NA
ATOM      4  C   UNL     1      36.030   1.978  16.889  0.00  0.00    +0.000 A 
ATOM      5  N   UNL     1      35.860   2.667  15.726  0.00  0.00    +0.000 N 
ATOM      6  C   UNL     1      34.884   2.386  14.690  0.00  0.00    +0.000 C 
ENDROOT
BRANCH   1   7
ATOM      7  S   UNL     1      37.067   4.972  14.581  0.00  0.00    +0.000 S 
BRANCH   7   8
ATOM      8  C   UNL     1      37.970   4.422  13.155  0.00  0.00    +0.000 C 
BRANCH   8  10
ATOM      9  N   UNL     1      38.078   1.850  13.305  0.00  0.00    +0.000 NA
ATOM     10  C   UNL     1      38.633   3.131  13.285  0.00  0.00    +0.000 C 
ATOM     11  O   UNL     1      39.921   3.156  13.397  0.00  0.00    +0.000 OA
BRANCH   9  15
ATOM     12  C   UNL     1      40.440  -1.669  13.716  0.00  0.00    +0.000 A 
ATOM     13  C   UNL     1      39.887  -1.347  12.478  0.00  0.00    +0.000 A 
ATOM     14  C   UNL     1      39.115  -0.177  12.389  0.00  0.00    +0.000 A 
ATOM     15  C   UNL     1      38.880   0.657  13.443  0.00  0.00    +0.000 A 
ATOM     16  C   UNL     1      39.429   0.336  14.667  0.00  0.00    +0.000 A 
ATOM     17  C   UNL     1      40.202  -0.831  14.771  0.00  0.00    +0.000 A 
BRANCH  12  19
ATOM     18  C   UNL     1      42.237  -3.078  12.723  0.00  0.00    +0.000 C 
ATOM     19  C   UNL     1      41.267  -2.904  13.870  0.00  0.00    +0.000 C 
ENDBRANCH  12  19
ENDBRANCH   9  15
ENDBRANCH   8  10
ENDBRANCH   7   8
ENDBRANCH   1   7
BRANCH   4  20
ATOM     20  C   UNL     1      35.217   0.786  17.228  0.00  0.00    +0.000 C 
BRANCH  20  21
ATOM     21  C   UNL     1      36.133  -0.325  17.683  0.00  0.00    +0.000 A 
ATOM     22  C   UNL     1      36.545  -0.408  18.976  0.00  0.00    +0.000 A 
ATOM     23  C   UNL     1      37.382  -1.424  19.390  0.00  0.00    +0.000 A 
ATOM     24  C   UNL     1      37.785  -2.348  18.455  0.00  0.00    +0.000 A 
ATOM     25  C   UNL     1      37.373  -2.269  17.150  0.00  0.00    +0.000 A 
ATOM     26  C   UNL     1      37.762  -3.183  16.204  0.00  0.00    +0.000 A 
ATOM     27  C   UNL     1      37.325  -3.072  14.901  0.00  0.00    +0.000 A 
ATOM     28  C   UNL     1      36.495  -2.048  14.532  0.00  0.00    +0.000 A 
ATOM     29  C   UNL     1      36.104  -1.141  15.464  0.00  0.00    +0.000 A 
ATOM     30  C   UNL     1      36.546  -1.258  16.765  0.00  0.00    +0.000 A 
ENDBRANCH  20  21
ENDBRANCH   4  20
TORSDOF 7
ENDMDL
MODEL 3
REMARK VINA RESULT:      -8.3      2.002      2.807
REMARK  Name = 
REMARK  7 active torsions:
REMARK  status: ('A' for Active; 'I' for Inactive)
REMARK    1  A    between atoms: C_2  and  C_3
REMARK    2  A    between atoms: C_6  and  N_7
REMARK    3  A    between atoms: C_8  and  C_10
REMARK    4  A    between atoms: C_10  and  S_11
REMARK    5  A    between atoms: S_11  and  C_12
REMARK    6  A    between atoms: C_15  and  C_16
REMARK    7  A    between atoms: C_16  and  C_17
REMARK                            x       y       z     vdW  Elec       q    Type
REMARK                         _______ _______ _______ _____ _____    ______ ____
ROOT
ATOM      1  C   UNL     1      39.013   1.598  13.445  0.00  0.00    +0.000 A 
ATOM      2  N   UNL     1      39.976   1.175  14.324  0.00  0.00    +0.000 NA
ATOM      3  N   UNL     1      39.488   0.167  14.981  0.00  0.00    +0.000 NA
ATOM      4  C   UNL     1      38.239  -0.088  14.565  0.00  0.00    +0.000 A 
ATOM      5  N   UNL     1      37.927   0.813  13.592  0.00  0.00    +0.000 N 
ATOM      6  C   UNL     1      36.666   0.917  12.883  0.00  0.00    +0.000 C 
ENDROOT
BRANCH   1   7
ATOM      7  S   UNL     1      39.293   2.996  12.387  0.00  0.00    +0.000 S 
BRANCH   7   8
ATOM      8  C   UNL     1      38.342   4.419  12.856  0.00  0.00    +0.000 C 
BRANCH   8  10
ATOM      9  N   UNL     1      39.487   4.482  15.166  0.00  0.00    +0.000 NA
ATOM     10  C   UNL     1      38.633   4.967  14.175  0.00  0.00    +0.000 C 
ATOM     11  O   UNL     1      38.020   6.063  14.488  0.00  0.00    +0.000 OA
BRANCH   9  15
ATOM     12  C   UNL     1      40.016   6.452  18.904  0.00  0.00    +0.000 A 
ATOM     13  C   UNL     1      38.992   5.519  18.752  0.00  0.00    +0.000 A 
ATOM     14  C   UNL     1      38.855   4.894  17.502  0.00  0.00    +0.000 A 
ATOM     15  C   UNL     1      39.665   5.149  16.435  0.00  0.00    +0.000 A 
ATOM     16  C   UNL     1      40.679   6.072  16.589  0.00  0.00    +0.000 A 
ATOM     17  C   UNL     1      40.828   6.705  17.832  0.00  0.00    +0.000 A 
BRANCH  12  19
ATOM     18  C   UNL     1      38.964   7.898  20.637  0.00  0.00    +0.000 C 
ATOM     19  C   UNL     1      40.207   7.150  20.212  0.00  0.00    +0.000 C 
ENDBRANCH  12  19
ENDBRANCH   9  15
ENDBRANCH   8  10
ENDBRANCH   7   8
ENDBRANCH   1   7
BRANCH   4  20
ATOM     20  C   UNL     1      37.288  -1.136  15.007  0.00  0.00    +0.000 C 
BRANCH  20  21
ATOM     21  C   UNL     1      36.824  -0.822  16.410  0.00  0.00    +0.000 A 
ATOM     22  C   UNL     1      35.922   0.167  16.644  0.00  0.00    +0.000 A 
ATOM     23  C   UNL     1      35.498   0.452  17.925  0.00  0.00    +0.000 A 
ATOM     24  C   UNL     1      36.016  -0.297  18.957  0.00  0.00    +0.000 A 
ATOM     25  C   UNL     1      36.926  -1.295  18.727  0.00  0.00    +0.000 A 
ATOM     26  C   UNL     1      37.452  -2.053  19.741  0.00  0.00    +0.000 A 
ATOM     27  C   UNL     1      38.364  -3.051  19.470  0.00  0.00    +0.000 A 
ATOM     28  C   UNL     1      38.757  -3.301  18.183  0.00  0.00    +0.000 A 
ATOM     29  C   UNL     1      38.240  -2.555  17.173  0.00  0.00    +0.000 A 
ATOM     30  C   UNL     1      37.328  -1.558  17.452  0.00  0.00    +0.000 A 
ENDBRANCH  20  21
ENDBRANCH   4  20
TORSDOF 7
ENDMDL
MODEL 4
REMARK VINA RESULT:      -8.3      1.253      2.340
REMARK  Name = 
REMARK  7 active torsions:
REMARK  status: ('A' for Active; 'I' for Inactive)
REMARK    1  A    between atoms: C_2  and  C_3
REMARK    2  A    between atoms: C_6  and  N_7
REMARK    3  A    between atoms: C_8  and  C_10
REMARK    4  A    between atoms: C_10  and  S_11
REMARK    5  A    between atoms: S_11  and  C_12
REMARK    6  A    between atoms: C_15  and  C_16
REMARK    7  A    between atoms: C_16  and  C_17
REMARK                            x       y       z     vdW  Elec       q    Type
REMARK                         _______ _______ _______ _____ _____    ______ ____
ROOT
ATOM      1  C   UNL     1      37.371   3.058  14.589  0.00  0.00    +0.000 A 
ATOM      2  N   UNL     1      38.489   2.330  14.910  0.00  0.00    +0.000 NA
ATOM      3  N   UNL     1      38.089   1.228  15.469  0.00  0.00    +0.000 NA
ATOM      4  C   UNL     1      36.750   1.206  15.527  0.00  0.00    +0.000 A 
ATOM      5  N   UNL     1      36.284   2.360  14.973  0.00  0.00    +0.000 N 
ATOM      6  C   UNL     1      34.896   2.762  14.853  0.00  0.00    +0.000 C 
ENDROOT
BRANCH   1   7
ATOM      7  S   UNL     1      37.509   4.660  13.837  0.00  0.00    +0.000 S 
BRANCH   7   8
ATOM      8  C   UNL     1      37.091   5.982  14.945  0.00  0.00    +0.000 C 
BRANCH   8  10
ATOM      9  N   UNL     1      38.960   5.395  16.622  0.00  0.00    +0.000 NA
ATOM     10  C   UNL     1      38.064   6.261  15.994  0.00  0.00    +0.000 C 
ATOM     11  O   UNL     1      38.120   7.484  16.413  0.00  0.00    +0.000 OA
BRANCH   9  15
ATOM     12  C   UNL     1      41.638   6.677  19.675  0.00  0.00    +0.000 A 
ATOM     13  C   UNL     1      42.071   6.620  18.352  0.00  0.00    +0.000 A 
ATOM     14  C   UNL     1      41.155   6.191  17.379  0.00  0.00    +0.000 A 
ATOM     15  C   UNL     1      39.868   5.831  17.656  0.00  0.00    +0.000 A 
ATOM     16  C   UNL     1      39.441   5.890  18.967  0.00  0.00    +0.000 A 
ATOM     17  C   UNL     1      40.346   6.316  19.951  0.00  0.00    +0.000 A 
BRANCH  12  19
ATOM     18  C   UNL     1      43.428   5.986  21.262  0.00  0.00    +0.000 C 
ATOM     19  C   UNL     1      42.571   7.123  20.753  0.00  0.00    +0.000 C 
ENDBRANCH  12  19
ENDBRANCH   9  15
ENDBRANCH   8  10
ENDBRANCH   7   8
ENDBRANCH   1   7
BRANCH   4  20
ATOM     20  C   UNL     1      35.842   0.165  16.066  0.00  0.00    +0.000 C 
BRANCH  20  21
ATOM     21  C   UNL     1      36.493  -1.189  15.909  0.00  0.00    +0.000 A 
ATOM     22  C   UNL     1      36.506  -1.824  14.707  0.00  0.00    +0.000 A 
ATOM     23  C   UNL     1      37.101  -3.061  14.566  0.00  0.00    +0.000 A 
ATOM     24  C   UNL     1      37.681  -3.629  15.676  0.00  0.00    +0.000 A 
ATOM     25  C   UNL     1      37.670  -2.992  16.890  0.00  0.00    +0.000 A 
ATOM     26  C   UNL     1      38.245  -3.541  18.008  0.00  0.00    +0.000 A 
ATOM     27  C   UNL     1      38.216  -2.869  19.212  0.00  0.00    +0.000 A 
ATOM     28  C   UNL     1      37.615  -1.643  19.309  0.00  0.00    +0.000 A 
ATOM     29  C   UNL     1      37.045  -1.093  18.206  0.00  0.00    +0.000 A 
ATOM     30  C   UNL     1      37.077  -1.771  17.005  0.00  0.00    +0.000 A 
ENDBRANCH  20  21
ENDBRANCH   4  20
TORSDOF 7
ENDMDL
MODEL 5
REMARK VINA RESULT:      -8.3      1.545      2.125
REMARK  Name = 
REMARK  7 active torsions:
REMARK  status: ('A' for Active; 'I' for Inactive)
REMARK    1  A    between atoms: C_2  and  C_3
REMARK    2  A    between atoms: C_6  and  N_7
REMARK    3  A    between atoms: C_8  and  C_10
REMARK    4  A    between atoms: C_10  and  S_11
REMARK    5  A    between atoms: S_11  and  C_12
REMARK    6  A    between atoms: C_15  and  C_16
REMARK    7  A    between atoms: C_16  and  C_17
REMARK                            x       y       z     vdW  Elec       q    Type
REMARK                         _______ _______ _______ _____ _____    ______ ____
ROOT
ATOM      1  C   UNL     1      37.858   2.901  14.516  0.00  0.00    +0.000 A 
ATOM      2  N   UNL     1      39.019   2.219  14.772  0.00  0.00    +0.000 NA
ATOM      3  N   UNL     1      38.694   1.006  15.103  0.00  0.00    +0.000 NA
ATOM      4  C   UNL     1      37.361   0.867  15.074  0.00  0.00    +0.000 A 
ATOM      5  N   UNL     1      36.820   2.061  14.703  0.00  0.00    +0.000 N 
ATOM      6  C   UNL     1      35.408   2.366  14.569  0.00  0.00    +0.000 C 
ENDROOT
BRANCH   1   7
ATOM      7  S   UNL     1      37.887   4.618  14.067  0.00  0.00    +0.000 S 
BRANCH   7   8
ATOM      8  C   UNL     1      37.520   5.696  15.429  0.00  0.00    +0.000 C 
BRANCH   8  10
ATOM      9  N   UNL     1      39.306   6.799  16.927  0.00  0.00    +0.000 NA
ATOM     10  C   UNL     1      38.516   5.734  16.492  0.00  0.00    +0.000 C 
ATOM     11  O   UNL     1      38.708   4.629  17.137  0.00  0.00    +0.000 OA
BRANCH   9  15
ATOM     12  C   UNL     1      42.110   6.424  20.109  0.00  0.00    +0.000 A 
ATOM     13  C   UNL     1      42.564   6.559  18.799  0.00  0.00    +0.000 A 
ATOM     14  C   UNL     1      41.604   6.680  17.782  0.00  0.00    +0.000 A 
ATOM     15  C   UNL     1      40.258   6.673  18.005  0.00  0.00    +0.000 A 
ATOM     16  C   UNL     1      39.811   6.540  19.304  0.00  0.00    +0.000 A 
ATOM     17  C   UNL     1      40.759   6.418  20.331  0.00  0.00    +0.000 A 
BRANCH  12  19
ATOM     18  C   UNL     1      43.746   7.608  21.566  0.00  0.00    +0.000 C 
ATOM     19  C   UNL     1      43.087   6.289  21.232  0.00  0.00    +0.000 C 
ENDBRANCH  12  19
ENDBRANCH   9  15
ENDBRANCH   8  10
ENDBRANCH   7   8
ENDBRANCH   1   7
BRANCH   4  20
ATOM     20  C   UNL     1      36.525  -0.323  15.364  0.00  0.00    +0.000 C 
BRANCH  20  21
ATOM     21  C   UNL     1      36.485  -0.547  16.857  0.00  0.00    +0.000 A 
ATOM     22  C   UNL     1      35.681   0.203  17.656  0.00  0.00    +0.000 A 
ATOM     23  C   UNL     1      35.645  -0.004  19.019  0.00  0.00    +0.000 A 
ATOM     24  C   UNL     1      36.447  -0.991  19.544  0.00  0.00    +0.000 A 
ATOM     25  C   UNL     1      37.259  -1.750  18.743  0.00  0.00    +0.000 A 
ATOM     26  C   UNL     1      38.063  -2.741  19.246  0.00  0.00    +0.000 A 
ATOM     27  C   UNL     1      38.865  -3.485  18.407  0.00  0.00    +0.000 A 
ATOM     28  C   UNL     1      38.871  -3.248  17.059  0.00  0.00    +0.000 A 
ATOM     29  C   UNL     1      38.076  -2.270  16.554  0.00  0.00    +0.000 A 
ATOM     30  C   UNL     1      37.276  -1.528  17.398  0.00  0.00    +0.000 A 
ENDBRANCH  20  21
ENDBRANCH   4  20
TORSDOF 7
ENDMDL
MODEL 6
REMARK VINA RESULT:      -8.2      3.315      8.601
REMARK  Name = 
REMARK  7 active torsions:
REMARK  status: ('A' for Active; 'I' for Inactive)
REMARK    1  A    between atoms: C_2  and  C_3
REMARK    2  A    between atoms: C_6  and  N_7
REMARK    3  A    between atoms: C_8  and  C_10
REMARK    4  A    between atoms: C_10  and  S_11
REMARK    5  A    between atoms: S_11  and  C_12
REMARK    6  A    between atoms: C_15  and  C_16
REMARK    7  A    between atoms: C_16  and  C_17
REMARK                            x       y       z     vdW  Elec       q    Type
REMARK                         _______ _______ _______ _____ _____    ______ ____
ROOT
ATOM      1  C   UNL     1      36.643   3.294  16.221  0.00  0.00    +0.000 A 
ATOM      2  N   UNL     1      37.299   2.970  17.380  0.00  0.00    +0.000 NA
ATOM      3  N   UNL     1      38.144   3.924  17.629  0.00  0.00    +0.000 NA
ATOM      4  C   UNL     1      38.066   4.863  16.675  0.00  0.00    +0.000 A 
ATOM      5  N   UNL     1      37.119   4.474  15.776  0.00  0.00    +0.000 N 
ATOM      6  C   UNL     1      36.729   5.181  14.572  0.00  0.00    +0.000 C 
ENDROOT
BRANCH   1   7
ATOM      7  S   UNL     1      35.425   2.205  15.526  0.00  0.00    +0.000 S 
BRANCH   7   8
ATOM      8  C   UNL     1      35.727   0.497  15.905  0.00  0.00    +0.000 C 
BRANCH   8  10
ATOM      9  N   UNL     1      38.169  -0.328  16.003  0.00  0.00    +0.000 NA
ATOM     10  C   UNL     1      36.957  -0.064  15.362  0.00  0.00    +0.000 C 
ATOM     11  O   UNL     1      36.942  -0.368  14.104  0.00  0.00    +0.000 OA
BRANCH   9  15
ATOM     12  C   UNL     1      41.523  -1.992  13.976  0.00  0.00    +0.000 A 
ATOM     13  C   UNL     1      41.258  -0.628  13.872  0.00  0.00    +0.000 A 
ATOM     14  C   UNL     1      40.142  -0.123  14.557  0.00  0.00    +0.000 A 
ATOM     15  C   UNL     1      39.307  -0.890  15.316  0.00  0.00    +0.000 A 
ATOM     16  C   UNL     1      39.572  -2.241  15.418  0.00  0.00    +0.000 A 
ATOM     17  C   UNL     1      40.685  -2.760  14.738  0.00  0.00    +0.000 A 
BRANCH  12  19
ATOM     18  C   UNL     1      42.805  -2.085  11.843  0.00  0.00    +0.000 C 
ATOM     19  C   UNL     1      42.697  -2.585  13.266  0.00  0.00    +0.000 C 
ENDBRANCH  12  19
ENDBRANCH   9  15
ENDBRANCH   8  10
ENDBRANCH   7   8
ENDBRANCH   1   7
BRANCH   4  20
ATOM     20  C   UNL     1      38.819   6.132  16.530  0.00  0.00    +0.000 C 
BRANCH  20  21
ATOM     21  C   UNL     1      39.472   6.474  17.849  0.00  0.00    +0.000 A 
ATOM     22  C   UNL     1      40.687   5.963  18.180  0.00  0.00    +0.000 A 
ATOM     23  C   UNL     1      41.283   6.276  19.385  0.00  0.00    +0.000 A 
ATOM     24  C   UNL     1      40.609   7.120  20.238  0.00  0.00    +0.000 A 
ATOM     25  C   UNL     1      39.384   7.637  19.908  0.00  0.00    +0.000 A 
ATOM     26  C   UNL     1      38.698   8.482  20.743  0.00  0.00    +0.000 A 
ATOM     27  C   UNL     1      37.467   8.984  20.376  0.00  0.00    +0.000 A 
ATOM     28  C   UNL     1      36.912   8.648  19.170  0.00  0.00    +0.000 A 
ATOM     29  C   UNL     1      37.586   7.813  18.338  0.00  0.00    +0.000 A 
ATOM     30  C   UNL     1      38.816   7.314  18.712  0.00  0.00    +0.000 A 
ENDBRANCH  20  21
ENDBRANCH   4  20
TORSDOF 7
ENDMDL
MODEL 7
REMARK VINA RESULT:      -8.1     25.890     28.472
REMARK  Name = 
REMARK  7 active torsions:
REMARK  status: ('A' for Active; 'I' for Inactive)
REMARK    1  A    between atoms: C_2  and  C_3
REMARK    2  A    between atoms: C_6  and  N_7
REMARK    3  A    between atoms: C_8  and  C_10
REMARK    4  A    between atoms: C_10  and  S_11
REMARK    5  A    between atoms: S_11  and  C_12
REMARK    6  A    between atoms: C_15  and  C_16
REMARK    7  A    between atoms: C_16  and  C_17
REMARK                            x       y       z     vdW  Elec       q    Type
REMARK                         _______ _______ _______ _____ _____    ______ ____
ROOT
ATOM      1  C   UNL     1      24.483  15.569  40.331  0.00  0.00    +0.000 A 
ATOM      2  N   UNL     1      23.642  14.862  39.510  0.00  0.00    +0.000 NA
ATOM      3  N   UNL     1      24.197  14.806  38.338  0.00  0.00    +0.000 NA
ATOM      4  C   UNL     1      25.373  15.451  38.359  0.00  0.00    +0.000 A 
ATOM      5  N   UNL     1      25.564  15.940  39.616  0.00  0.00    +0.000 N 
ATOM      6  C   UNL     1      26.693  16.725  40.076  0.00  0.00    +0.000 C 
ENDROOT
BRANCH   1   7
ATOM      7  S   UNL     1      24.048  15.896  42.021  0.00  0.00    +0.000 S 
BRANCH   7   8
ATOM      8  C   UNL     1      24.373  14.522  43.097  0.00  0.00    +0.000 C 
BRANCH   8  10
ATOM      9  N   UNL     1      25.596  12.896  41.513  0.00  0.00    +0.000 NA
ATOM     10  C   UNL     1      25.457  13.640  42.686  0.00  0.00    +0.000 C 
ATOM     11  O   UNL     1      26.443  13.518  43.515  0.00  0.00    +0.000 OA
BRANCH   9  15
ATOM     12  C   UNL     1      28.983  10.431  40.749  0.00  0.00    +0.000 A 
ATOM     13  C   UNL     1      27.790   9.854  41.177  0.00  0.00    +0.000 A 
ATOM     14  C   UNL     1      26.699  10.705  41.417  0.00  0.00    +0.000 A 
ATOM     15  C   UNL     1      26.744  12.059  41.254  0.00  0.00    +0.000 A 
ATOM     16  C   UNL     1      27.927  12.627  40.829  0.00  0.00    +0.000 A 
ATOM     17  C   UNL     1      29.026  11.789  40.585  0.00  0.00    +0.000 A 
BRANCH  12  19
ATOM     18  C   UNL     1      30.238   8.385  41.413  0.00  0.00    +0.000 C 
ATOM     19  C   UNL     1      30.178   9.574  40.482  0.00  0.00    +0.000 C 
ENDBRANCH  12  19
ENDBRANCH   9  15
ENDBRANCH   8  10
ENDBRANCH   7   8
ENDBRANCH   1   7
BRANCH   4  20
ATOM     20  C   UNL     1      26.364  15.651  37.275  0.00  0.00    +0.000 C 
BRANCH  20  21
ATOM     21  C   UNL     1      25.787  16.592  36.243  0.00  0.00    +0.000 A 
ATOM     22  C   UNL     1      25.492  17.880  36.560  0.00  0.00    +0.000 A 
ATOM     23  C   UNL     1      24.966  18.739  35.617  0.00  0.00    +0.000 A 
ATOM     24  C   UNL     1      24.751  18.251  34.349  0.00  0.00    +0.000 A 
ATOM     25  C   UNL     1      25.047  16.953  34.025  0.00  0.00    +0.000 A 
ATOM     26  C   UNL     1      24.842  16.448  32.766  0.00  0.00    +0.000 A 
ATOM     27  C   UNL     1      25.154  15.137  32.477  0.00  0.00    +0.000 A 
ATOM     28  C   UNL     1      25.675  14.318  33.443  0.00  0.00    +0.000 A 
ATOM     29  C   UNL     1      25.882  14.811  34.691  0.00  0.00    +0.000 A 
ATOM     30  C   UNL     1      25.567  16.124  34.973  0.00  0.00    +0.000 A 
ENDBRANCH  20  21
ENDBRANCH   4  20
TORSDOF 7
ENDMDL
MODEL 8
REMARK VINA RESULT:      -8.0      1.341      2.161
REMARK  Name = 
REMARK  7 active torsions:
REMARK  status: ('A' for Active; 'I' for Inactive)
REMARK    1  A    between atoms: C_2  and  C_3
REMARK    2  A    between atoms: C_6  and  N_7
REMARK    3  A    between atoms: C_8  and  C_10
REMARK    4  A    between atoms: C_10  and  S_11
REMARK    5  A    between atoms: S_11  and  C_12
REMARK    6  A    between atoms: C_15  and  C_16
REMARK    7  A    between atoms: C_16  and  C_17
REMARK                            x       y       z     vdW  Elec       q    Type
REMARK                         _______ _______ _______ _____ _____    ______ ____
ROOT
ATOM      1  C   UNL     1      37.228   2.075  15.089  0.00  0.00    +0.000 A 
ATOM      2  N   UNL     1      38.247   1.167  14.959  0.00  0.00    +0.000 NA
ATOM      3  N   UNL     1      37.944   0.136  15.688  0.00  0.00    +0.000 NA
ATOM      4  C   UNL     1      36.764   0.334  16.292  0.00  0.00    +0.000 A 
ATOM      5  N   UNL     1      36.300   1.560  15.920  0.00  0.00    +0.000 N 
ATOM      6  C   UNL     1      35.069   2.188  16.360  0.00  0.00    +0.000 C 
ENDROOT
BRANCH   1   7
ATOM      7  S   UNL     1      37.295   3.647  14.266  0.00  0.00    +0.000 S 
BRANCH   7   8
ATOM      8  C   UNL     1      37.102   5.018  15.376  0.00  0.00    +0.000 C 
BRANCH   8  10
ATOM      9  N   UNL     1      38.657   6.388  16.911  0.00  0.00    +0.000 NA
ATOM     10  C   UNL     1      38.177   5.208  16.341  0.00  0.00    +0.000 C 
ATOM     11  O   UNL     1      38.785   4.137  16.739  0.00  0.00    +0.000 OA
BRANCH   9  15
ATOM     12  C   UNL     1      41.863   6.449  19.713  0.00  0.00    +0.000 A 
ATOM     13  C   UNL     1      40.546   6.428  20.168  0.00  0.00    +0.000 A 
ATOM     14  C   UNL     1      39.521   6.408  19.208  0.00  0.00    +0.000 A 
ATOM     15  C   UNL     1      39.743   6.408  17.862  0.00  0.00    +0.000 A 
ATOM     16  C   UNL     1      41.048   6.428  17.415  0.00  0.00    +0.000 A 
ATOM     17  C   UNL     1      42.083   6.448  18.362  0.00  0.00    +0.000 A 
BRANCH  12  19
ATOM     18  C   UNL     1      44.128   7.353  20.214  0.00  0.00    +0.000 C 
ATOM     19  C   UNL     1      42.994   6.474  20.689  0.00  0.00    +0.000 C 
ENDBRANCH  12  19
ENDBRANCH   9  15
ENDBRANCH   8  10
ENDBRANCH   7   8
ENDBRANCH   1   7
BRANCH   4  20
ATOM     20  C   UNL     1      36.007  -0.552  17.208  0.00  0.00    +0.000 C 
BRANCH  20  21
ATOM     21  C   UNL     1      36.747  -1.861  17.354  0.00  0.00    +0.000 A 
ATOM     22  C   UNL     1      37.847  -1.958  18.146  0.00  0.00    +0.000 A 
ATOM     23  C   UNL     1      38.522  -3.154  18.279  0.00  0.00    +0.000 A 
ATOM     24  C   UNL     1      38.046  -4.244  17.586  0.00  0.00    +0.000 A 
ATOM     25  C   UNL     1      36.937  -4.151  16.787  0.00  0.00    +0.000 A 
ATOM     26  C   UNL     1      36.445  -5.226  16.091  0.00  0.00    +0.000 A 
ATOM     27  C   UNL     1      35.325  -5.095  15.299  0.00  0.00    +0.000 A 
ATOM     28  C   UNL     1      34.685  -3.889  15.195  0.00  0.00    +0.000 A 
ATOM     29  C   UNL     1      35.165  -2.821  15.882  0.00  0.00    +0.000 A 
ATOM     30  C   UNL     1      36.287  -2.959  16.673  0.00  0.00    +0.000 A 
ENDBRANCH  20  21
ENDBRANCH   4  20
TORSDOF 7
ENDMDL
MODEL 9
REMARK VINA RESULT:      -8.0      3.285      5.285
REMARK  Name = 
REMARK  7 active torsions:
REMARK  status: ('A' for Active; 'I' for Inactive)
REMARK    1  A    between atoms: C_2  and  C_3
REMARK    2  A    between atoms: C_6  and  N_7
REMARK    3  A    between atoms: C_8  and  C_10
REMARK    4  A    between atoms: C_10  and  S_11
REMARK    5  A    between atoms: S_11  and  C_12
REMARK    6  A    between atoms: C_15  and  C_16
REMARK    7  A    between atoms: C_16  and  C_17
REMARK                            x       y       z     vdW  Elec       q    Type
REMARK                         _______ _______ _______ _____ _____    ______ ____
ROOT
ATOM      1  C   UNL     1      36.825   4.083  15.847  0.00  0.00    +0.000 A 
ATOM      2  N   UNL     1      37.564   3.866  16.981  0.00  0.00    +0.000 NA
ATOM      3  N   UNL     1      37.128   2.773  17.528  0.00  0.00    +0.000 NA
ATOM      4  C   UNL     1      36.128   2.263  16.793  0.00  0.00    +0.000 A 
ATOM      5  N   UNL     1      35.927   3.085  15.726  0.00  0.00    +0.000 N 
ATOM      6  C   UNL     1      34.925   2.926  14.689  0.00  0.00    +0.000 C 
ENDROOT
BRANCH   1   7
ATOM      7  S   UNL     1      37.100   5.518  14.837  0.00  0.00    +0.000 S 
BRANCH   7   8
ATOM      8  C   UNL     1      38.300   5.243  13.558  0.00  0.00    +0.000 C 
BRANCH   8  10
ATOM      9  N   UNL     1      38.290   2.675  13.318  0.00  0.00    +0.000 NA
ATOM     10  C   UNL     1      38.898   3.914  13.526  0.00  0.00    +0.000 C 
ATOM     11  O   UNL     1      40.177   3.856  13.714  0.00  0.00    +0.000 OA
BRANCH   9  15
ATOM     12  C   UNL     1      40.473  -0.981  13.310  0.00  0.00    +0.000 A 
ATOM     13  C   UNL     1      40.240  -0.316  14.512  0.00  0.00    +0.000 A 
ATOM     14  C   UNL     1      39.515   0.886  14.467  0.00  0.00    +0.000 A 
ATOM     15  C   UNL     1      39.029   1.435  13.317  0.00  0.00    +0.000 A 
ATOM     16  C   UNL     1      39.261   0.774  12.128  0.00  0.00    +0.000 A 
ATOM     17  C   UNL     1      39.983  -0.428  12.157  0.00  0.00    +0.000 A 
BRANCH  12  19
ATOM     18  C   UNL     1      41.201  -2.956  14.640  0.00  0.00    +0.000 C 
ATOM     19  C   UNL     1      41.240  -2.263  13.297  0.00  0.00    +0.000 C 
ENDBRANCH  12  19
ENDBRANCH   9  15
ENDBRANCH   8  10
ENDBRANCH   7   8
ENDBRANCH   1   7
BRANCH   4  20
ATOM     20  C   UNL     1      35.326   1.034  17.006  0.00  0.00    +0.000 C 
BRANCH  20  21
ATOM     21  C   UNL     1      36.063  -0.146  16.417  0.00  0.00    +0.000 A 
ATOM     22  C   UNL     1      36.042  -0.387  15.080  0.00  0.00    +0.000 A 
ATOM     23  C   UNL     1      36.716  -1.464  14.543  0.00  0.00    +0.000 A 
ATOM     24  C   UNL     1      37.408  -2.285  15.403  0.00  0.00    +0.000 A 
ATOM     25  C   UNL     1      37.432  -2.047  16.752  0.00  0.00    +0.000 A 
ATOM     26  C   UNL     1      38.119  -2.852  17.625  0.00  0.00    +0.000 A 
ATOM     27  C   UNL     1      38.122  -2.578  18.976  0.00  0.00    +0.000 A 
ATOM     28  C   UNL     1      37.440  -1.498  19.467  0.00  0.00    +0.000 A 
ATOM     29  C   UNL     1      36.759  -0.695  18.609  0.00  0.00    +0.000 A 
ATOM     30  C   UNL     1      36.760  -0.975  17.258  0.00  0.00    +0.000 A 
ENDBRANCH  20  21
ENDBRANCH   4  20
TORSDOF 7
ENDMDL
MODEL 10
REMARK VINA RESULT:      -7.8      2.141      2.481
REMARK  Name = 
REMARK  7 active torsions:
REMARK  status: ('A' for Active; 'I' for Inactive)
REMARK    1  A    between atoms: C_2  and  C_3
REMARK    2  A    between atoms: C_6  and  N_7
REMARK    3  A    between atoms: C_8  and  C_10
REMARK    4  A    between atoms: C_10  and  S_11
REMARK    5  A    between atoms: S_11  and  C_12
REMARK    6  A    between atoms: C_15  and  C_16
REMARK    7  A    between atoms: C_16  and  C_17
REMARK                            x       y       z     vdW  Elec       q    Type
REMARK                         _______ _______ _______ _____ _____    ______ ____
ROOT
ATOM      1  C   UNL     1      37.454   1.824  14.167  0.00  0.00    +0.000 A 
ATOM      2  N   UNL     1      36.821   1.352  15.288  0.00  0.00    +0.000 NA
ATOM      3  N   UNL     1      36.825   0.055  15.222  0.00  0.00    +0.000 NA
ATOM      4  C   UNL     1      37.438  -0.342  14.097  0.00  0.00    +0.000 A 
ATOM      5  N   UNL     1      37.840   0.770  13.420  0.00  0.00    +0.000 N 
ATOM      6  C   UNL     1      38.521   0.804  12.140  0.00  0.00    +0.000 C 
ENDROOT
BRANCH   1   7
ATOM      7  S   UNL     1      37.614   3.568  13.874  0.00  0.00    +0.000 S 
BRANCH   7   8
ATOM      8  C   UNL     1      37.066   4.552  15.245  0.00  0.00    +0.000 C 
BRANCH   8  10
ATOM      9  N   UNL     1      38.611   6.089  16.625  0.00  0.00    +0.000 NA
ATOM     10  C   UNL     1      38.076   4.855  16.251  0.00  0.00    +0.000 C 
ATOM     11  O   UNL     1      38.557   3.846  16.902  0.00  0.00    +0.000 OA
BRANCH   9  15
ATOM     12  C   UNL     1      41.579   6.480  19.653  0.00  0.00    +0.000 A 
ATOM     13  C   UNL     1      41.957   6.444  18.313  0.00  0.00    +0.000 A 
ATOM     14  C   UNL     1      40.945   6.314  17.348  0.00  0.00    +0.000 A 
ATOM     15  C   UNL     1      39.618   6.222  17.650  0.00  0.00    +0.000 A 
ATOM     16  C   UNL     1      39.246   6.259  18.979  0.00  0.00    +0.000 A 
ATOM     17  C   UNL     1      40.246   6.388  19.954  0.00  0.00    +0.000 A 
BRANCH  12  19
ATOM     18  C   UNL     1      43.811   7.408  20.251  0.00  0.00    +0.000 C 
ATOM     19  C   UNL     1      42.614   6.614  20.722  0.00  0.00    +0.000 C 
ENDBRANCH  12  19
ENDBRANCH   9  15
ENDBRANCH   8  10
ENDBRANCH   7   8
ENDBRANCH   1   7
BRANCH   4  20
ATOM     20  C   UNL     1      37.694  -1.711  13.590  0.00  0.00    +0.000 C 
BRANCH  20  21
ATOM     21  C   UNL     1      38.004  -2.621  14.755  0.00  0.00    +0.000 A 
ATOM     22  C   UNL     1      39.169  -2.503  15.444  0.00  0.00    +0.000 A 
ATOM     23  C   UNL     1      39.450  -3.334  16.509  0.00  0.00    +0.000 A 
ATOM     24  C   UNL     1      38.516  -4.284  16.850  0.00  0.00    +0.000 A 
ATOM     25  C   UNL     1      37.340  -4.408  16.158  0.00  0.00    +0.000 A 
ATOM     26  C   UNL     1      36.395  -5.347  16.484  0.00  0.00    +0.000 A 
ATOM     27  C   UNL     1      35.222  -5.440  15.765  0.00  0.00    +0.000 A 
ATOM     28  C   UNL     1      34.982  -4.595  14.716  0.00  0.00    +0.000 A 
ATOM     29  C   UNL     1      35.912  -3.661  14.388  0.00  0.00    +0.000 A 
ATOM     30  C   UNL     1      37.084  -3.575  15.111  0.00  0.00    +0.000 A 
ENDBRANCH  20  21
ENDBRANCH   4  20
TORSDOF 7
ENDMDL
