MODEL 1
REMARK VINA RESULT:      -6.6      0.000      0.000
REMARK  Name = 
REMARK  5 active torsions:
REMARK  status: ('A' for Active; 'I' for Inactive)
REMARK    1  A    between atoms: C_2  and  C_12
REMARK    2  A    between atoms: N_3  and  C_4
REMARK    3  A    between atoms: C_4  and  N_6
REMARK    4  A    between atoms: N_6  and  C_7
REMARK    5  A    between atoms: C_15  and  N_16
REMARK                            x       y       z     vdW  Elec       q    Type
REMARK                         _______ _______ _______ _____ _____    ______ ____
ROOT
ATOM      1  O   UNL     1      17.802   8.772  35.715  0.00  0.00    +0.000 OA
ATOM      2  C   UNL     1      17.523   9.984  35.876  0.00  0.00    +0.000 C 
ATOM      3  N   UNL     1      17.970  10.601  37.053  0.00  0.00    +0.000 NA
ENDROOT
BRANCH   2   4
ATOM      4  C   UNL     1      16.757  10.644  34.825  0.00  0.00    +0.000 A 
ATOM      5  C   UNL     1      15.745  11.532  35.121  0.00  0.00    +0.000 A 
ATOM      6  C   UNL     1      15.006  12.169  34.145  0.00  0.00    +0.000 A 
ATOM      7  C   UNL     1      15.246  11.947  32.807  0.00  0.00    +0.000 A 
ATOM      8  C   UNL     1      16.256  11.061  32.503  0.00  0.00    +0.000 A 
ATOM      9  C   UNL     1      16.994  10.425  33.483  0.00  0.00    +0.000 A 
BRANCH   7  10
ATOM     10  N   UNL     1      14.485  12.604  31.791  0.00  0.00    +0.000 N 
ATOM     11  O   UNL     1      14.428  12.097  30.654  0.00  0.00    +0.000 OA
ATOM     12  O   UNL     1      13.812  13.768  32.004  0.00  0.00    +0.000 OA
ENDBRANCH   7  10
ENDBRANCH   2   4
BRANCH   3  13
ATOM     13  C   UNL     1      18.717   9.951  38.075  0.00  0.00    +0.000 C 
ATOM     14  S   UNL     1      17.871   9.482  39.388  0.00  0.00    +0.000 S 
BRANCH  13  15
ATOM     15  N   UNL     1      20.088   9.703  38.014  0.00  0.00    +0.000 NA
BRANCH  15  16
ATOM     16  C   UNL     1      20.996  10.502  37.245  0.00  0.00    +0.000 C 
ATOM     17  C   UNL     1      21.839  11.444  38.019  0.00  0.00    +0.000 C 
ATOM     18  C   UNL     1      23.258  11.279  37.516  0.00  0.00    +0.000 C 
ATOM     19  C   UNL     1      23.272   9.883  36.936  0.00  0.00    +0.000 C 
ATOM     20  C   UNL     1      21.885   9.686  36.411  0.00  0.00    +0.000 C 
ENDBRANCH  15  16
ENDBRANCH  13  15
ENDBRANCH   3  13
TORSDOF 5
ENDMDL
MODEL 2
REMARK VINA RESULT:      -6.4      2.396      3.931
REMARK  Name = 
REMARK  5 active torsions:
REMARK  status: ('A' for Active; 'I' for Inactive)
REMARK    1  A    between atoms: C_2  and  C_12
REMARK    2  A    between atoms: N_3  and  C_4
REMARK    3  A    between atoms: C_4  and  N_6
REMARK    4  A    between atoms: N_6  and  C_7
REMARK    5  A    between atoms: C_15  and  N_16
REMARK                            x       y       z     vdW  Elec       q    Type
REMARK                         _______ _______ _______ _____ _____    ______ ____
ROOT
ATOM      1  O   UNL     1      16.328  10.654  37.666  0.00  0.00    +0.000 OA
ATOM      2  C   UNL     1      17.139  10.462  36.730  0.00  0.00    +0.000 C 
ATOM      3  N   UNL     1      18.402   9.953  37.060  0.00  0.00    +0.000 NA
ENDROOT
BRANCH   2   4
ATOM      4  C   UNL     1      16.695  10.786  35.378  0.00  0.00    +0.000 A 
ATOM      5  C   UNL     1      17.297  10.227  34.271  0.00  0.00    +0.000 A 
ATOM      6  C   UNL     1      16.897  10.518  32.982  0.00  0.00    +0.000 A 
ATOM      7  C   UNL     1      15.861  11.392  32.734  0.00  0.00    +0.000 A 
ATOM      8  C   UNL     1      15.256  11.954  33.836  0.00  0.00    +0.000 A 
ATOM      9  C   UNL     1      15.659  11.661  35.125  0.00  0.00    +0.000 A 
BRANCH   7  10
ATOM     10  N   UNL     1      15.442  11.696  31.402  0.00  0.00    +0.000 N 
ATOM     11  O   UNL     1      14.535  11.017  30.883  0.00  0.00    +0.000 OA
ATOM     12  O   UNL     1      15.987  12.702  30.663  0.00  0.00    +0.000 OA
ENDBRANCH   7  10
ENDBRANCH   2   4
BRANCH   3  13
ATOM     13  C   UNL     1      18.828   9.639  38.381  0.00  0.00    +0.000 C 
ATOM     14  S   UNL     1      19.668  10.803  39.156  0.00  0.00    +0.000 S 
BRANCH  13  15
ATOM     15  N   UNL     1      18.574   8.428  39.026  0.00  0.00    +0.000 NA
BRANCH  15  16
ATOM     16  C   UNL     1      18.134   8.342  40.386  0.00  0.00    +0.000 C 
ATOM     17  C   UNL     1      16.757   8.824  40.650  0.00  0.00    +0.000 C 
ATOM     18  C   UNL     1      16.076   7.769  41.496  0.00  0.00    +0.000 C 
ATOM     19  C   UNL     1      16.847   6.507  41.183  0.00  0.00    +0.000 C 
ATOM     20  C   UNL     1      18.242   6.980  40.920  0.00  0.00    +0.000 C 
ENDBRANCH  15  16
ENDBRANCH  13  15
ENDBRANCH   3  13
TORSDOF 5
ENDMDL
MODEL 3
REMARK VINA RESULT:      -6.1      1.041      1.879
REMARK  Name = 
REMARK  5 active torsions:
REMARK  status: ('A' for Active; 'I' for Inactive)
REMARK    1  A    between atoms: C_2  and  C_12
REMARK    2  A    between atoms: N_3  and  C_4
REMARK    3  A    between atoms: C_4  and  N_6
REMARK    4  A    between atoms: N_6  and  C_7
REMARK    5  A    between atoms: C_15  and  N_16
REMARK                            x       y       z     vdW  Elec       q    Type
REMARK                         _______ _______ _______ _____ _____    ______ ____
ROOT
ATOM      1  O   UNL     1      17.772   8.865  35.468  0.00  0.00    +0.000 OA
ATOM      2  C   UNL     1      17.512  10.085  35.591  0.00  0.00    +0.000 C 
ATOM      3  N   UNL     1      18.024  10.746  36.717  0.00  0.00    +0.000 NA
ENDROOT
BRANCH   2   4
ATOM      4  C   UNL     1      16.700  10.709  34.552  0.00  0.00    +0.000 A 
ATOM      5  C   UNL     1      16.920  10.452  33.216  0.00  0.00    +0.000 A 
ATOM      6  C   UNL     1      16.167  11.030  32.214  0.00  0.00    +0.000 A 
ATOM      7  C   UNL     1      15.143  11.905  32.504  0.00  0.00    +0.000 A 
ATOM      8  C   UNL     1      14.918  12.167  33.837  0.00  0.00    +0.000 A 
ATOM      9  C   UNL     1      15.674  11.586  34.837  0.00  0.00    +0.000 A 
BRANCH   7  10
ATOM     10  N   UNL     1      14.359  12.507  31.471  0.00  0.00    +0.000 N 
ATOM     11  O   UNL     1      14.427  12.048  30.314  0.00  0.00    +0.000 OA
ATOM     12  O   UNL     1      13.531  13.567  31.688  0.00  0.00    +0.000 OA
ENDBRANCH   7  10
ENDBRANCH   2   4
BRANCH   3  13
ATOM     13  C   UNL     1      18.816  10.131  37.726  0.00  0.00    +0.000 C 
ATOM     14  S   UNL     1      18.005   9.568  39.025  0.00  0.00    +0.000 S 
BRANCH  13  15
ATOM     15  N   UNL     1      20.203   9.991  37.666  0.00  0.00    +0.000 NA
BRANCH  15  16
ATOM     16  C   UNL     1      21.113  10.967  38.186  0.00  0.00    +0.000 C 
ATOM     17  C   UNL     1      20.593  12.354  38.265  0.00  0.00    +0.000 C 
ATOM     18  C   UNL     1      20.939  12.876  39.644  0.00  0.00    +0.000 C 
ATOM     19  C   UNL     1      21.089  11.620  40.474  0.00  0.00    +0.000 C 
ATOM     20  C   UNL     1      21.619  10.603  39.514  0.00  0.00    +0.000 C 
ENDBRANCH  15  16
ENDBRANCH  13  15
ENDBRANCH   3  13
TORSDOF 5
ENDMDL
MODEL 4
REMARK VINA RESULT:      -6.0      3.175      3.678
REMARK  Name = 
REMARK  5 active torsions:
REMARK  status: ('A' for Active; 'I' for Inactive)
REMARK    1  A    between atoms: C_2  and  C_12
REMARK    2  A    between atoms: N_3  and  C_4
REMARK    3  A    between atoms: C_4  and  N_6
REMARK    4  A    between atoms: N_6  and  C_7
REMARK    5  A    between atoms: C_15  and  N_16
REMARK                            x       y       z     vdW  Elec       q    Type
REMARK                         _______ _______ _______ _____ _____    ______ ____
ROOT
ATOM      1  O   UNL     1      19.065  10.019  38.018  0.00  0.00    +0.000 OA
ATOM      2  C   UNL     1      18.640  11.197  38.069  0.00  0.00    +0.000 C 
ATOM      3  N   UNL     1      19.549  12.199  38.435  0.00  0.00    +0.000 NA
ENDROOT
BRANCH   2   4
ATOM      4  C   UNL     1      17.235  11.420  37.743  0.00  0.00    +0.000 A 
ATOM      5  C   UNL     1      16.852  12.388  36.839  0.00  0.00    +0.000 A 
ATOM      6  C   UNL     1      15.531  12.621  36.515  0.00  0.00    +0.000 A 
ATOM      7  C   UNL     1      14.515  11.885  37.085  0.00  0.00    +0.000 A 
ATOM      8  C   UNL     1      14.890  10.917  37.989  0.00  0.00    +0.000 A 
ATOM      9  C   UNL     1      16.214  10.688  38.311  0.00  0.00    +0.000 A 
BRANCH   7  10
ATOM     10  N   UNL     1      13.144  12.120  36.753  0.00  0.00    +0.000 N 
ATOM     11  O   UNL     1      12.320  11.196  36.895  0.00  0.00    +0.000 OA
ATOM     12  O   UNL     1      12.688  13.314  36.282  0.00  0.00    +0.000 OA
ENDBRANCH   7  10
ENDBRANCH   2   4
BRANCH   3  13
ATOM     13  C   UNL     1      20.918  11.974  38.751  0.00  0.00    +0.000 C 
ATOM     14  S   UNL     1      21.274  11.862  40.339  0.00  0.00    +0.000 S 
BRANCH  13  15
ATOM     15  N   UNL     1      21.937  11.850  37.806  0.00  0.00    +0.000 NA
BRANCH  15  16
ATOM     16  C   UNL     1      22.729  10.665  37.659  0.00  0.00    +0.000 C 
ATOM     17  C   UNL     1      22.467   9.862  36.440  0.00  0.00    +0.000 C 
ATOM     18  C   UNL     1      23.815   9.537  35.830  0.00  0.00    +0.000 C 
ATOM     19  C   UNL     1      24.718  10.631  36.355  0.00  0.00    +0.000 C 
ATOM     20  C   UNL     1      24.167  10.948  37.709  0.00  0.00    +0.000 C 
ENDBRANCH  15  16
ENDBRANCH  13  15
ENDBRANCH   3  13
TORSDOF 5
ENDMDL
MODEL 5
REMARK VINA RESULT:      -6.0     18.192     20.990
REMARK  Name = 
REMARK  5 active torsions:
REMARK  status: ('A' for Active; 'I' for Inactive)
REMARK    1  A    between atoms: C_2  and  C_12
REMARK    2  A    between atoms: N_3  and  C_4
REMARK    3  A    between atoms: C_4  and  N_6
REMARK    4  A    between atoms: N_6  and  C_7
REMARK    5  A    between atoms: C_15  and  N_16
REMARK                            x       y       z     vdW  Elec       q    Type
REMARK                         _______ _______ _______ _____ _____    ______ ____
ROOT
ATOM      1  O   UNL     1      34.520  -2.508  35.173  0.00  0.00    +0.000 OA
ATOM      2  C   UNL     1      33.920  -1.986  34.204  0.00  0.00    +0.000 C 
ATOM      3  N   UNL     1      33.357  -2.845  33.250  0.00  0.00    +0.000 NA
ENDROOT
BRANCH   2   4
ATOM      4  C   UNL     1      33.860  -0.529  34.156  0.00  0.00    +0.000 A 
ATOM      5  C   UNL     1      33.944   0.155  32.962  0.00  0.00    +0.000 A 
ATOM      6  C   UNL     1      33.891   1.532  32.888  0.00  0.00    +0.000 A 
ATOM      7  C   UNL     1      33.748   2.303  34.022  0.00  0.00    +0.000 A 
ATOM      8  C   UNL     1      33.663   1.627  35.218  0.00  0.00    +0.000 A 
ATOM      9  C   UNL     1      33.717   0.248  35.287  0.00  0.00    +0.000 A 
BRANCH   7  10
ATOM     10  N   UNL     1      33.691   3.730  33.953  0.00  0.00    +0.000 N 
ATOM     11  O   UNL     1      32.769   4.269  33.310  0.00  0.00    +0.000 OA
ATOM     12  O   UNL     1      34.602   4.540  34.559  0.00  0.00    +0.000 OA
ENDBRANCH   7  10
ENDBRANCH   2   4
BRANCH   3  13
ATOM     13  C   UNL     1      33.419  -4.266  33.304  0.00  0.00    +0.000 C 
ATOM     14  S   UNL     1      32.363  -4.988  34.316  0.00  0.00    +0.000 S 
BRANCH  13  15
ATOM     15  N   UNL     1      34.306  -5.047  32.562  0.00  0.00    +0.000 NA
BRANCH  15  16
ATOM     16  C   UNL     1      33.881  -5.968  31.551  0.00  0.00    +0.000 C 
ATOM     17  C   UNL     1      32.646  -5.596  30.818  0.00  0.00    +0.000 C 
ATOM     18  C   UNL     1      32.937  -5.785  29.344  0.00  0.00    +0.000 C 
ATOM     19  C   UNL     1      34.442  -5.673  29.258  0.00  0.00    +0.000 C 
ATOM     20  C   UNL     1      34.929  -6.228  30.559  0.00  0.00    +0.000 C 
ENDBRANCH  15  16
ENDBRANCH  13  15
ENDBRANCH   3  13
TORSDOF 5
ENDMDL
MODEL 6
REMARK VINA RESULT:      -5.8      3.252      4.385
REMARK  Name = 
REMARK  5 active torsions:
REMARK  status: ('A' for Active; 'I' for Inactive)
REMARK    1  A    between atoms: C_2  and  C_12
REMARK    2  A    between atoms: N_3  and  C_4
REMARK    3  A    between atoms: C_4  and  N_6
REMARK    4  A    between atoms: N_6  and  C_7
REMARK    5  A    between atoms: C_15  and  N_16
REMARK                            x       y       z     vdW  Elec       q    Type
REMARK                         _______ _______ _______ _____ _____    ______ ____
ROOT
ATOM      1  O   UNL     1      18.099  10.996  38.503  0.00  0.00    +0.000 OA
ATOM      2  C   UNL     1      18.063  10.046  37.685  0.00  0.00    +0.000 C 
ATOM      3  N   UNL     1      18.569   8.809  38.106  0.00  0.00    +0.000 NA
ENDROOT
BRANCH   2   4
ATOM      4  C   UNL     1      17.496  10.313  36.368  0.00  0.00    +0.000 A 
ATOM      5  C   UNL     1      16.440  11.184  36.202  0.00  0.00    +0.000 A 
ATOM      6  C   UNL     1      15.885  11.453  34.967  0.00  0.00    +0.000 A 
ATOM      7  C   UNL     1      16.367  10.856  33.821  0.00  0.00    +0.000 A 
ATOM      8  C   UNL     1      17.422   9.986  33.980  0.00  0.00    +0.000 A 
ATOM      9  C   UNL     1      17.974   9.719  35.218  0.00  0.00    +0.000 A 
BRANCH   7  10
ATOM     10  N   UNL     1      15.798  11.131  32.539  0.00  0.00    +0.000 N 
ATOM     11  O   UNL     1      14.843  11.928  32.459  0.00  0.00    +0.000 OA
ATOM     12  O   UNL     1      16.251  10.562  31.388  0.00  0.00    +0.000 OA
ENDBRANCH   7  10
ENDBRANCH   2   4
BRANCH   3  13
ATOM     13  C   UNL     1      19.120   8.555  39.393  0.00  0.00    +0.000 C 
ATOM     14  S   UNL     1      20.605   9.170  39.667  0.00  0.00    +0.000 S 
BRANCH  13  15
ATOM     15  N   UNL     1      18.477   7.831  40.398  0.00  0.00    +0.000 NA
BRANCH  15  16
ATOM     16  C   UNL     1      18.172   6.436  40.287  0.00  0.00    +0.000 C 
ATOM     17  C   UNL     1      19.340   5.523  40.239  0.00  0.00    +0.000 C 
ATOM     18  C   UNL     1      19.062   4.401  41.217  0.00  0.00    +0.000 C 
ATOM     19  C   UNL     1      18.075   5.009  42.188  0.00  0.00    +0.000 C 
ATOM     20  C   UNL     1      17.286   5.973  41.359  0.00  0.00    +0.000 C 
ENDBRANCH  15  16
ENDBRANCH  13  15
ENDBRANCH   3  13
TORSDOF 5
ENDMDL
MODEL 7
REMARK VINA RESULT:      -5.6     18.738     21.416
REMARK  Name = 
REMARK  5 active torsions:
REMARK  status: ('A' for Active; 'I' for Inactive)
REMARK    1  A    between atoms: C_2  and  C_12
REMARK    2  A    between atoms: N_3  and  C_4
REMARK    3  A    between atoms: C_4  and  N_6
REMARK    4  A    between atoms: N_6  and  C_7
REMARK    5  A    between atoms: C_15  and  N_16
REMARK                            x       y       z     vdW  Elec       q    Type
REMARK                         _______ _______ _______ _____ _____    ______ ____
ROOT
ATOM      1  O   UNL     1      33.376  -3.516  34.978  0.00  0.00    +0.000 OA
ATOM      2  C   UNL     1      33.527  -2.905  33.893  0.00  0.00    +0.000 C 
ATOM      3  N   UNL     1      33.655  -3.674  32.729  0.00  0.00    +0.000 NA
ENDROOT
BRANCH   2   4
ATOM      4  C   UNL     1      33.556  -1.447  33.940  0.00  0.00    +0.000 A 
ATOM      5  C   UNL     1      34.012  -0.703  32.873  0.00  0.00    +0.000 A 
ATOM      6  C   UNL     1      34.050   0.677  32.892  0.00  0.00    +0.000 A 
ATOM      7  C   UNL     1      33.629   1.389  33.994  0.00  0.00    +0.000 A 
ATOM      8  C   UNL     1      33.173   0.651  35.064  0.00  0.00    +0.000 A 
ATOM      9  C   UNL     1      33.136  -0.730  35.041  0.00  0.00    +0.000 A 
BRANCH   7  10
ATOM     10  N   UNL     1      33.665   2.817  34.020  0.00  0.00    +0.000 N 
ATOM     11  O   UNL     1      33.947   3.397  35.087  0.00  0.00    +0.000 OA
ATOM     12  O   UNL     1      33.405   3.587  32.927  0.00  0.00    +0.000 OA
ENDBRANCH   7  10
ENDBRANCH   2   4
BRANCH   3  13
ATOM     13  C   UNL     1      33.625  -5.097  32.690  0.00  0.00    +0.000 C 
ATOM     14  S   UNL     1      35.012  -5.851  33.102  0.00  0.00    +0.000 S 
BRANCH  13  15
ATOM     15  N   UNL     1      32.510  -5.853  32.330  0.00  0.00    +0.000 NA
BRANCH  15  16
ATOM     16  C   UNL     1      32.243  -6.262  30.983  0.00  0.00    +0.000 C 
ATOM     17  C   UNL     1      32.837  -5.413  29.922  0.00  0.00    +0.000 C 
ATOM     18  C   UNL     1      33.498  -6.348  28.930  0.00  0.00    +0.000 C 
ATOM     19  C   UNL     1      33.775  -7.593  29.741  0.00  0.00    +0.000 C 
ATOM     20  C   UNL     1      32.654  -7.647  30.730  0.00  0.00    +0.000 C 
ENDBRANCH  15  16
ENDBRANCH  13  15
ENDBRANCH   3  13
TORSDOF 5
ENDMDL
MODEL 8
REMARK VINA RESULT:      -5.6     29.403     31.179
REMARK  Name = 
REMARK  5 active torsions:
REMARK  status: ('A' for Active; 'I' for Inactive)
REMARK    1  A    between atoms: C_2  and  C_12
REMARK    2  A    between atoms: N_3  and  C_4
REMARK    3  A    between atoms: C_4  and  N_6
REMARK    4  A    between atoms: N_6  and  C_7
REMARK    5  A    between atoms: C_15  and  N_16
REMARK                            x       y       z     vdW  Elec       q    Type
REMARK                         _______ _______ _______ _____ _____    ______ ____
ROOT
ATOM      1  O   UNL     1      32.548  20.127  10.448  0.00  0.00    +0.000 OA
ATOM      2  C   UNL     1      31.766  20.982   9.968  0.00  0.00    +0.000 C 
ATOM      3  N   UNL     1      31.898  21.290   8.607  0.00  0.00    +0.000 NA
ENDROOT
BRANCH   2   4
ATOM      4  C   UNL     1      30.788  21.580  10.869  0.00  0.00    +0.000 A 
ATOM      5  C   UNL     1      31.148  22.049  12.115  0.00  0.00    +0.000 A 
ATOM      6  C   UNL     1      30.242  22.618  12.986  0.00  0.00    +0.000 A 
ATOM      7  C   UNL     1      28.912  22.749  12.650  0.00  0.00    +0.000 A 
ATOM      8  C   UNL     1      28.544  22.283  11.407  0.00  0.00    +0.000 A 
ATOM      9  C   UNL     1      29.455  21.714  10.538  0.00  0.00    +0.000 A 
BRANCH   7  10
ATOM     10  N   UNL     1      27.969  23.338  13.547  0.00  0.00    +0.000 N 
ATOM     11  O   UNL     1      28.373  24.144  14.408  0.00  0.00    +0.000 OA
ATOM     12  O   UNL     1      26.635  23.062  13.511  0.00  0.00    +0.000 OA
ENDBRANCH   7  10
ENDBRANCH   2   4
BRANCH   3  13
ATOM     13  C   UNL     1      32.855  20.702   7.733  0.00  0.00    +0.000 C 
ATOM     14  S   UNL     1      34.252  21.524   7.547  0.00  0.00    +0.000 S 
BRANCH  13  15
ATOM     15  N   UNL     1      32.667  19.500   7.050  0.00  0.00    +0.000 NA
BRANCH  15  16
ATOM     16  C   UNL     1      31.796  19.370   5.920  0.00  0.00    +0.000 C 
ATOM     17  C   UNL     1      30.389  19.015   6.230  0.00  0.00    +0.000 C 
ATOM     18  C   UNL     1      29.513  19.958   5.432  0.00  0.00    +0.000 C 
ATOM     19  C   UNL     1      30.404  21.155   5.187  0.00  0.00    +0.000 C 
ATOM     20  C   UNL     1      31.781  20.576   5.087  0.00  0.00    +0.000 C 
ENDBRANCH  15  16
ENDBRANCH  13  15
ENDBRANCH   3  13
TORSDOF 5
ENDMDL
MODEL 9
REMARK VINA RESULT:      -5.5     29.264     30.684
REMARK  Name = 
REMARK  5 active torsions:
REMARK  status: ('A' for Active; 'I' for Inactive)
REMARK    1  A    between atoms: C_2  and  C_12
REMARK    2  A    between atoms: N_3  and  C_4
REMARK    3  A    between atoms: C_4  and  N_6
REMARK    4  A    between atoms: N_6  and  C_7
REMARK    5  A    between atoms: C_15  and  N_16
REMARK                            x       y       z     vdW  Elec       q    Type
REMARK                         _______ _______ _______ _____ _____    ______ ____
ROOT
ATOM      1  O   UNL     1      32.382  20.025  10.938  0.00  0.00    +0.000 OA
ATOM      2  C   UNL     1      31.661  20.877  10.366  0.00  0.00    +0.000 C 
ATOM      3  N   UNL     1      31.886  21.105   9.001  0.00  0.00    +0.000 NA
ENDROOT
BRANCH   2   4
ATOM      4  C   UNL     1      30.652  21.555  11.172  0.00  0.00    +0.000 A 
ATOM      5  C   UNL     1      29.347  21.668  10.744  0.00  0.00    +0.000 A 
ATOM      6  C   UNL     1      28.374  22.306  11.487  0.00  0.00    +0.000 A 
ATOM      7  C   UNL     1      28.663  22.869  12.711  0.00  0.00    +0.000 A 
ATOM      8  C   UNL     1      29.965  22.760  13.144  0.00  0.00    +0.000 A 
ATOM      9  C   UNL     1      30.936  22.121  12.398  0.00  0.00    +0.000 A 
BRANCH   7  10
ATOM     10  N   UNL     1      27.660  23.530  13.485  0.00  0.00    +0.000 N 
ATOM     11  O   UNL     1      26.509  23.052  13.520  0.00  0.00    +0.000 OA
ATOM     12  O   UNL     1      27.899  24.667  14.195  0.00  0.00    +0.000 OA
ENDBRANCH   7  10
ENDBRANCH   2   4
BRANCH   3  13
ATOM     13  C   UNL     1      32.872  20.439   8.220  0.00  0.00    +0.000 C 
ATOM     14  S   UNL     1      32.323  19.641   6.908  0.00  0.00    +0.000 S 
BRANCH  13  15
ATOM     15  N   UNL     1      34.237  20.432   8.510  0.00  0.00    +0.000 NA
BRANCH  15  16
ATOM     16  C   UNL     1      35.022  21.626   8.609  0.00  0.00    +0.000 C 
ATOM     17  C   UNL     1      34.534  22.785   7.822  0.00  0.00    +0.000 C 
ATOM     18  C   UNL     1      34.557  23.985   8.746  0.00  0.00    +0.000 C 
ATOM     19  C   UNL     1      34.475  23.374  10.127  0.00  0.00    +0.000 C 
ATOM     20  C   UNL     1      35.191  22.067   9.997  0.00  0.00    +0.000 C 
ENDBRANCH  15  16
ENDBRANCH  13  15
ENDBRANCH   3  13
TORSDOF 5
ENDMDL
MODEL 10
REMARK VINA RESULT:      -5.5     28.684     29.896
REMARK  Name = 
REMARK  5 active torsions:
REMARK  status: ('A' for Active; 'I' for Inactive)
REMARK    1  A    between atoms: C_2  and  C_12
REMARK    2  A    between atoms: N_3  and  C_4
REMARK    3  A    between atoms: C_4  and  N_6
REMARK    4  A    between atoms: N_6  and  C_7
REMARK    5  A    between atoms: C_15  and  N_16
REMARK                            x       y       z     vdW  Elec       q    Type
REMARK                         _______ _______ _______ _____ _____    ______ ____
ROOT
ATOM      1  O   UNL     1      32.534  20.264  10.423  0.00  0.00    +0.000 OA
ATOM      2  C   UNL     1      32.419  21.449  10.816  0.00  0.00    +0.000 C 
ATOM      3  N   UNL     1      33.553  22.271  10.737  0.00  0.00    +0.000 NA
ENDROOT
BRANCH   2   4
ATOM      4  C   UNL     1      31.117  21.869  11.320  0.00  0.00    +0.000 A 
ATOM      5  C   UNL     1      29.960  21.638  10.606  0.00  0.00    +0.000 A 
ATOM      6  C   UNL     1      28.716  22.026  11.060  0.00  0.00    +0.000 A 
ATOM      7  C   UNL     1      28.565  22.672  12.268  0.00  0.00    +0.000 A 
ATOM      8  C   UNL     1      29.716  22.905  12.987  0.00  0.00    +0.000 A 
ATOM      9  C   UNL     1      30.960  22.516  12.529  0.00  0.00    +0.000 A 
BRANCH   7  10
ATOM     10  N   UNL     1      27.280  23.075  12.745  0.00  0.00    +0.000 N 
ATOM     11  O   UNL     1      27.208  23.785  13.767  0.00  0.00    +0.000 OA
ATOM     12  O   UNL     1      26.115  22.719  12.135  0.00  0.00    +0.000 OA
ENDBRANCH   7  10
ENDBRANCH   2   4
BRANCH   3  13
ATOM     13  C   UNL     1      34.821  21.855  10.243  0.00  0.00    +0.000 C 
ATOM     14  S   UNL     1      35.057  22.038   8.640  0.00  0.00    +0.000 S 
BRANCH  13  15
ATOM     15  N   UNL     1      35.838  21.317  11.032  0.00  0.00    +0.000 NA
BRANCH  15  16
ATOM     16  C   UNL     1      35.914  19.928  11.373  0.00  0.00    +0.000 C 
ATOM     17  C   UNL     1      37.280  19.357  11.448  0.00  0.00    +0.000 C 
ATOM     18  C   UNL     1      37.357  18.568  12.739  0.00  0.00    +0.000 C 
ATOM     19  C   UNL     1      36.289  19.195  13.605  0.00  0.00    +0.000 C 
ATOM     20  C   UNL     1      35.234  19.628  12.637  0.00  0.00    +0.000 C 
ENDBRANCH  15  16
ENDBRANCH  13  15
ENDBRANCH   3  13
TORSDOF 5
ENDMDL
