MODEL 1
REMARK VINA RESULT:      -7.3      0.000      0.000
REMARK  Name = 
REMARK  3 active torsions:
REMARK  status: ('A' for Active; 'I' for Inactive)
REMARK    1  A    between atoms: O_2  and  C_3
REMARK    2  A    between atoms: N_6  and  C_7
REMARK    3  A    between atoms: N_16  and  C_17
REMARK                            x       y       z     vdW  Elec       q    Type
REMARK                         _______ _______ _______ _____ _____    ______ ____
ROOT
ATOM      1  C   UNL     1      14.869  11.781  35.591  0.00  0.00    +0.000 A 
ATOM      2  N   UNL     1      15.883  11.293  36.334  0.00  0.00    +0.000 NA
ATOM      3  C   UNL     1      17.064  10.988  35.767  0.00  0.00    +0.000 A 
ATOM      4  N   UNL     1      18.148  10.478  36.506  0.00  0.00    +0.000 NA
ATOM      5  N   UNL     1      17.178  11.194  34.441  0.00  0.00    +0.000 NA
ATOM      6  C   UNL     1      16.186  11.677  33.677  0.00  0.00    +0.000 A 
ATOM      7  N   UNL     1      16.329  11.886  32.276  0.00  0.00    +0.000 NA
ATOM      8  N   UNL     1      14.998  11.981  34.260  0.00  0.00    +0.000 NA
ENDROOT
BRANCH   4   9
ATOM      9  C   UNL     1      18.124  10.230  37.895  0.00  0.00    +0.000 A 
ATOM     10  C   UNL     1      19.295  10.361  38.607  0.00  0.00    +0.000 A 
ATOM     11  C   UNL     1      19.341  10.131  39.984  0.00  0.00    +0.000 A 
ATOM     12  C   UNL     1      18.195   9.769  40.640  0.00  0.00    +0.000 A 
ATOM     13 CL   UNL     1      18.308   9.491  42.378  0.00  0.00    +0.000 Cl
ATOM     14  C   UNL     1      17.018   9.632  39.958  0.00  0.00    +0.000 A 
ATOM     15  C   UNL     1      16.989   9.866  38.578  0.00  0.00    +0.000 A 
ENDBRANCH   4   9
BRANCH   7  16
ATOM     16  C   UNL     1      15.234  12.411  31.482  0.00  0.00    +0.000 C 
ATOM     17  C   UNL     1      15.874  13.330  30.440  0.00  0.00    +0.000 C 
ATOM     18  C   UNL     1      14.310  13.272  32.300  0.00  0.00    +0.000 C 
ATOM     19  C   UNL     1      14.442  11.309  30.856  0.00  0.00    +0.000 C 
ENDBRANCH   7  16
BRANCH   1  21
ATOM     20  C   UNL     1      13.154  11.413  37.290  0.00  0.00    +0.000 C 
ATOM     21  O   UNL     1      13.628  12.107  36.150  0.00  0.00    +0.000 OA
ENDBRANCH   1  21
TORSDOF 3
ENDMDL
MODEL 2
REMARK VINA RESULT:      -7.1     21.479     24.213
REMARK  Name = 
REMARK  3 active torsions:
REMARK  status: ('A' for Active; 'I' for Inactive)
REMARK    1  A    between atoms: O_2  and  C_3
REMARK    2  A    between atoms: N_6  and  C_7
REMARK    3  A    between atoms: N_16  and  C_17
REMARK                            x       y       z     vdW  Elec       q    Type
REMARK                         _______ _______ _______ _____ _____    ______ ____
ROOT
ATOM      1  C   UNL     1      29.133  27.365  21.837  0.00  0.00    +0.000 A 
ATOM      2  N   UNL     1      29.052  26.111  22.327  0.00  0.00    +0.000 NA
ATOM      3  C   UNL     1      29.338  25.051  21.551  0.00  0.00    +0.000 A 
ATOM      4  N   UNL     1      29.266  23.727  22.024  0.00  0.00    +0.000 NA
ATOM      5  N   UNL     1      29.705  25.303  20.280  0.00  0.00    +0.000 NA
ATOM      6  C   UNL     1      29.794  26.540  19.765  0.00  0.00    +0.000 A 
ATOM      7  N   UNL     1      30.184  26.782  18.418  0.00  0.00    +0.000 NA
ATOM      8  N   UNL     1      29.503  27.603  20.558  0.00  0.00    +0.000 NA
ENDROOT
BRANCH   4   9
ATOM      9  C   UNL     1      28.893  23.364  23.336  0.00  0.00    +0.000 A 
ATOM     10  C   UNL     1      29.873  22.934  24.203  0.00  0.00    +0.000 A 
ATOM     11  C   UNL     1      29.572  22.561  25.515  0.00  0.00    +0.000 A 
ATOM     12  C   UNL     1      28.275  22.625  25.947  0.00  0.00    +0.000 A 
ATOM     13 CL   UNL     1      27.950  22.142  27.613  0.00  0.00    +0.000 Cl
ATOM     14  C   UNL     1      27.282  23.048  25.108  0.00  0.00    +0.000 A 
ATOM     15  C   UNL     1      27.600  23.419  23.796  0.00  0.00    +0.000 A 
ENDBRANCH   4   9
BRANCH   7  16
ATOM     16  C   UNL     1      30.270  28.134  17.896  0.00  0.00    +0.000 C 
ATOM     17  C   UNL     1      30.902  28.008  16.508  0.00  0.00    +0.000 C 
ATOM     18  C   UNL     1      31.198  28.992  18.712  0.00  0.00    +0.000 C 
ATOM     19  C   UNL     1      28.924  28.783  17.849  0.00  0.00    +0.000 C 
ENDBRANCH   7  16
BRANCH   1  21
ATOM     20  C   UNL     1      29.523  29.711  22.390  0.00  0.00    +0.000 C 
ATOM     21  O   UNL     1      28.843  28.489  22.617  0.00  0.00    +0.000 OA
ENDBRANCH   1  21
TORSDOF 3
ENDMDL
MODEL 3
REMARK VINA RESULT:      -7.0     18.580     20.944
REMARK  Name = 
REMARK  3 active torsions:
REMARK  status: ('A' for Active; 'I' for Inactive)
REMARK    1  A    between atoms: O_2  and  C_3
REMARK    2  A    between atoms: N_6  and  C_7
REMARK    3  A    between atoms: N_16  and  C_17
REMARK                            x       y       z     vdW  Elec       q    Type
REMARK                         _______ _______ _______ _____ _____    ______ ____
ROOT
ATOM      1  C   UNL     1      33.512  -0.134  36.032  0.00  0.00    +0.000 A 
ATOM      2  N   UNL     1      33.586   1.051  35.392  0.00  0.00    +0.000 NA
ATOM      3  C   UNL     1      33.638   1.104  34.049  0.00  0.00    +0.000 A 
ATOM      4  N   UNL     1      33.715   2.320  33.343  0.00  0.00    +0.000 NA
ATOM      5  N   UNL     1      33.611  -0.069  33.389  0.00  0.00    +0.000 NA
ATOM      6  C   UNL     1      33.538  -1.263  33.998  0.00  0.00    +0.000 A 
ATOM      7  N   UNL     1      33.512  -2.490  33.278  0.00  0.00    +0.000 NA
ATOM      8  N   UNL     1      33.486  -1.304  35.355  0.00  0.00    +0.000 NA
ENDROOT
BRANCH   4   9
ATOM      9  C   UNL     1      33.748   3.595  33.946  0.00  0.00    +0.000 A 
ATOM     10  C   UNL     1      34.796   3.901  34.785  0.00  0.00    +0.000 A 
ATOM     11  C   UNL     1      34.888   5.144  35.414  0.00  0.00    +0.000 A 
ATOM     12  C   UNL     1      33.915   6.080  35.189  0.00  0.00    +0.000 A 
ATOM     13 CL   UNL     1      34.080   7.635  36.007  0.00  0.00    +0.000 Cl
ATOM     14  C   UNL     1      32.863   5.804  34.361  0.00  0.00    +0.000 A 
ATOM     15  C   UNL     1      32.784   4.553  33.739  0.00  0.00    +0.000 A 
ENDBRANCH   4   9
BRANCH   7  16
ATOM     16  C   UNL     1      33.431  -3.763  33.973  0.00  0.00    +0.000 C 
ATOM     17  C   UNL     1      33.429  -4.836  32.882  0.00  0.00    +0.000 C 
ATOM     18  C   UNL     1      32.136  -3.912  34.722  0.00  0.00    +0.000 C 
ATOM     19  C   UNL     1      34.567  -3.930  34.930  0.00  0.00    +0.000 C 
ENDBRANCH   7  16
BRANCH   1  21
ATOM     20  C   UNL     1      33.678  -1.466  38.071  0.00  0.00    +0.000 C 
ATOM     21  O   UNL     1      33.456  -0.224  37.427  0.00  0.00    +0.000 OA
ENDBRANCH   1  21
TORSDOF 3
ENDMDL
MODEL 4
REMARK VINA RESULT:      -6.4      3.968      8.387
REMARK  Name = 
REMARK  3 active torsions:
REMARK  status: ('A' for Active; 'I' for Inactive)
REMARK    1  A    between atoms: O_2  and  C_3
REMARK    2  A    between atoms: N_6  and  C_7
REMARK    3  A    between atoms: N_16  and  C_17
REMARK                            x       y       z     vdW  Elec       q    Type
REMARK                         _______ _______ _______ _____ _____    ______ ____
ROOT
ATOM      1  C   UNL     1      20.768   9.967  37.461  0.00  0.00    +0.000 A 
ATOM      2  N   UNL     1      19.554  10.078  36.886  0.00  0.00    +0.000 NA
ATOM      3  C   UNL     1      18.445   9.688  37.540  0.00  0.00    +0.000 A 
ATOM      4  N   UNL     1      17.160   9.787  36.974  0.00  0.00    +0.000 NA
ATOM      5  N   UNL     1      18.610   9.188  38.779  0.00  0.00    +0.000 NA
ATOM      6  C   UNL     1      19.805   9.066  39.378  0.00  0.00    +0.000 A 
ATOM      7  N   UNL     1      19.955   8.534  40.689  0.00  0.00    +0.000 NA
ATOM      8  N   UNL     1      20.918   9.463  38.708  0.00  0.00    +0.000 NA
ENDROOT
BRANCH   4   9
ATOM      9  C   UNL     1      16.888  10.296  35.687  0.00  0.00    +0.000 A 
ATOM     10  C   UNL     1      16.003  11.344  35.566  0.00  0.00    +0.000 A 
ATOM     11  C   UNL     1      15.691  11.894  34.321  0.00  0.00    +0.000 A 
ATOM     12  C   UNL     1      16.278  11.381  33.196  0.00  0.00    +0.000 A 
ATOM     13 CL   UNL     1      15.849  12.112  31.650  0.00  0.00    +0.000 Cl
ATOM     14  C   UNL     1      17.160  10.340  33.287  0.00  0.00    +0.000 A 
ATOM     15  C   UNL     1      17.463   9.799  34.542  0.00  0.00    +0.000 A 
ENDBRANCH   4   9
BRANCH   7  16
ATOM     16  C   UNL     1      21.264   8.417  41.304  0.00  0.00    +0.000 C 
ATOM     17  C   UNL     1      21.019   7.879  42.715  0.00  0.00    +0.000 C 
ATOM     18  C   UNL     1      21.930   9.757  41.466  0.00  0.00    +0.000 C 
ATOM     19  C   UNL     1      22.159   7.525  40.505  0.00  0.00    +0.000 C 
ENDBRANCH   7  16
BRANCH   1  21
ATOM     20  C   UNL     1      23.003   9.445  36.628  0.00  0.00    +0.000 C 
ATOM     21  O   UNL     1      21.940  10.364  36.808  0.00  0.00    +0.000 OA
ENDBRANCH   1  21
TORSDOF 3
ENDMDL
MODEL 5
REMARK VINA RESULT:      -6.3     23.861     27.400
REMARK  Name = 
REMARK  3 active torsions:
REMARK  status: ('A' for Active; 'I' for Inactive)
REMARK    1  A    between atoms: O_2  and  C_3
REMARK    2  A    between atoms: N_6  and  C_7
REMARK    3  A    between atoms: N_16  and  C_17
REMARK                            x       y       z     vdW  Elec       q    Type
REMARK                         _______ _______ _______ _____ _____    ______ ____
ROOT
ATOM      1  C   UNL     1      28.230  27.655  20.574  0.00  0.00    +0.000 A 
ATOM      2  N   UNL     1      28.940  27.795  19.437  0.00  0.00    +0.000 NA
ATOM      3  C   UNL     1      29.809  26.844  19.049  0.00  0.00    +0.000 A 
ATOM      4  N   UNL     1      30.570  26.951  17.869  0.00  0.00    +0.000 NA
ATOM      5  N   UNL     1      29.930  25.764  19.843  0.00  0.00    +0.000 NA
ATOM      6  C   UNL     1      29.236  25.598  20.981  0.00  0.00    +0.000 A 
ATOM      7  N   UNL     1      29.381  24.447  21.805  0.00  0.00    +0.000 NA
ATOM      8  N   UNL     1      28.362  26.564  21.363  0.00  0.00    +0.000 NA
ENDROOT
BRANCH   4   9
ATOM      9  C   UNL     1      30.512  28.042  16.975  0.00  0.00    +0.000 A 
ATOM     10  C   UNL     1      29.678  27.954  15.883  0.00  0.00    +0.000 A 
ATOM     11  C   UNL     1      29.574  28.997  14.960  0.00  0.00    +0.000 A 
ATOM     12  C   UNL     1      30.316  30.132  15.147  0.00  0.00    +0.000 A 
ATOM     13 CL   UNL     1      30.146  31.418  13.952  0.00  0.00    +0.000 Cl
ATOM     14  C   UNL     1      31.151  30.246  16.222  0.00  0.00    +0.000 A 
ATOM     15  C   UNL     1      31.245  29.192  17.138  0.00  0.00    +0.000 A 
ENDBRANCH   4   9
BRANCH   7  16
ATOM     16  C   UNL     1      28.613  24.302  23.028  0.00  0.00    +0.000 C 
ATOM     17  C   UNL     1      29.052  22.972  23.644  0.00  0.00    +0.000 C 
ATOM     18  C   UNL     1      27.139  24.180  22.755  0.00  0.00    +0.000 C 
ATOM     19  C   UNL     1      28.842  25.456  23.951  0.00  0.00    +0.000 C 
ENDBRANCH   7  16
BRANCH   1  21
ATOM     20  C   UNL     1      26.409  29.207  20.088  0.00  0.00    +0.000 C 
ATOM     21  O   UNL     1      27.318  28.624  21.005  0.00  0.00    +0.000 OA
ENDBRANCH   1  21
TORSDOF 3
ENDMDL
MODEL 6
REMARK VINA RESULT:      -6.3     21.792     22.552
REMARK  Name = 
REMARK  3 active torsions:
REMARK  status: ('A' for Active; 'I' for Inactive)
REMARK    1  A    between atoms: O_2  and  C_3
REMARK    2  A    between atoms: N_6  and  C_7
REMARK    3  A    between atoms: N_16  and  C_17
REMARK                            x       y       z     vdW  Elec       q    Type
REMARK                         _______ _______ _______ _____ _____    ______ ____
ROOT
ATOM      1  C   UNL     1      20.061  -7.358  25.854  0.00  0.00    +0.000 A 
ATOM      2  N   UNL     1      19.814  -8.283  26.804  0.00  0.00    +0.000 NA
ATOM      3  C   UNL     1      20.699  -9.264  27.054  0.00  0.00    +0.000 A 
ATOM      4  N   UNL     1      20.480 -10.248  28.036  0.00  0.00    +0.000 NA
ATOM      5  N   UNL     1      21.827  -9.273  26.318  0.00  0.00    +0.000 NA
ATOM      6  C   UNL     1      22.100  -8.366  25.366  0.00  0.00    +0.000 A 
ATOM      7  N   UNL     1      23.299  -8.397  24.600  0.00  0.00    +0.000 NA
ATOM      8  N   UNL     1      21.198  -7.380  25.122  0.00  0.00    +0.000 NA
ENDROOT
BRANCH   4   9
ATOM      9  C   UNL     1      19.333 -10.320  28.855  0.00  0.00    +0.000 A 
ATOM     10  C   UNL     1      18.262 -11.070  28.424  0.00  0.00    +0.000 A 
ATOM     11  C   UNL     1      17.097 -11.183  29.186  0.00  0.00    +0.000 A 
ATOM     12  C   UNL     1      17.020 -10.535  30.389  0.00  0.00    +0.000 A 
ATOM     13 CL   UNL     1      15.526 -10.711  31.311  0.00  0.00    +0.000 Cl
ATOM     14  C   UNL     1      18.068  -9.783  30.841  0.00  0.00    +0.000 A 
ATOM     15  C   UNL     1      19.229  -9.679  30.066  0.00  0.00    +0.000 A 
ENDBRANCH   4   9
BRANCH   7  16
ATOM     16  C   UNL     1      23.559  -7.398  23.579  0.00  0.00    +0.000 C 
ATOM     17  C   UNL     1      22.692  -7.787  22.381  0.00  0.00    +0.000 C 
ATOM     18  C   UNL     1      24.987  -7.439  23.106  0.00  0.00    +0.000 C 
ATOM     19  C   UNL     1      23.253  -6.022  24.077  0.00  0.00    +0.000 C 
ENDBRANCH   7  16
BRANCH   1  21
ATOM     20  C   UNL     1      19.198  -5.122  26.317  0.00  0.00    +0.000 C 
ATOM     21  O   UNL     1      19.162  -6.325  25.570  0.00  0.00    +0.000 OA
ENDBRANCH   1  21
TORSDOF 3
ENDMDL
MODEL 7
REMARK VINA RESULT:      -6.3     18.814     20.450
REMARK  Name = 
REMARK  3 active torsions:
REMARK  status: ('A' for Active; 'I' for Inactive)
REMARK    1  A    between atoms: O_2  and  C_3
REMARK    2  A    between atoms: N_6  and  C_7
REMARK    3  A    between atoms: N_16  and  C_17
REMARK                            x       y       z     vdW  Elec       q    Type
REMARK                         _______ _______ _______ _____ _____    ______ ____
ROOT
ATOM      1  C   UNL     1      34.274   1.791  36.821  0.00  0.00    +0.000 A 
ATOM      2  N   UNL     1      34.374   2.995  36.223  0.00  0.00    +0.000 NA
ATOM      3  C   UNL     1      34.149   3.128  34.904  0.00  0.00    +0.000 A 
ATOM      4  N   UNL     1      34.242   4.367  34.242  0.00  0.00    +0.000 NA
ATOM      5  N   UNL     1      33.825   2.012  34.223  0.00  0.00    +0.000 NA
ATOM      6  C   UNL     1      33.719   0.800  34.791  0.00  0.00    +0.000 A 
ATOM      7  N   UNL     1      33.375  -0.365  34.050  0.00  0.00    +0.000 NA
ATOM      8  N   UNL     1      33.948   0.679  36.124  0.00  0.00    +0.000 NA
ENDROOT
BRANCH   4   9
ATOM      9  C   UNL     1      34.574   5.587  34.869  0.00  0.00    +0.000 A 
ATOM     10  C   UNL     1      35.886   6.004  34.845  0.00  0.00    +0.000 A 
ATOM     11  C   UNL     1      36.281   7.201  35.446  0.00  0.00    +0.000 A 
ATOM     12  C   UNL     1      35.343   7.976  36.072  0.00  0.00    +0.000 A 
ATOM     13 CL   UNL     1      35.896   9.478  36.814  0.00  0.00    +0.000 Cl
ATOM     14  C   UNL     1      34.034   7.587  36.111  0.00  0.00    +0.000 A 
ATOM     15  C   UNL     1      33.653   6.384  35.504  0.00  0.00    +0.000 A 
ENDBRANCH   4   9
BRANCH   7  16
ATOM     16  C   UNL     1      33.269  -1.659  34.699  0.00  0.00    +0.000 C 
ATOM     17  C   UNL     1      33.202  -2.690  33.571  0.00  0.00    +0.000 C 
ATOM     18  C   UNL     1      31.989  -1.793  35.478  0.00  0.00    +0.000 C 
ATOM     19  C   UNL     1      34.423  -1.900  35.618  0.00  0.00    +0.000 C 
ENDBRANCH   7  16
BRANCH   1  21
ATOM     20  C   UNL     1      33.528   0.983  39.001  0.00  0.00    +0.000 C 
ATOM     21  O   UNL     1      34.501   1.619  38.191  0.00  0.00    +0.000 OA
ENDBRANCH   1  21
TORSDOF 3
ENDMDL
MODEL 8
REMARK VINA RESULT:      -6.3      4.837      8.900
REMARK  Name = 
REMARK  3 active torsions:
REMARK  status: ('A' for Active; 'I' for Inactive)
REMARK    1  A    between atoms: O_2  and  C_3
REMARK    2  A    between atoms: N_6  and  C_7
REMARK    3  A    between atoms: N_16  and  C_17
REMARK                            x       y       z     vdW  Elec       q    Type
REMARK                         _______ _______ _______ _____ _____    ______ ____
ROOT
ATOM      1  C   UNL     1      22.437  10.004  36.954  0.00  0.00    +0.000 A 
ATOM      2  N   UNL     1      21.092  10.048  36.877  0.00  0.00    +0.000 NA
ATOM      3  C   UNL     1      20.332   9.719  37.936  0.00  0.00    +0.000 A 
ATOM      4  N   UNL     1      18.925   9.753  37.897  0.00  0.00    +0.000 NA
ATOM      5  N   UNL     1      20.975   9.349  39.059  0.00  0.00    +0.000 NA
ATOM      6  C   UNL     1      22.312   9.295  39.166  0.00  0.00    +0.000 A 
ATOM      7  N   UNL     1      22.970   8.900  40.364  0.00  0.00    +0.000 NA
ATOM      8  N   UNL     1      23.070   9.630  38.089  0.00  0.00    +0.000 NA
ENDROOT
BRANCH   4   9
ATOM      9  C   UNL     1      18.164  10.127  36.769  0.00  0.00    +0.000 A 
ATOM     10  C   UNL     1      17.576  11.372  36.755  0.00  0.00    +0.000 A 
ATOM     11  C   UNL     1      16.810  11.804  35.670  0.00  0.00    +0.000 A 
ATOM     12  C   UNL     1      16.642  10.972  34.596  0.00  0.00    +0.000 A 
ATOM     13 CL   UNL     1      15.666  11.567  33.253  0.00  0.00    +0.000 Cl
ATOM     14  C   UNL     1      17.214   9.730  34.583  0.00  0.00    +0.000 A 
ATOM     15  C   UNL     1      17.979   9.311  35.679  0.00  0.00    +0.000 A 
ENDBRANCH   4   9
BRANCH   7  16
ATOM     16  C   UNL     1      24.419   8.855  40.442  0.00  0.00    +0.000 C 
ATOM     17  C   UNL     1      24.749   8.412  41.868  0.00  0.00    +0.000 C 
ATOM     18  C   UNL     1      25.034  10.216  40.263  0.00  0.00    +0.000 C 
ATOM     19  C   UNL     1      24.987   7.927  39.416  0.00  0.00    +0.000 C 
ENDBRANCH   7  16
BRANCH   1  21
ATOM     20  C   UNL     1      24.664  10.377  36.025  0.00  0.00    +0.000 C 
ATOM     21  O   UNL     1      23.256  10.340  35.870  0.00  0.00    +0.000 OA
ENDBRANCH   1  21
TORSDOF 3
ENDMDL
MODEL 9
REMARK VINA RESULT:      -6.0     10.413     11.131
REMARK  Name = 
REMARK  3 active torsions:
REMARK  status: ('A' for Active; 'I' for Inactive)
REMARK    1  A    between atoms: O_2  and  C_3
REMARK    2  A    between atoms: N_6  and  C_7
REMARK    3  A    between atoms: N_16  and  C_17
REMARK                            x       y       z     vdW  Elec       q    Type
REMARK                         _______ _______ _______ _____ _____    ______ ____
ROOT
ATOM      1  C   UNL     1      19.163  21.359  34.863  0.00  0.00    +0.000 A 
ATOM      2  N   UNL     1      19.878  21.006  35.951  0.00  0.00    +0.000 NA
ATOM      3  C   UNL     1      19.436  21.300  37.187  0.00  0.00    +0.000 A 
ATOM      4  N   UNL     1      20.152  20.950  38.348  0.00  0.00    +0.000 NA
ATOM      5  N   UNL     1      18.263  21.954  37.279  0.00  0.00    +0.000 NA
ATOM      6  C   UNL     1      17.530  22.318  36.214  0.00  0.00    +0.000 A 
ATOM      7  N   UNL     1      16.293  23.009  36.336  0.00  0.00    +0.000 NA
ATOM      8  N   UNL     1      17.986  22.016  34.971  0.00  0.00    +0.000 NA
ENDROOT
BRANCH   4   9
ATOM      9  C   UNL     1      21.385  20.265  38.353  0.00  0.00    +0.000 A 
ATOM     10  C   UNL     1      22.548  21.003  38.304  0.00  0.00    +0.000 A 
ATOM     11  C   UNL     1      23.801  20.388  38.305  0.00  0.00    +0.000 A 
ATOM     12  C   UNL     1      23.876  19.022  38.358  0.00  0.00    +0.000 A 
ATOM     13 CL   UNL     1      25.484  18.297  38.357  0.00  0.00    +0.000 Cl
ATOM     14  C   UNL     1      22.739  18.265  38.407  0.00  0.00    +0.000 A 
ATOM     15  C   UNL     1      21.490  18.896  38.404  0.00  0.00    +0.000 A 
ENDBRANCH   4   9
BRANCH   7  16
ATOM     16  C   UNL     1      15.528  23.386  35.161  0.00  0.00    +0.000 C 
ATOM     17  C   UNL     1      14.116  23.697  35.662  0.00  0.00    +0.000 C 
ATOM     18  C   UNL     1      15.395  22.246  34.189  0.00  0.00    +0.000 C 
ATOM     19  C   UNL     1      16.150  24.551  34.461  0.00  0.00    +0.000 C 
ENDBRANCH   7  16
BRANCH   1  21
ATOM     20  C   UNL     1      18.657  20.701  32.567  0.00  0.00    +0.000 C 
ATOM     21  O   UNL     1      19.594  21.068  33.564  0.00  0.00    +0.000 OA
ENDBRANCH   1  21
TORSDOF 3
ENDMDL
MODEL 10
REMARK VINA RESULT:      -5.9     21.338     22.732
REMARK  Name = 
REMARK  3 active torsions:
REMARK  status: ('A' for Active; 'I' for Inactive)
REMARK    1  A    between atoms: O_2  and  C_3
REMARK    2  A    between atoms: N_6  and  C_7
REMARK    3  A    between atoms: N_16  and  C_17
REMARK                            x       y       z     vdW  Elec       q    Type
REMARK                         _______ _______ _______ _____ _____    ______ ____
ROOT
ATOM      1  C   UNL     1      14.936  -9.209  24.119  0.00  0.00    +0.000 A 
ATOM      2  N   UNL     1      15.924  -8.572  24.781  0.00  0.00    +0.000 NA
ATOM      3  C   UNL     1      15.677  -7.947  25.945  0.00  0.00    +0.000 A 
ATOM      4  N   UNL     1      16.679  -7.271  26.668  0.00  0.00    +0.000 NA
ATOM      5  N   UNL     1      14.413  -7.990  26.408  0.00  0.00    +0.000 NA
ATOM      6  C   UNL     1      13.410  -8.615  25.771  0.00  0.00    +0.000 A 
ATOM      7  N   UNL     1      12.081  -8.647  26.278  0.00  0.00    +0.000 NA
ATOM      8  N   UNL     1      13.671  -9.243  24.595  0.00  0.00    +0.000 NA
ENDROOT
BRANCH   4   9
ATOM      9  C   UNL     1      18.028  -7.173  26.266  0.00  0.00    +0.000 A 
ATOM     10  C   UNL     1      18.610  -5.926  26.215  0.00  0.00    +0.000 A 
ATOM     11  C   UNL     1      19.941  -5.759  25.825  0.00  0.00    +0.000 A 
ATOM     12  C   UNL     1      20.682  -6.859  25.487  0.00  0.00    +0.000 A 
ATOM     13 CL   UNL     1      22.357  -6.591  25.003  0.00  0.00    +0.000 Cl
ATOM     14  C   UNL     1      20.129  -8.108  25.528  0.00  0.00    +0.000 A 
ATOM     15  C   UNL     1      18.794  -8.260  25.921  0.00  0.00    +0.000 A 
ENDBRANCH   4   9
BRANCH   7  16
ATOM     16  C   UNL     1      11.023  -9.334  25.561  0.00  0.00    +0.000 C 
ATOM     17  C   UNL     1      11.484 -10.786  25.422  0.00  0.00    +0.000 C 
ATOM     18  C   UNL     1      10.855  -8.803  24.164  0.00  0.00    +0.000 C 
ATOM     19  C   UNL     1       9.719  -9.222  26.283  0.00  0.00    +0.000 C 
ENDBRANCH   7  16
BRANCH   1  21
ATOM     20  C   UNL     1      15.139  -9.147  21.686  0.00  0.00    +0.000 C 
ATOM     21  O   UNL     1      15.160  -9.869  22.905  0.00  0.00    +0.000 OA
ENDBRANCH   1  21
TORSDOF 3
ENDMDL
