MODEL 1
REMARK VINA RESULT:      -7.4      0.000      0.000
REMARK  Name = 
REMARK  1 active torsions:
REMARK  status: ('A' for Active; 'I' for Inactive)
REMARK    1  A    between atoms: C_4  and  C_5
REMARK                            x       y       z     vdW  Elec       q    Type
REMARK                         _______ _______ _______ _____ _____    ______ ____
ROOT
ATOM      1  O   UNL     1      33.667   3.195  32.056  0.00  0.00    +0.000 OA
ATOM      2  C   UNL     1      33.659   2.594  33.158  0.00  0.00    +0.000 A 
ATOM      3  C   UNL     1      33.416   1.239  33.189  0.00  0.00    +0.000 A 
ATOM      4  C   UNL     1      33.403   0.560  34.385  0.00  0.00    +0.000 A 
ATOM      5  O   UNL     1      33.624   1.229  35.482  0.00  0.00    +0.000 OA
ATOM      6  C   UNL     1      33.860   2.522  35.505  0.00  0.00    +0.000 A 
ATOM      7  C   UNL     1      34.089   3.193  36.688  0.00  0.00    +0.000 A 
ATOM      8  C   UNL     1      34.339   4.556  36.724  0.00  0.00    +0.000 A 
ATOM      9  C   UNL     1      34.363   5.285  35.553  0.00  0.00    +0.000 A 
ATOM     10  O   UNL     1      34.608   6.650  35.527  0.00  0.00    +0.000 OA
ATOM     11  C   UNL     1      34.136   4.627  34.360  0.00  0.00    +0.000 A 
ATOM     12  C   UNL     1      33.890   3.273  34.342  0.00  0.00    +0.000 A 
ENDROOT
BRANCH   4  13
ATOM     13  C   UNL     1      33.142  -0.870  34.358  0.00  0.00    +0.000 A 
ATOM     14  C   UNL     1      32.240  -1.455  35.225  0.00  0.00    +0.000 A 
ATOM     15  C   UNL     1      31.980  -2.807  35.215  0.00  0.00    +0.000 A 
ATOM     16  C   UNL     1      32.622  -3.641  34.324  0.00  0.00    +0.000 A 
ATOM     17  O   UNL     1      32.365  -5.019  34.305  0.00  0.00    +0.000 OA
ATOM     18  C   UNL     1      33.524  -3.062  33.457  0.00  0.00    +0.000 A 
ATOM     19  C   UNL     1      33.782  -1.704  33.471  0.00  0.00    +0.000 A 
ENDBRANCH   4  13
TORSDOF 1
ENDMDL
MODEL 2
REMARK VINA RESULT:      -7.4     19.505     20.902
REMARK  Name = 
REMARK  1 active torsions:
REMARK  status: ('A' for Active; 'I' for Inactive)
REMARK    1  A    between atoms: C_4  and  C_5
REMARK                            x       y       z     vdW  Elec       q    Type
REMARK                         _______ _______ _______ _____ _____    ______ ____
ROOT
ATOM      1  O   UNL     1      18.773   9.300  35.302  0.00  0.00    +0.000 OA
ATOM      2  C   UNL     1      17.744   9.964  35.580  0.00  0.00    +0.000 A 
ATOM      3  C   UNL     1      17.063  10.612  34.574  0.00  0.00    +0.000 A 
ATOM      4  C   UNL     1      15.934  11.344  34.856  0.00  0.00    +0.000 A 
ATOM      5  O   UNL     1      15.528  11.409  36.093  0.00  0.00    +0.000 OA
ATOM      6  C   UNL     1      16.143  10.809  37.088  0.00  0.00    +0.000 A 
ATOM      7  C   UNL     1      15.680  10.903  38.385  0.00  0.00    +0.000 A 
ATOM      8  C   UNL     1      16.321  10.274  39.440  0.00  0.00    +0.000 A 
ATOM      9  C   UNL     1      17.458   9.527  39.214  0.00  0.00    +0.000 A 
ATOM     10  O   UNL     1      18.140   8.876  40.231  0.00  0.00    +0.000 OA
ATOM     11  C   UNL     1      17.933   9.423  37.920  0.00  0.00    +0.000 A 
ATOM     12  C   UNL     1      17.285  10.053  36.883  0.00  0.00    +0.000 A 
ENDROOT
BRANCH   4  13
ATOM     13  C   UNL     1      15.254  12.007  33.755  0.00  0.00    +0.000 A 
ATOM     14  C   UNL     1      14.409  13.079  33.969  0.00  0.00    +0.000 A 
ATOM     15  C   UNL     1      13.757  13.719  32.939  0.00  0.00    +0.000 A 
ATOM     16  C   UNL     1      13.927  13.307  31.634  0.00  0.00    +0.000 A 
ATOM     17  O   UNL     1      13.268  13.952  30.578  0.00  0.00    +0.000 OA
ATOM     18  C   UNL     1      14.769  12.238  31.416  0.00  0.00    +0.000 A 
ATOM     19  C   UNL     1      15.422  11.598  32.452  0.00  0.00    +0.000 A 
ENDBRANCH   4  13
TORSDOF 1
ENDMDL
MODEL 3
REMARK VINA RESULT:      -7.2     16.283     18.024
REMARK  Name = 
REMARK  1 active torsions:
REMARK  status: ('A' for Active; 'I' for Inactive)
REMARK    1  A    between atoms: C_4  and  C_5
REMARK                            x       y       z     vdW  Elec       q    Type
REMARK                         _______ _______ _______ _____ _____    ______ ____
ROOT
ATOM      1  O   UNL     1      19.905  -9.991  26.054  0.00  0.00    +0.000 OA
ATOM      2  C   UNL     1      20.460  -8.902  25.766  0.00  0.00    +0.000 A 
ATOM      3  C   UNL     1      21.717  -8.908  25.205  0.00  0.00    +0.000 A 
ATOM      4  C   UNL     1      22.343  -7.726  24.882  0.00  0.00    +0.000 A 
ATOM      5  O   UNL     1      21.718  -6.607  25.120  0.00  0.00    +0.000 OA
ATOM      6  C   UNL     1      20.517  -6.548  25.653  0.00  0.00    +0.000 A 
ATOM      7  C   UNL     1      19.891  -5.342  25.888  0.00  0.00    +0.000 A 
ATOM      8  C   UNL     1      18.626  -5.269  26.449  0.00  0.00    +0.000 A 
ATOM      9  C   UNL     1      17.953  -6.423  26.792  0.00  0.00    +0.000 A 
ATOM     10  O   UNL     1      16.687  -6.411  27.357  0.00  0.00    +0.000 OA
ATOM     11  C   UNL     1      18.568  -7.639  26.563  0.00  0.00    +0.000 A 
ATOM     12  C   UNL     1      19.824  -7.694  26.004  0.00  0.00    +0.000 A 
ENDROOT
BRANCH   4  13
ATOM     13  C   UNL     1      23.670  -7.793  24.293  0.00  0.00    +0.000 A 
ATOM     14  C   UNL     1      24.309  -9.000  24.087  0.00  0.00    +0.000 A 
ATOM     15  C   UNL     1      25.565  -9.083  23.531  0.00  0.00    +0.000 A 
ATOM     16  C   UNL     1      26.244  -7.944  23.151  0.00  0.00    +0.000 A 
ATOM     17  O   UNL     1      27.524  -8.017  22.584  0.00  0.00    +0.000 OA
ATOM     18  C   UNL     1      25.610  -6.737  23.354  0.00  0.00    +0.000 A 
ATOM     19  C   UNL     1      24.349  -6.658  23.913  0.00  0.00    +0.000 A 
ENDBRANCH   4  13
TORSDOF 1
ENDMDL
MODEL 4
REMARK VINA RESULT:      -7.0      1.877      7.085
REMARK  Name = 
REMARK  1 active torsions:
REMARK  status: ('A' for Active; 'I' for Inactive)
REMARK    1  A    between atoms: C_4  and  C_5
REMARK                            x       y       z     vdW  Elec       q    Type
REMARK                         _______ _______ _______ _____ _____    ______ ____
ROOT
ATOM      1  O   UNL     1      33.677   3.016  32.044  0.00  0.00    +0.000 OA
ATOM      2  C   UNL     1      33.737   2.968  33.297  0.00  0.00    +0.000 A 
ATOM      3  C   UNL     1      33.796   4.138  34.019  0.00  0.00    +0.000 A 
ATOM      4  C   UNL     1      33.863   4.108  35.393  0.00  0.00    +0.000 A 
ATOM      5  O   UNL     1      33.869   2.949  35.989  0.00  0.00    +0.000 OA
ATOM      6  C   UNL     1      33.814   1.804  35.345  0.00  0.00    +0.000 A 
ATOM      7  C   UNL     1      33.823   0.598  36.015  0.00  0.00    +0.000 A 
ATOM      8  C   UNL     1      33.766  -0.614  35.345  0.00  0.00    +0.000 A 
ATOM      9  C   UNL     1      33.698  -0.642  33.968  0.00  0.00    +0.000 A 
ATOM     10  O   UNL     1      33.639  -1.824  33.245  0.00  0.00    +0.000 OA
ATOM     11  C   UNL     1      33.688   0.559  33.283  0.00  0.00    +0.000 A 
ATOM     12  C   UNL     1      33.745   1.753  33.963  0.00  0.00    +0.000 A 
ENDROOT
BRANCH   4  13
ATOM     13  C   UNL     1      33.923   5.374  36.104  0.00  0.00    +0.000 A 
ATOM     14  C   UNL     1      33.580   5.470  37.438  0.00  0.00    +0.000 A 
ATOM     15  C   UNL     1      33.630   6.660  38.128  0.00  0.00    +0.000 A 
ATOM     16  C   UNL     1      34.033   7.821  37.501  0.00  0.00    +0.000 A 
ATOM     17  O   UNL     1      34.088   9.038  38.195  0.00  0.00    +0.000 OA
ATOM     18  C   UNL     1      34.377   7.731  36.169  0.00  0.00    +0.000 A 
ATOM     19  C   UNL     1      34.324   6.534  35.481  0.00  0.00    +0.000 A 
ENDBRANCH   4  13
TORSDOF 1
ENDMDL
MODEL 5
REMARK VINA RESULT:      -6.9     16.540     17.961
REMARK  Name = 
REMARK  1 active torsions:
REMARK  status: ('A' for Active; 'I' for Inactive)
REMARK    1  A    between atoms: C_4  and  C_5
REMARK                            x       y       z     vdW  Elec       q    Type
REMARK                         _______ _______ _______ _____ _____    ______ ____
ROOT
ATOM      1  O   UNL     1      23.652 -10.933  25.190  0.00  0.00    +0.000 OA
ATOM      2  C   UNL     1      23.414  -9.715  25.002  0.00  0.00    +0.000 A 
ATOM      3  C   UNL     1      22.230  -9.178  25.456  0.00  0.00    +0.000 A 
ATOM      4  C   UNL     1      21.949  -7.846  25.261  0.00  0.00    +0.000 A 
ATOM      5  O   UNL     1      22.826  -7.110  24.639  0.00  0.00    +0.000 OA
ATOM      6  C   UNL     1      23.970  -7.575  24.187  0.00  0.00    +0.000 A 
ATOM      7  C   UNL     1      24.871  -6.761  23.532  0.00  0.00    +0.000 A 
ATOM      8  C   UNL     1      26.080  -7.241  23.052  0.00  0.00    +0.000 A 
ATOM      9  C   UNL     1      26.413  -8.569  23.221  0.00  0.00    +0.000 A 
ATOM     10  O   UNL     1      27.606  -9.105  22.761  0.00  0.00    +0.000 OA
ATOM     11  C   UNL     1      25.519  -9.397  23.874  0.00  0.00    +0.000 A 
ATOM     12  C   UNL     1      24.324  -8.904  24.345  0.00  0.00    +0.000 A 
ENDROOT
BRANCH   4  13
ATOM     13  C   UNL     1      20.684  -7.333  25.761  0.00  0.00    +0.000 A 
ATOM     14  C   UNL     1      19.744  -8.166  26.336  0.00  0.00    +0.000 A 
ATOM     15  C   UNL     1      18.541  -7.699  26.815  0.00  0.00    +0.000 A 
ATOM     16  C   UNL     1      18.224  -6.358  26.738  0.00  0.00    +0.000 A 
ATOM     17  O   UNL     1      17.002  -5.872  27.222  0.00  0.00    +0.000 OA
ATOM     18  C   UNL     1      19.160  -5.523  26.165  0.00  0.00    +0.000 A 
ATOM     19  C   UNL     1      20.366  -5.996  25.685  0.00  0.00    +0.000 A 
ENDBRANCH   4  13
TORSDOF 1
ENDMDL
MODEL 6
REMARK VINA RESULT:      -6.8      1.013      2.391
REMARK  Name = 
REMARK  1 active torsions:
REMARK  status: ('A' for Active; 'I' for Inactive)
REMARK    1  A    between atoms: C_4  and  C_5
REMARK                            x       y       z     vdW  Elec       q    Type
REMARK                         _______ _______ _______ _____ _____    ______ ____
ROOT
ATOM      1  O   UNL     1      34.572   2.281  37.806  0.00  0.00    +0.000 OA
ATOM      2  C   UNL     1      34.160   2.036  36.646  0.00  0.00    +0.000 A 
ATOM      3  C   UNL     1      33.890   0.736  36.281  0.00  0.00    +0.000 A 
ATOM      4  C   UNL     1      33.438   0.446  35.016  0.00  0.00    +0.000 A 
ATOM      5  O   UNL     1      33.274   1.428  34.174  0.00  0.00    +0.000 OA
ATOM      6  C   UNL     1      33.518   2.685  34.473  0.00  0.00    +0.000 A 
ATOM      7  C   UNL     1      33.331   3.695  33.552  0.00  0.00    +0.000 A 
ATOM      8  C   UNL     1      33.585   5.023  33.857  0.00  0.00    +0.000 A 
ATOM      9  C   UNL     1      34.039   5.370  35.112  0.00  0.00    +0.000 A 
ATOM     10  O   UNL     1      34.310   6.681  35.473  0.00  0.00    +0.000 OA
ATOM     11  C   UNL     1      34.231   4.369  36.045  0.00  0.00    +0.000 A 
ATOM     12  C   UNL     1      33.974   3.055  35.726  0.00  0.00    +0.000 A 
ENDROOT
BRANCH   4  13
ATOM     13  C   UNL     1      33.169  -0.944  34.686  0.00  0.00    +0.000 A 
ATOM     14  C   UNL     1      33.816  -1.577  33.643  0.00  0.00    +0.000 A 
ATOM     15  C   UNL     1      33.574  -2.892  33.316  0.00  0.00    +0.000 A 
ATOM     16  C   UNL     1      32.661  -3.639  34.031  0.00  0.00    +0.000 A 
ATOM     17  O   UNL     1      32.408  -4.979  33.706  0.00  0.00    +0.000 OA
ATOM     18  C   UNL     1      32.013  -3.012  35.073  0.00  0.00    +0.000 A 
ATOM     19  C   UNL     1      32.259  -1.692  35.398  0.00  0.00    +0.000 A 
ENDBRANCH   4  13
TORSDOF 1
ENDMDL
MODEL 7
REMARK VINA RESULT:      -6.8     21.310     23.820
REMARK  Name = 
REMARK  1 active torsions:
REMARK  status: ('A' for Active; 'I' for Inactive)
REMARK    1  A    between atoms: C_4  and  C_5
REMARK                            x       y       z     vdW  Elec       q    Type
REMARK                         _______ _______ _______ _____ _____    ______ ____
ROOT
ATOM      1  O   UNL     1      31.062  23.236  23.830  0.00  0.00    +0.000 OA
ATOM      2  C   UNL     1      30.292  23.038  24.802  0.00  0.00    +0.000 A 
ATOM      3  C   UNL     1      30.822  22.806  26.051  0.00  0.00    +0.000 A 
ATOM      4  C   UNL     1      29.997  22.588  27.129  0.00  0.00    +0.000 A 
ATOM      5  O   UNL     1      28.707  22.605  26.939  0.00  0.00    +0.000 OA
ATOM      6  C   UNL     1      28.153  22.821  25.766  0.00  0.00    +0.000 A 
ATOM      7  C   UNL     1      26.782  22.831  25.607  0.00  0.00    +0.000 A 
ATOM      8  C   UNL     1      26.188  23.058  24.376  0.00  0.00    +0.000 A 
ATOM      9  C   UNL     1      26.968  23.283  23.262  0.00  0.00    +0.000 A 
ATOM     10  O   UNL     1      26.429  23.516  22.005  0.00  0.00    +0.000 OA
ATOM     11  C   UNL     1      28.343  23.276  23.405  0.00  0.00    +0.000 A 
ATOM     12  C   UNL     1      28.917  23.050  24.635  0.00  0.00    +0.000 A 
ENDROOT
BRANCH   4  13
ATOM     13  C   UNL     1      30.611  22.349  28.425  0.00  0.00    +0.000 A 
ATOM     14  C   UNL     1      29.969  22.683  29.601  0.00  0.00    +0.000 A 
ATOM     15  C   UNL     1      30.535  22.465  30.837  0.00  0.00    +0.000 A 
ATOM     16  C   UNL     1      31.786  21.894  30.948  0.00  0.00    +0.000 A 
ATOM     17  O   UNL     1      32.371  21.667  32.201  0.00  0.00    +0.000 OA
ATOM     18  C   UNL     1      32.430  21.558  29.777  0.00  0.00    +0.000 A 
ATOM     19  C   UNL     1      31.859  21.779  28.538  0.00  0.00    +0.000 A 
ENDBRANCH   4  13
TORSDOF 1
ENDMDL
MODEL 8
REMARK VINA RESULT:      -6.6      1.218      6.742
REMARK  Name = 
REMARK  1 active torsions:
REMARK  status: ('A' for Active; 'I' for Inactive)
REMARK    1  A    between atoms: C_4  and  C_5
REMARK                            x       y       z     vdW  Elec       q    Type
REMARK                         _______ _______ _______ _____ _____    ______ ____
ROOT
ATOM      1  O   UNL     1      34.311   0.246  31.734  0.00  0.00    +0.000 OA
ATOM      2  C   UNL     1      34.032   0.573  32.914  0.00  0.00    +0.000 A 
ATOM      3  C   UNL     1      34.092   1.898  33.284  0.00  0.00    +0.000 A 
ATOM      4  C   UNL     1      33.791   2.277  34.571  0.00  0.00    +0.000 A 
ATOM      5  O   UNL     1      33.451   1.355  35.427  0.00  0.00    +0.000 OA
ATOM      6  C   UNL     1      33.379   0.077  35.124  0.00  0.00    +0.000 A 
ATOM      7  C   UNL     1      33.014  -0.867  36.061  0.00  0.00    +0.000 A 
ATOM      8  C   UNL     1      32.935  -2.216  35.751  0.00  0.00    +0.000 A 
ATOM      9  C   UNL     1      33.227  -2.651  34.475  0.00  0.00    +0.000 A 
ATOM     10  O   UNL     1      33.165  -3.987  34.109  0.00  0.00    +0.000 OA
ATOM     11  C   UNL     1      33.594  -1.717  33.526  0.00  0.00    +0.000 A 
ATOM     12  C   UNL     1      33.666  -0.381  33.849  0.00  0.00    +0.000 A 
ENDROOT
BRANCH   4  13
ATOM     13  C   UNL     1      33.871   3.689  34.905  0.00  0.00    +0.000 A 
ATOM     14  C   UNL     1      34.663   4.142  35.942  0.00  0.00    +0.000 A 
ATOM     15  C   UNL     1      34.751   5.475  36.273  0.00  0.00    +0.000 A 
ATOM     16  C   UNL     1      34.038   6.424  35.570  0.00  0.00    +0.000 A 
ATOM     17  O   UNL     1      34.121   7.785  35.899  0.00  0.00    +0.000 OA
ATOM     18  C   UNL     1      33.246   5.977  34.535  0.00  0.00    +0.000 A 
ATOM     19  C   UNL     1      33.161   4.638  34.205  0.00  0.00    +0.000 A 
ENDBRANCH   4  13
TORSDOF 1
ENDMDL
MODEL 9
REMARK VINA RESULT:      -6.6     22.280     24.213
REMARK  Name = 
REMARK  1 active torsions:
REMARK  status: ('A' for Active; 'I' for Inactive)
REMARK    1  A    between atoms: C_4  and  C_5
REMARK                            x       y       z     vdW  Elec       q    Type
REMARK                         _______ _______ _______ _____ _____    ______ ____
ROOT
ATOM      1  O   UNL     1      26.064  22.944  30.066  0.00  0.00    +0.000 OA
ATOM      2  C   UNL     1      26.967  22.930  29.194  0.00  0.00    +0.000 A 
ATOM      3  C   UNL     1      26.627  23.031  27.863  0.00  0.00    +0.000 A 
ATOM      4  C   UNL     1      27.600  23.017  26.892  0.00  0.00    +0.000 A 
ATOM      5  O   UNL     1      28.846  22.906  27.261  0.00  0.00    +0.000 OA
ATOM      6  C   UNL     1      29.221  22.806  28.517  0.00  0.00    +0.000 A 
ATOM      7  C   UNL     1      30.551  22.690  28.865  0.00  0.00    +0.000 A 
ATOM      8  C   UNL     1      30.958  22.584  30.186  0.00  0.00    +0.000 A 
ATOM      9  C   UNL     1      30.023  22.593  31.201  0.00  0.00    +0.000 A 
ATOM     10  O   UNL     1      30.371  22.490  32.539  0.00  0.00    +0.000 OA
ATOM     11  C   UNL     1      28.687  22.708  30.867  0.00  0.00    +0.000 A 
ATOM     12  C   UNL     1      28.300  22.813  29.551  0.00  0.00    +0.000 A 
ENDROOT
BRANCH   4  13
ATOM     13  C   UNL     1      27.184  23.128  25.504  0.00  0.00    +0.000 A 
ATOM     14  C   UNL     1      25.852  23.064  25.142  0.00  0.00    +0.000 A 
ATOM     15  C   UNL     1      25.439  23.166  23.833  0.00  0.00    +0.000 A 
ATOM     16  C   UNL     1      26.355  23.339  22.817  0.00  0.00    +0.000 A 
ATOM     17  O   UNL     1      25.944  23.444  21.480  0.00  0.00    +0.000 OA
ATOM     18  C   UNL     1      27.685  23.403  23.172  0.00  0.00    +0.000 A 
ATOM     19  C   UNL     1      28.096  23.300  24.487  0.00  0.00    +0.000 A 
ENDBRANCH   4  13
TORSDOF 1
ENDMDL
MODEL 10
REMARK VINA RESULT:      -6.4     20.858     22.907
REMARK  Name = 
REMARK  1 active torsions:
REMARK  status: ('A' for Active; 'I' for Inactive)
REMARK    1  A    between atoms: C_4  and  C_5
REMARK                            x       y       z     vdW  Elec       q    Type
REMARK                         _______ _______ _______ _____ _____    ______ ____
ROOT
ATOM      1  O   UNL     1      29.123  22.911  31.223  0.00  0.00    +0.000 OA
ATOM      2  C   UNL     1      29.899  22.636  30.275  0.00  0.00    +0.000 A 
ATOM      3  C   UNL     1      29.460  22.772  28.977  0.00  0.00    +0.000 A 
ATOM      4  C   UNL     1      30.292  22.476  27.924  0.00  0.00    +0.000 A 
ATOM      5  O   UNL     1      31.502  22.064  28.184  0.00  0.00    +0.000 OA
ATOM      6  C   UNL     1      31.968  21.918  29.405  0.00  0.00    +0.000 A 
ATOM      7  C   UNL     1      33.255  21.479  29.637  0.00  0.00    +0.000 A 
ATOM      8  C   UNL     1      33.757  21.321  30.920  0.00  0.00    +0.000 A 
ATOM      9  C   UNL     1      32.964  21.604  32.012  0.00  0.00    +0.000 A 
ATOM     10  O   UNL     1      33.412  21.465  33.317  0.00  0.00    +0.000 OA
ATOM     11  C   UNL     1      31.672  22.045  31.795  0.00  0.00    +0.000 A 
ATOM     12  C   UNL     1      31.190  22.196  30.516  0.00  0.00    +0.000 A 
ENDROOT
BRANCH   4  13
ATOM     13  C   UNL     1      29.776  22.638  26.575  0.00  0.00    +0.000 A 
ATOM     14  C   UNL     1      28.428  22.827  26.336  0.00  0.00    +0.000 A 
ATOM     15  C   UNL     1      27.920  22.983  25.066  0.00  0.00    +0.000 A 
ATOM     16  C   UNL     1      28.752  22.955  23.967  0.00  0.00    +0.000 A 
ATOM     17  O   UNL     1      28.245  23.112  22.669  0.00  0.00    +0.000 OA
ATOM     18  C   UNL     1      30.098  22.767  24.200  0.00  0.00    +0.000 A 
ATOM     19  C   UNL     1      30.603  22.611  25.476  0.00  0.00    +0.000 A 
ENDBRANCH   4  13
TORSDOF 1
ENDMDL
