MODEL 1
REMARK VINA RESULT:      -7.4      0.000      0.000
REMARK  Name = 
REMARK  8 active torsions:
REMARK  status: ('A' for Active; 'I' for Inactive)
REMARK    1  A    between atoms: C_2  and  O_3
REMARK    2  A    between atoms: O_3  and  C_4
REMARK    3  A    between atoms: C_7  and  N_8
REMARK    4  A    between atoms: C_11  and  N_12
REMARK    5  A    between atoms: N_12  and  C_13
REMARK    6  A    between atoms: C_16  and  C_17
REMARK    7  A    between atoms: C_22  and  S_23
REMARK    8  A    between atoms: S_23  and  C_24
REMARK                            x       y       z     vdW  Elec       q    Type
REMARK                         _______ _______ _______ _____ _____    ______ ____
ROOT
ATOM      1  N   UNL     1      38.175   3.878  16.044  0.00  0.00    +0.000 N 
ATOM      2  C   UNL     1      37.160   2.901  16.121  0.00  0.00    +0.000 C 
ATOM      3  O   UNL     1      36.222   2.896  16.990  0.00  0.00    +0.000 OA
ATOM      4  C   UNL     1      37.354   1.935  15.081  0.00  0.00    +0.000 C 
ATOM      5  C   UNL     1      38.440   2.260  14.357  0.00  0.00    +0.000 C 
ATOM      6  C   UNL     1      38.992   3.467  14.918  0.00  0.00    +0.000 C 
ATOM      7  O   UNL     1      40.009   4.114  14.549  0.00  0.00    +0.000 OA
ENDROOT
BRANCH   1  11
ATOM      8  C   UNL     1      38.814   7.298  18.460  0.00  0.00    +0.000 A 
ATOM      9  C   UNL     1      38.300   7.398  17.171  0.00  0.00    +0.000 A 
ATOM     10  C   UNL     1      38.097   6.299  16.374  0.00  0.00    +0.000 A 
ATOM     11  C   UNL     1      38.404   5.053  16.840  0.00  0.00    +0.000 A 
ATOM     12  C   UNL     1      38.912   4.898  18.100  0.00  0.00    +0.000 A 
ATOM     13  C   UNL     1      39.104   6.021  18.876  0.00  0.00    +0.000 A 
BRANCH   8  14
ATOM     14  O   UNL     1      39.005   8.434  19.241  0.00  0.00    +0.000 OA
BRANCH  14  16
ATOM     15  C   UNL     1      38.489   9.828  21.121  0.00  0.00    +0.000 C 
ATOM     16  C   UNL     1      38.041   8.659  20.279  0.00  0.00    +0.000 C 
ENDBRANCH  14  16
ENDBRANCH   8  14
ENDBRANCH   1  11
BRANCH   4  17
ATOM     17  N   UNL     1      36.569   0.819  14.802  0.00  0.00    +0.000 NA
BRANCH  17  18
ATOM     18  C   UNL     1      36.822  -0.533  15.128  0.00  0.00    +0.000 A 
ATOM     19  C   UNL     1      36.490  -1.613  14.345  0.00  0.00    +0.000 A 
ATOM     20  C   UNL     1      36.752  -2.919  14.728  0.00  0.00    +0.000 A 
ATOM     21  C   UNL     1      37.370  -3.203  15.934  0.00  0.00    +0.000 A 
ATOM     22  C   UNL     1      37.707  -2.127  16.725  0.00  0.00    +0.000 A 
ATOM     23  C   UNL     1      37.446  -0.833  16.346  0.00  0.00    +0.000 A 
BRANCH  21  24
ATOM     24  C   UNL     1      37.663  -4.598  16.382  0.00  0.00    +0.000 C 
ATOM     25  C   UNL     1      38.415  -4.626  17.688  0.00  0.00    +0.000 C 
ATOM     26  C   UNL     1      36.431  -5.434  16.488  0.00  0.00    +0.000 C 
ENDBRANCH  21  24
ENDBRANCH  17  18
ENDBRANCH   4  17
BRANCH   5  27
ATOM     27  S   UNL     1      38.982   1.293  12.987  0.00  0.00    +0.000 S 
BRANCH  27  28
ATOM     28  C   UNL     1      39.718  -0.232  13.394  0.00  0.00    +0.000 A 
ATOM     29  C   UNL     1      39.491  -1.303  12.515  0.00  0.00    +0.000 A 
ATOM     30  C   UNL     1      40.013  -2.536  12.722  0.00  0.00    +0.000 A 
ATOM     31  C   UNL     1      40.794  -2.821  13.801  0.00  0.00    +0.000 A 
ATOM     32  C   UNL     1      41.033  -1.776  14.690  0.00  0.00    +0.000 A 
ATOM     33  C   UNL     1      40.498  -0.522  14.471  0.00  0.00    +0.000 A 
ENDBRANCH  27  28
ENDBRANCH   5  27
TORSDOF 8
ENDMDL
MODEL 2
REMARK VINA RESULT:      -7.3      3.227      9.005
REMARK  Name = 
REMARK  8 active torsions:
REMARK  status: ('A' for Active; 'I' for Inactive)
REMARK    1  A    between atoms: C_2  and  O_3
REMARK    2  A    between atoms: O_3  and  C_4
REMARK    3  A    between atoms: C_7  and  N_8
REMARK    4  A    between atoms: C_11  and  N_12
REMARK    5  A    between atoms: N_12  and  C_13
REMARK    6  A    between atoms: C_16  and  C_17
REMARK    7  A    between atoms: C_22  and  S_23
REMARK    8  A    between atoms: S_23  and  C_24
REMARK                            x       y       z     vdW  Elec       q    Type
REMARK                         _______ _______ _______ _____ _____    ______ ____
ROOT
ATOM      1  N   UNL     1      36.840   1.779  15.556  0.00  0.00    +0.000 N 
ATOM      2  C   UNL     1      37.119   2.849  16.432  0.00  0.00    +0.000 C 
ATOM      3  O   UNL     1      37.157   2.753  17.707  0.00  0.00    +0.000 OA
ATOM      4  C   UNL     1      37.347   4.039  15.668  0.00  0.00    +0.000 C 
ATOM      5  C   UNL     1      37.224   3.765  14.356  0.00  0.00    +0.000 C 
ATOM      6  C   UNL     1      36.907   2.365  14.232  0.00  0.00    +0.000 C 
ATOM      7  O   UNL     1      36.707   1.693  13.184  0.00  0.00    +0.000 OA
ENDROOT
BRANCH   1  11
ATOM      8  C   UNL     1      36.000  -2.278  16.437  0.00  0.00    +0.000 A 
ATOM      9  C   UNL     1      37.244  -1.874  15.967  0.00  0.00    +0.000 A 
ATOM     10  C   UNL     1      37.528  -0.564  15.669  0.00  0.00    +0.000 A 
ATOM     11  C   UNL     1      36.568   0.394  15.830  0.00  0.00    +0.000 A 
ATOM     12  C   UNL     1      35.327   0.051  16.288  0.00  0.00    +0.000 A 
ATOM     13  C   UNL     1      35.074  -1.272  16.580  0.00  0.00    +0.000 A 
BRANCH   8  14
ATOM     14  O   UNL     1      35.748  -3.615  16.731  0.00  0.00    +0.000 OA
BRANCH  14  16
ATOM     15  C   UNL     1      34.565  -4.416  14.807  0.00  0.00    +0.000 C 
ATOM     16  C   UNL     1      35.824  -4.531  15.631  0.00  0.00    +0.000 C 
ENDBRANCH  14  16
ENDBRANCH   8  14
ENDBRANCH   1  11
BRANCH   4  17
ATOM     17  N   UNL     1      37.661   5.308  16.146  0.00  0.00    +0.000 NA
BRANCH  17  18
ATOM     18  C   UNL     1      38.803   5.712  16.874  0.00  0.00    +0.000 A 
ATOM     19  C   UNL     1      40.037   5.980  16.330  0.00  0.00    +0.000 A 
ATOM     20  C   UNL     1      41.126   6.358  17.101  0.00  0.00    +0.000 A 
ATOM     21  C   UNL     1      41.020   6.486  18.476  0.00  0.00    +0.000 A 
ATOM     22  C   UNL     1      39.788   6.220  19.031  0.00  0.00    +0.000 A 
ATOM     23  C   UNL     1      38.710   5.844  18.266  0.00  0.00    +0.000 A 
BRANCH  21  24
ATOM     24  C   UNL     1      42.172   6.886  19.340  0.00  0.00    +0.000 C 
ATOM     25  C   UNL     1      42.211   6.104  20.628  0.00  0.00    +0.000 C 
ATOM     26  C   UNL     1      43.483   6.767  18.634  0.00  0.00    +0.000 C 
ENDBRANCH  21  24
ENDBRANCH  17  18
ENDBRANCH   4  17
BRANCH   5  27
ATOM     27  S   UNL     1      37.442   4.996  13.114  0.00  0.00    +0.000 S 
BRANCH  27  28
ATOM     28  C   UNL     1      35.995   5.841  12.639  0.00  0.00    +0.000 A 
ATOM     29  C   UNL     1      35.053   6.106  13.646  0.00  0.00    +0.000 A 
ATOM     30  C   UNL     1      33.892   6.760  13.400  0.00  0.00    +0.000 A 
ATOM     31  C   UNL     1      33.558   7.203  12.157  0.00  0.00    +0.000 A 
ATOM     32  C   UNL     1      34.475   6.951  11.139  0.00  0.00    +0.000 A 
ATOM     33  C   UNL     1      35.657   6.285  11.397  0.00  0.00    +0.000 A 
ENDBRANCH  27  28
ENDBRANCH   5  27
TORSDOF 8
ENDMDL
MODEL 3
REMARK VINA RESULT:      -7.3      4.109      7.057
REMARK  Name = 
REMARK  8 active torsions:
REMARK  status: ('A' for Active; 'I' for Inactive)
REMARK    1  A    between atoms: C_2  and  O_3
REMARK    2  A    between atoms: O_3  and  C_4
REMARK    3  A    between atoms: C_7  and  N_8
REMARK    4  A    between atoms: C_11  and  N_12
REMARK    5  A    between atoms: N_12  and  C_13
REMARK    6  A    between atoms: C_16  and  C_17
REMARK    7  A    between atoms: C_22  and  S_23
REMARK    8  A    between atoms: S_23  and  C_24
REMARK                            x       y       z     vdW  Elec       q    Type
REMARK                         _______ _______ _______ _____ _____    ______ ____
ROOT
ATOM      1  N   UNL     1      36.072   5.183  14.097  0.00  0.00    +0.000 N 
ATOM      2  C   UNL     1      35.690   4.033  14.819  0.00  0.00    +0.000 C 
ATOM      3  O   UNL     1      34.657   3.324  14.563  0.00  0.00    +0.000 OA
ATOM      4  C   UNL     1      36.636   3.799  15.869  0.00  0.00    +0.000 C 
ATOM      5  C   UNL     1      37.591   4.746  15.838  0.00  0.00    +0.000 C 
ATOM      6  C   UNL     1      37.285   5.636  14.748  0.00  0.00    +0.000 C 
ATOM      7  O   UNL     1      37.916   6.659  14.365  0.00  0.00    +0.000 OA
ENDROOT
BRANCH   1  11
ATOM      8  C   UNL     1      34.377   7.059  10.698  0.00  0.00    +0.000 A 
ATOM      9  C   UNL     1      33.805   7.177  11.960  0.00  0.00    +0.000 A 
ATOM     10  C   UNL     1      34.339   6.566  13.068  0.00  0.00    +0.000 A 
ATOM     11  C   UNL     1      35.469   5.811  12.951  0.00  0.00    +0.000 A 
ATOM     12  C   UNL     1      36.072   5.661  11.734  0.00  0.00    +0.000 A 
ATOM     13  C   UNL     1      35.513   6.287  10.640  0.00  0.00    +0.000 A 
BRANCH   8  14
ATOM     14  O   UNL     1      33.810   7.693   9.596  0.00  0.00    +0.000 OA
BRANCH  14  16
ATOM     15  C   UNL     1      34.302   8.057   7.278  0.00  0.00    +0.000 C 
ATOM     16  C   UNL     1      33.968   7.031   8.333  0.00  0.00    +0.000 C 
ENDBRANCH  14  16
ENDBRANCH   8  14
ENDBRANCH   1  11
BRANCH   4  17
ATOM     17  N   UNL     1      36.631   2.764  16.801  0.00  0.00    +0.000 NA
BRANCH  17  18
ATOM     18  C   UNL     1      36.288   1.408  16.602  0.00  0.00    +0.000 A 
ATOM     19  C   UNL     1      35.192   0.780  17.143  0.00  0.00    +0.000 A 
ATOM     20  C   UNL     1      34.917  -0.562  16.922  0.00  0.00    +0.000 A 
ATOM     21  C   UNL     1      35.745  -1.343  16.134  0.00  0.00    +0.000 A 
ATOM     22  C   UNL     1      36.846  -0.722  15.587  0.00  0.00    +0.000 A 
ATOM     23  C   UNL     1      37.119   0.606  15.807  0.00  0.00    +0.000 A 
BRANCH  21  24
ATOM     24  C   UNL     1      35.484  -2.792  15.878  0.00  0.00    +0.000 C 
ATOM     25  C   UNL     1      35.874  -3.199  14.480  0.00  0.00    +0.000 C 
ATOM     26  C   UNL     1      36.160  -3.677  16.872  0.00  0.00    +0.000 C 
ENDBRANCH  21  24
ENDBRANCH  17  18
ENDBRANCH   4  17
BRANCH   5  27
ATOM     27  S   UNL     1      38.928   4.772  16.987  0.00  0.00    +0.000 S 
BRANCH  27  28
ATOM     28  C   UNL     1      38.862   6.039  18.179  0.00  0.00    +0.000 A 
ATOM     29  C   UNL     1      39.814   5.992  19.211  0.00  0.00    +0.000 A 
ATOM     30  C   UNL     1      39.866   6.923  20.193  0.00  0.00    +0.000 A 
ATOM     31  C   UNL     1      38.997   7.970  20.248  0.00  0.00    +0.000 A 
ATOM     32  C   UNL     1      38.042   8.039  19.236  0.00  0.00    +0.000 A 
ATOM     33  C   UNL     1      37.995   7.087  18.238  0.00  0.00    +0.000 A 
ENDBRANCH  27  28
ENDBRANCH   5  27
TORSDOF 8
ENDMDL
MODEL 4
REMARK VINA RESULT:      -7.2      4.107      9.226
REMARK  Name = 
REMARK  8 active torsions:
REMARK  status: ('A' for Active; 'I' for Inactive)
REMARK    1  A    between atoms: C_2  and  O_3
REMARK    2  A    between atoms: O_3  and  C_4
REMARK    3  A    between atoms: C_7  and  N_8
REMARK    4  A    between atoms: C_11  and  N_12
REMARK    5  A    between atoms: N_12  and  C_13
REMARK    6  A    between atoms: C_16  and  C_17
REMARK    7  A    between atoms: C_22  and  S_23
REMARK    8  A    between atoms: S_23  and  C_24
REMARK                            x       y       z     vdW  Elec       q    Type
REMARK                         _______ _______ _______ _____ _____    ______ ____
ROOT
ATOM      1  N   UNL     1      36.357   2.003  15.130  0.00  0.00    +0.000 N 
ATOM      2  C   UNL     1      35.497   3.076  14.817  0.00  0.00    +0.000 C 
ATOM      3  O   UNL     1      34.231   2.971  14.664  0.00  0.00    +0.000 OA
ATOM      4  C   UNL     1      36.265   4.280  14.702  0.00  0.00    +0.000 C 
ATOM      5  C   UNL     1      37.564   4.012  14.928  0.00  0.00    +0.000 C 
ATOM      6  C   UNL     1      37.676   2.602  15.199  0.00  0.00    +0.000 C 
ATOM      7  O   UNL     1      38.710   1.929  15.461  0.00  0.00    +0.000 OA
ENDROOT
BRANCH   1  11
ATOM      8  C   UNL     1      35.532  -2.078  15.913  0.00  0.00    +0.000 A 
ATOM      9  C   UNL     1      36.291  -1.682  14.817  0.00  0.00    +0.000 A 
ATOM     10  C   UNL     1      36.558  -0.362  14.546  0.00  0.00    +0.000 A 
ATOM     11  C   UNL     1      36.071   0.613  15.367  0.00  0.00    +0.000 A 
ATOM     12  C   UNL     1      35.319   0.280  16.458  0.00  0.00    +0.000 A 
ATOM     13  C   UNL     1      35.068  -1.053  16.704  0.00  0.00    +0.000 A 
BRANCH   8  14
ATOM     14  O   UNL     1      35.283  -3.425  16.159  0.00  0.00    +0.000 OA
BRANCH  14  16
ATOM     15  C   UNL     1      33.383  -4.348  15.027  0.00  0.00    +0.000 C 
ATOM     16  C   UNL     1      34.886  -4.212  15.028  0.00  0.00    +0.000 C 
ENDBRANCH  14  16
ENDBRANCH   8  14
ENDBRANCH   1  11
BRANCH   4  17
ATOM     17  N   UNL     1      35.799   5.560  14.416  0.00  0.00    +0.000 NA
BRANCH  17  18
ATOM     18  C   UNL     1      35.345   6.071  13.178  0.00  0.00    +0.000 A 
ATOM     19  C   UNL     1      34.208   6.824  13.000  0.00  0.00    +0.000 A 
ATOM     20  C   UNL     1      33.807   7.284  11.755  0.00  0.00    +0.000 A 
ATOM     21  C   UNL     1      34.542   7.004  10.616  0.00  0.00    +0.000 A 
ATOM     22  C   UNL     1      35.683   6.250  10.785  0.00  0.00    +0.000 A 
ATOM     23  C   UNL     1      36.080   5.793  12.018  0.00  0.00    +0.000 A 
BRANCH  21  24
ATOM     24  C   UNL     1      34.139   7.477   9.258  0.00  0.00    +0.000 C 
ATOM     25  C   UNL     1      34.801   8.781   8.893  0.00  0.00    +0.000 C 
ATOM     26  C   UNL     1      34.402   6.460   8.197  0.00  0.00    +0.000 C 
ENDBRANCH  21  24
ENDBRANCH  17  18
ENDBRANCH   4  17
BRANCH   5  27
ATOM     27  S   UNL     1      38.806   5.261  14.872  0.00  0.00    +0.000 S 
BRANCH  27  28
ATOM     28  C   UNL     1      39.553   5.640  16.398  0.00  0.00    +0.000 A 
ATOM     29  C   UNL     1      38.802   5.379  17.556  0.00  0.00    +0.000 A 
ATOM     30  C   UNL     1      39.277   5.627  18.800  0.00  0.00    +0.000 A 
ATOM     31  C   UNL     1      40.517   6.149  19.013  0.00  0.00    +0.000 A 
ATOM     32  C   UNL     1      41.281   6.419  17.880  0.00  0.00    +0.000 A 
ATOM     33  C   UNL     1      40.791   6.162  16.616  0.00  0.00    +0.000 A 
ENDBRANCH  27  28
ENDBRANCH   5  27
TORSDOF 8
ENDMDL
MODEL 5
REMARK VINA RESULT:      -7.0      4.218      6.356
REMARK  Name = 
REMARK  8 active torsions:
REMARK  status: ('A' for Active; 'I' for Inactive)
REMARK    1  A    between atoms: C_2  and  O_3
REMARK    2  A    between atoms: O_3  and  C_4
REMARK    3  A    between atoms: C_7  and  N_8
REMARK    4  A    between atoms: C_11  and  N_12
REMARK    5  A    between atoms: N_12  and  C_13
REMARK    6  A    between atoms: C_16  and  C_17
REMARK    7  A    between atoms: C_22  and  S_23
REMARK    8  A    between atoms: S_23  and  C_24
REMARK                            x       y       z     vdW  Elec       q    Type
REMARK                         _______ _______ _______ _____ _____    ______ ____
ROOT
ATOM      1  N   UNL     1      35.998   7.384  14.389  0.00  0.00    +0.000 N 
ATOM      2  C   UNL     1      35.570   6.133  13.896  0.00  0.00    +0.000 C 
ATOM      3  O   UNL     1      34.520   5.953  13.189  0.00  0.00    +0.000 OA
ATOM      4  C   UNL     1      36.493   5.119  14.312  0.00  0.00    +0.000 C 
ATOM      5  C   UNL     1      37.477   5.675  15.042  0.00  0.00    +0.000 C 
ATOM      6  C   UNL     1      37.215   7.089  15.121  0.00  0.00    +0.000 C 
ATOM      7  O   UNL     1      37.882   7.982  15.709  0.00  0.00    +0.000 OA
ENDROOT
BRANCH   1  11
ATOM      8  C   UNL     1      34.252  11.216  13.934  0.00  0.00    +0.000 A 
ATOM      9  C   UNL     1      35.180  10.722  13.024  0.00  0.00    +0.000 A 
ATOM     10  C   UNL     1      35.761   9.486  13.164  0.00  0.00    +0.000 A 
ATOM     11  C   UNL     1      35.432   8.696  14.228  0.00  0.00    +0.000 A 
ATOM     12  C   UNL     1      34.526   9.133  15.152  0.00  0.00    +0.000 A 
ATOM     13  C   UNL     1      33.959  10.378  14.984  0.00  0.00    +0.000 A 
BRANCH   8  14
ATOM     14  O   UNL     1      33.682  12.474  13.759  0.00  0.00    +0.000 OA
BRANCH  14  16
ATOM     15  C   UNL     1      32.148  14.197  14.409  0.00  0.00    +0.000 C 
ATOM     16  C   UNL     1      32.922  12.984  14.863  0.00  0.00    +0.000 C 
ENDBRANCH  14  16
ENDBRANCH   8  14
ENDBRANCH   1  11
BRANCH   4  17
ATOM     17  N   UNL     1      36.442   3.757  14.029  0.00  0.00    +0.000 NA
BRANCH  17  18
ATOM     18  C   UNL     1      36.002   2.705  14.864  0.00  0.00    +0.000 A 
ATOM     19  C   UNL     1      35.080   2.829  15.876  0.00  0.00    +0.000 A 
ATOM     20  C   UNL     1      34.700   1.759  16.672  0.00  0.00    +0.000 A 
ATOM     21  C   UNL     1      35.237   0.497  16.482  0.00  0.00    +0.000 A 
ATOM     22  C   UNL     1      36.161   0.363  15.469  0.00  0.00    +0.000 A 
ATOM     23  C   UNL     1      36.539   1.423  14.682  0.00  0.00    +0.000 A 
BRANCH  21  24
ATOM     24  C   UNL     1      34.856  -0.678  17.323  0.00  0.00    +0.000 C 
ATOM     25  C   UNL     1      34.973  -1.977  16.567  0.00  0.00    +0.000 C 
ATOM     26  C   UNL     1      35.645  -0.754  18.588  0.00  0.00    +0.000 C 
ENDBRANCH  21  24
ENDBRANCH  17  18
ENDBRANCH   4  17
BRANCH   5  27
ATOM     27  S   UNL     1      38.796   4.724  15.721  0.00  0.00    +0.000 S 
BRANCH  27  28
ATOM     28  C   UNL     1      39.674   5.484  17.018  0.00  0.00    +0.000 A 
ATOM     29  C   UNL     1      39.078   5.460  18.290  0.00  0.00    +0.000 A 
ATOM     30  C   UNL     1      39.666   6.014  19.377  0.00  0.00    +0.000 A 
ATOM     31  C   UNL     1      40.876   6.635  19.311  0.00  0.00    +0.000 A 
ATOM     32  C   UNL     1      41.488   6.674  18.060  0.00  0.00    +0.000 A 
ATOM     33  C   UNL     1      40.883   6.106  16.956  0.00  0.00    +0.000 A 
ENDBRANCH  27  28
ENDBRANCH   5  27
TORSDOF 8
ENDMDL
MODEL 6
REMARK VINA RESULT:      -7.0      3.154      5.197
REMARK  Name = 
REMARK  8 active torsions:
REMARK  status: ('A' for Active; 'I' for Inactive)
REMARK    1  A    between atoms: C_2  and  O_3
REMARK    2  A    between atoms: O_3  and  C_4
REMARK    3  A    between atoms: C_7  and  N_8
REMARK    4  A    between atoms: C_11  and  N_12
REMARK    5  A    between atoms: N_12  and  C_13
REMARK    6  A    between atoms: C_16  and  C_17
REMARK    7  A    between atoms: C_22  and  S_23
REMARK    8  A    between atoms: S_23  and  C_24
REMARK                            x       y       z     vdW  Elec       q    Type
REMARK                         _______ _______ _______ _____ _____    ______ ____
ROOT
ATOM      1  N   UNL     1      38.786   5.186  16.803  0.00  0.00    +0.000 N 
ATOM      2  C   UNL     1      37.866   4.121  16.899  0.00  0.00    +0.000 C 
ATOM      3  O   UNL     1      37.653   3.440  17.959  0.00  0.00    +0.000 OA
ATOM      4  C   UNL     1      37.224   3.935  15.632  0.00  0.00    +0.000 C 
ATOM      5  C   UNL     1      37.698   4.832  14.748  0.00  0.00    +0.000 C 
ATOM      6  C   UNL     1      38.678   5.638  15.430  0.00  0.00    +0.000 C 
ATOM      7  O   UNL     1      39.366   6.592  14.976  0.00  0.00    +0.000 OA
ENDROOT
BRANCH   1  11
ATOM      8  C   UNL     1      41.390   6.841  19.705  0.00  0.00    +0.000 A 
ATOM      9  C   UNL     1      40.043   6.621  19.971  0.00  0.00    +0.000 A 
ATOM     10  C   UNL     1      39.186   6.095  19.037  0.00  0.00    +0.000 A 
ATOM     11  C   UNL     1      39.649   5.769  17.795  0.00  0.00    +0.000 A 
ATOM     12  C   UNL     1      40.965   5.964  17.480  0.00  0.00    +0.000 A 
ATOM     13  C   UNL     1      41.801   6.494  18.439  0.00  0.00    +0.000 A 
BRANCH   8  14
ATOM     14  O   UNL     1      42.232   7.375  20.677  0.00  0.00    +0.000 OA
BRANCH  14  16
ATOM     15  C   UNL     1      44.020   5.979  21.448  0.00  0.00    +0.000 C 
ATOM     16  C   UNL     1      43.631   7.105  20.521  0.00  0.00    +0.000 C 
ENDBRANCH  14  16
ENDBRANCH   8  14
ENDBRANCH   1  11
BRANCH   4  17
ATOM     17  N   UNL     1      36.247   2.998  15.304  0.00  0.00    +0.000 NA
BRANCH  17  18
ATOM     18  C   UNL     1      36.376   1.594  15.214  0.00  0.00    +0.000 A 
ATOM     19  C   UNL     1      37.252   0.929  14.390  0.00  0.00    +0.000 A 
ATOM     20  C   UNL     1      37.320  -0.455  14.335  0.00  0.00    +0.000 A 
ATOM     21  C   UNL     1      36.498  -1.245  15.121  0.00  0.00    +0.000 A 
ATOM     22  C   UNL     1      35.616  -0.587  15.951  0.00  0.00    +0.000 A 
ATOM     23  C   UNL     1      35.548   0.783  16.003  0.00  0.00    +0.000 A 
BRANCH  21  24
ATOM     24  C   UNL     1      36.539  -2.738  15.086  0.00  0.00    +0.000 C 
ATOM     25  C   UNL     1      35.158  -3.343  15.110  0.00  0.00    +0.000 C 
ATOM     26  C   UNL     1      37.302  -3.260  13.914  0.00  0.00    +0.000 C 
ENDBRANCH  21  24
ENDBRANCH  17  18
ENDBRANCH   4  17
BRANCH   5  27
ATOM     27  S   UNL     1      37.130   4.900  13.081  0.00  0.00    +0.000 S 
BRANCH  27  28
ATOM     28  C   UNL     1      35.678   5.825  12.824  0.00  0.00    +0.000 A 
ATOM     29  C   UNL     1      35.455   6.313  11.526  0.00  0.00    +0.000 A 
ATOM     30  C   UNL     1      34.360   7.041  11.202  0.00  0.00    +0.000 A 
ATOM     31  C   UNL     1      33.399   7.351  12.115  0.00  0.00    +0.000 A 
ATOM     32  C   UNL     1      33.596   6.880  13.411  0.00  0.00    +0.000 A 
ATOM     33  C   UNL     1      34.715   6.138  13.734  0.00  0.00    +0.000 A 
ENDBRANCH  27  28
ENDBRANCH   5  27
TORSDOF 8
ENDMDL
MODEL 7
REMARK VINA RESULT:      -6.9      3.410      6.279
REMARK  Name = 
REMARK  8 active torsions:
REMARK  status: ('A' for Active; 'I' for Inactive)
REMARK    1  A    between atoms: C_2  and  O_3
REMARK    2  A    between atoms: O_3  and  C_4
REMARK    3  A    between atoms: C_7  and  N_8
REMARK    4  A    between atoms: C_11  and  N_12
REMARK    5  A    between atoms: N_12  and  C_13
REMARK    6  A    between atoms: C_16  and  C_17
REMARK    7  A    between atoms: C_22  and  S_23
REMARK    8  A    between atoms: S_23  and  C_24
REMARK                            x       y       z     vdW  Elec       q    Type
REMARK                         _______ _______ _______ _____ _____    ______ ____
ROOT
ATOM      1  N   UNL     1      38.649   5.773  16.789  0.00  0.00    +0.000 N 
ATOM      2  C   UNL     1      37.942   4.575  16.555  0.00  0.00    +0.000 C 
ATOM      3  O   UNL     1      38.066   3.510  17.252  0.00  0.00    +0.000 OA
ATOM      4  C   UNL     1      37.077   4.749  15.426  0.00  0.00    +0.000 C 
ATOM      5  C   UNL     1      37.210   5.998  14.943  0.00  0.00    +0.000 C 
ATOM      6  C   UNL     1      38.182   6.679  15.759  0.00  0.00    +0.000 C 
ATOM      7  O   UNL     1      38.606   7.862  15.657  0.00  0.00    +0.000 OA
ENDROOT
BRANCH   1  11
ATOM      8  C   UNL     1      41.423   6.825  19.813  0.00  0.00    +0.000 A 
ATOM      9  C   UNL     1      41.829   6.543  18.514  0.00  0.00    +0.000 A 
ATOM     10  C   UNL     1      40.942   6.191  17.526  0.00  0.00    +0.000 A 
ATOM     11  C   UNL     1      39.609   6.108  17.807  0.00  0.00    +0.000 A 
ATOM     12  C   UNL     1      39.155   6.375  19.068  0.00  0.00    +0.000 A 
ATOM     13  C   UNL     1      40.070   6.726  20.037  0.00  0.00    +0.000 A 
BRANCH   8  14
ATOM     14  O   UNL     1      42.349   7.181  20.789  0.00  0.00    +0.000 OA
BRANCH  14  16
ATOM     15  C   UNL     1      44.317   6.751  22.088  0.00  0.00    +0.000 C 
ATOM     16  C   UNL     1      43.234   6.142  21.231  0.00  0.00    +0.000 C 
ENDBRANCH  14  16
ENDBRANCH   8  14
ENDBRANCH   1  11
BRANCH   4  17
ATOM     17  N   UNL     1      36.204   3.817  14.873  0.00  0.00    +0.000 NA
BRANCH  17  18
ATOM     18  C   UNL     1      35.877   2.529  15.356  0.00  0.00    +0.000 A 
ATOM     19  C   UNL     1      35.017   2.267  16.396  0.00  0.00    +0.000 A 
ATOM     20  C   UNL     1      34.748   0.979  16.834  0.00  0.00    +0.000 A 
ATOM     21  C   UNL     1      35.341  -0.120  16.235  0.00  0.00    +0.000 A 
ATOM     22  C   UNL     1      36.204   0.133  15.192  0.00  0.00    +0.000 A 
ATOM     23  C   UNL     1      36.471   1.408  14.759  0.00  0.00    +0.000 A 
BRANCH  21  24
ATOM     24  C   UNL     1      35.079  -1.521  16.683  0.00  0.00    +0.000 C 
ATOM     25  C   UNL     1      36.205  -2.065  17.525  0.00  0.00    +0.000 C 
ATOM     26  C   UNL     1      33.786  -1.653  17.418  0.00  0.00    +0.000 C 
ENDBRANCH  21  24
ENDBRANCH  17  18
ENDBRANCH   4  17
BRANCH   5  27
ATOM     27  S   UNL     1      36.293   6.570  13.550  0.00  0.00    +0.000 S 
BRANCH  27  28
ATOM     28  C   UNL     1      35.411   8.051  13.795  0.00  0.00    +0.000 A 
ATOM     29  C   UNL     1      35.691   9.111  12.917  0.00  0.00    +0.000 A 
ATOM     30  C   UNL     1      35.066  10.310  13.005  0.00  0.00    +0.000 A 
ATOM     31  C   UNL     1      34.124  10.570  13.953  0.00  0.00    +0.000 A 
ATOM     32  C   UNL     1      33.829   9.535  14.838  0.00  0.00    +0.000 A 
ATOM     33  C   UNL     1      34.469   8.315  14.741  0.00  0.00    +0.000 A 
ENDBRANCH  27  28
ENDBRANCH   5  27
TORSDOF 8
ENDMDL
MODEL 8
REMARK VINA RESULT:      -6.9     26.747     28.773
REMARK  Name = 
REMARK  8 active torsions:
REMARK  status: ('A' for Active; 'I' for Inactive)
REMARK    1  A    between atoms: C_2  and  O_3
REMARK    2  A    between atoms: O_3  and  C_4
REMARK    3  A    between atoms: C_7  and  N_8
REMARK    4  A    between atoms: C_11  and  N_12
REMARK    5  A    between atoms: N_12  and  C_13
REMARK    6  A    between atoms: C_16  and  C_17
REMARK    7  A    between atoms: C_22  and  S_23
REMARK    8  A    between atoms: S_23  and  C_24
REMARK                            x       y       z     vdW  Elec       q    Type
REMARK                         _______ _______ _______ _____ _____    ______ ____
ROOT
ATOM      1  N   UNL     1      26.432  15.257  37.862  0.00  0.00    +0.000 N 
ATOM      2  C   UNL     1      25.698  14.598  38.870  0.00  0.00    +0.000 C 
ATOM      3  O   UNL     1      24.459  14.293  38.783  0.00  0.00    +0.000 OA
ATOM      4  C   UNL     1      26.557  14.333  39.985  0.00  0.00    +0.000 C 
ATOM      5  C   UNL     1      27.793  14.795  39.723  0.00  0.00    +0.000 C 
ATOM      6  C   UNL     1      27.769  15.382  38.408  0.00  0.00    +0.000 C 
ATOM      7  O   UNL     1      28.710  15.932  37.774  0.00  0.00    +0.000 OA
ENDROOT
BRANCH   1  11
ATOM      8  C   UNL     1      25.329  16.563  33.986  0.00  0.00    +0.000 A 
ATOM      9  C   UNL     1      25.087  17.337  35.115  0.00  0.00    +0.000 A 
ATOM     10  C   UNL     1      25.430  16.922  36.379  0.00  0.00    +0.000 A 
ATOM     11  C   UNL     1      26.031  15.709  36.557  0.00  0.00    +0.000 A 
ATOM     12  C   UNL     1      26.292  14.908  35.481  0.00  0.00    +0.000 A 
ATOM     13  C   UNL     1      25.936  15.353  34.226  0.00  0.00    +0.000 A 
BRANCH   8  14
ATOM     14  O   UNL     1      24.969  17.016  32.720  0.00  0.00    +0.000 OA
BRANCH  14  16
ATOM     15  C   UNL     1      24.312  18.907  31.402  0.00  0.00    +0.000 C 
ATOM     16  C   UNL     1      24.076  18.137  32.679  0.00  0.00    +0.000 C 
ENDBRANCH  14  16
ENDBRANCH   8  14
ENDBRANCH   1  11
BRANCH   4  17
ATOM     17  N   UNL     1      26.228  13.693  41.177  0.00  0.00    +0.000 NA
BRANCH  17  18
ATOM     18  C   UNL     1      26.484  12.354  41.551  0.00  0.00    +0.000 A 
ATOM     19  C   UNL     1      26.436  11.867  42.835  0.00  0.00    +0.000 A 
ATOM     20  C   UNL     1      26.713  10.542  43.140  0.00  0.00    +0.000 A 
ATOM     21  C   UNL     1      27.053   9.635  42.152  0.00  0.00    +0.000 A 
ATOM     22  C   UNL     1      27.103  10.114  40.861  0.00  0.00    +0.000 A 
ATOM     23  C   UNL     1      26.831  11.426  40.560  0.00  0.00    +0.000 A 
BRANCH  21  24
ATOM     24  C   UNL     1      27.363   8.202  42.443  0.00  0.00    +0.000 C 
ATOM     25  C   UNL     1      28.843   7.964  42.602  0.00  0.00    +0.000 C 
ATOM     26  C   UNL     1      26.635   7.694  43.644  0.00  0.00    +0.000 C 
ENDBRANCH  21  24
ENDBRANCH  17  18
ENDBRANCH   4  17
BRANCH   5  27
ATOM     27  S   UNL     1      29.118  14.641  40.875  0.00  0.00    +0.000 S 
BRANCH  27  28
ATOM     28  C   UNL     1      29.901  13.085  40.909  0.00  0.00    +0.000 A 
ATOM     29  C   UNL     1      30.053  12.477  42.166  0.00  0.00    +0.000 A 
ATOM     30  C   UNL     1      30.642  11.267  42.319  0.00  0.00    +0.000 A 
ATOM     31  C   UNL     1      31.127  10.557  41.264  0.00  0.00    +0.000 A 
ATOM     32  C   UNL     1      30.990  11.139  40.006  0.00  0.00    +0.000 A 
ATOM     33  C   UNL     1      30.388  12.372  39.857  0.00  0.00    +0.000 A 
ENDBRANCH  27  28
ENDBRANCH   5  27
TORSDOF 8
ENDMDL
MODEL 9
REMARK VINA RESULT:      -6.7      3.417      9.596
REMARK  Name = 
REMARK  8 active torsions:
REMARK  status: ('A' for Active; 'I' for Inactive)
REMARK    1  A    between atoms: C_2  and  O_3
REMARK    2  A    between atoms: O_3  and  C_4
REMARK    3  A    between atoms: C_7  and  N_8
REMARK    4  A    between atoms: C_11  and  N_12
REMARK    5  A    between atoms: N_12  and  C_13
REMARK    6  A    between atoms: C_16  and  C_17
REMARK    7  A    between atoms: C_22  and  S_23
REMARK    8  A    between atoms: S_23  and  C_24
REMARK                            x       y       z     vdW  Elec       q    Type
REMARK                         _______ _______ _______ _____ _____    ______ ____
ROOT
ATOM      1  N   UNL     1      36.546   3.323  15.320  0.00  0.00    +0.000 N 
ATOM      2  C   UNL     1      35.866   4.420  14.752  0.00  0.00    +0.000 C 
ATOM      3  O   UNL     1      34.651   4.393  14.354  0.00  0.00    +0.000 OA
ATOM      4  C   UNL     1      36.748   5.547  14.697  0.00  0.00    +0.000 C 
ATOM      5  C   UNL     1      37.948   5.209  15.204  0.00  0.00    +0.000 C 
ATOM      6  C   UNL     1      37.875   3.828  15.608  0.00  0.00    +0.000 C 
ATOM      7  O   UNL     1      38.772   3.111  16.128  0.00  0.00    +0.000 OA
ENDROOT
BRANCH   1  11
ATOM      8  C   UNL     1      35.229  -0.594  16.252  0.00  0.00    +0.000 A 
ATOM      9  C   UNL     1      36.062  -0.340  15.168  0.00  0.00    +0.000 A 
ATOM     10  C   UNL     1      36.489   0.925  14.849  0.00  0.00    +0.000 A 
ATOM     11  C   UNL     1      36.094   1.989  15.608  0.00  0.00    +0.000 A 
ATOM     12  C   UNL     1      35.275   1.796  16.685  0.00  0.00    +0.000 A 
ATOM     13  C   UNL     1      34.864   0.514  16.980  0.00  0.00    +0.000 A 
BRANCH   8  14
ATOM     14  O   UNL     1      34.818  -1.890  16.548  0.00  0.00    +0.000 OA
BRANCH  14  16
ATOM     15  C   UNL     1      34.368  -3.868  15.271  0.00  0.00    +0.000 C 
ATOM     16  C   UNL     1      35.438  -2.940  15.792  0.00  0.00    +0.000 C 
ENDBRANCH  14  16
ENDBRANCH   8  14
ENDBRANCH   1  11
BRANCH   4  17
ATOM     17  N   UNL     1      36.466   6.824  14.218  0.00  0.00    +0.000 NA
BRANCH  17  18
ATOM     18  C   UNL     1      35.790   7.877  14.875  0.00  0.00    +0.000 A 
ATOM     19  C   UNL     1      36.368   8.767  15.749  0.00  0.00    +0.000 A 
ATOM     20  C   UNL     1      35.646   9.771  16.375  0.00  0.00    +0.000 A 
ATOM     21  C   UNL     1      34.289   9.929  16.146  0.00  0.00    +0.000 A 
ATOM     22  C   UNL     1      33.701   9.042  15.271  0.00  0.00    +0.000 A 
ATOM     23  C   UNL     1      34.416   8.046  14.652  0.00  0.00    +0.000 A 
BRANCH  21  24
ATOM     24  C   UNL     1      33.478  10.996  16.806  0.00  0.00    +0.000 C 
ATOM     25  C   UNL     1      32.703  10.469  17.987  0.00  0.00    +0.000 C 
ATOM     26  C   UNL     1      34.306  12.166  17.224  0.00  0.00    +0.000 C 
ENDBRANCH  21  24
ENDBRANCH  17  18
ENDBRANCH   4  17
BRANCH   5  27
ATOM     27  S   UNL     1      39.285   6.352  15.299  0.00  0.00    +0.000 S 
BRANCH  27  28
ATOM     28  C   UNL     1      40.142   6.374  16.815  0.00  0.00    +0.000 A 
ATOM     29  C   UNL     1      41.536   6.537  16.756  0.00  0.00    +0.000 A 
ATOM     30  C   UNL     1      42.310   6.574  17.867  0.00  0.00    +0.000 A 
ATOM     31  C   UNL     1      41.788   6.454  19.119  0.00  0.00    +0.000 A 
ATOM     32  C   UNL     1      40.408   6.289  19.206  0.00  0.00    +0.000 A 
ATOM     33  C   UNL     1      39.625   6.254  18.068  0.00  0.00    +0.000 A 
ENDBRANCH  27  28
ENDBRANCH   5  27
TORSDOF 8
ENDMDL
MODEL 10
REMARK VINA RESULT:      -6.6     25.819     27.741
REMARK  Name = 
REMARK  8 active torsions:
REMARK  status: ('A' for Active; 'I' for Inactive)
REMARK    1  A    between atoms: C_2  and  O_3
REMARK    2  A    between atoms: O_3  and  C_4
REMARK    3  A    between atoms: C_7  and  N_8
REMARK    4  A    between atoms: C_11  and  N_12
REMARK    5  A    between atoms: N_12  and  C_13
REMARK    6  A    between atoms: C_16  and  C_17
REMARK    7  A    between atoms: C_22  and  S_23
REMARK    8  A    between atoms: S_23  and  C_24
REMARK                            x       y       z     vdW  Elec       q    Type
REMARK                         _______ _______ _______ _____ _____    ______ ____
ROOT
ATOM      1  N   UNL     1      15.419  -0.087  27.157  0.00  0.00    +0.000 N 
ATOM      2  C   UNL     1      15.317   0.204  28.533  0.00  0.00    +0.000 C 
ATOM      3  O   UNL     1      16.306   0.498  29.289  0.00  0.00    +0.000 OA
ATOM      4  C   UNL     1      13.945   0.116  28.935  0.00  0.00    +0.000 C 
ATOM      5  C   UNL     1      13.184  -0.216  27.876  0.00  0.00    +0.000 C 
ATOM      6  C   UNL     1      14.057  -0.355  26.739  0.00  0.00    +0.000 C 
ATOM      7  O   UNL     1      13.762  -0.658  25.551  0.00  0.00    +0.000 OA
ENDROOT
BRANCH   1  11
ATOM      8  C   UNL     1      18.759  -0.084  24.551  0.00  0.00    +0.000 A 
ATOM      9  C   UNL     1      18.162  -1.267  24.973  0.00  0.00    +0.000 A 
ATOM     10  C   UNL     1      17.085  -1.283  25.825  0.00  0.00    +0.000 A 
ATOM     11  C   UNL     1      16.566  -0.108  26.288  0.00  0.00    +0.000 A 
ATOM     12  C   UNL     1      17.115   1.083  25.905  0.00  0.00    +0.000 A 
ATOM     13  C   UNL     1      18.195   1.067  25.049  0.00  0.00    +0.000 A 
BRANCH   8  14
ATOM     14  O   UNL     1      19.849  -0.105  23.685  0.00  0.00    +0.000 OA
BRANCH  14  16
ATOM     15  C   UNL     1      20.848  -1.148  21.772  0.00  0.00    +0.000 C 
ATOM     16  C   UNL     1      20.170  -1.375  23.102  0.00  0.00    +0.000 C 
ENDBRANCH  14  16
ENDBRANCH   8  14
ENDBRANCH   1  11
BRANCH   4  17
ATOM     17  N   UNL     1      13.415   0.338  30.203  0.00  0.00    +0.000 NA
BRANCH  17  18
ATOM     18  C   UNL     1      13.927  -0.081  31.452  0.00  0.00    +0.000 A 
ATOM     19  C   UNL     1      13.897  -1.370  31.928  0.00  0.00    +0.000 A 
ATOM     20  C   UNL     1      14.404  -1.716  33.172  0.00  0.00    +0.000 A 
ATOM     21  C   UNL     1      14.972  -0.767  34.004  0.00  0.00    +0.000 A 
ATOM     22  C   UNL     1      15.007   0.528  33.535  0.00  0.00    +0.000 A 
ATOM     23  C   UNL     1      14.504   0.870  32.304  0.00  0.00    +0.000 A 
BRANCH  21  24
ATOM     24  C   UNL     1      15.523  -1.102  35.352  0.00  0.00    +0.000 C 
ATOM     25  C   UNL     1      14.915  -0.252  36.439  0.00  0.00    +0.000 C 
ATOM     26  C   UNL     1      15.366  -2.548  35.690  0.00  0.00    +0.000 C 
ENDBRANCH  21  24
ENDBRANCH  17  18
ENDBRANCH   4  17
BRANCH   5  27
ATOM     27  S   UNL     1      11.437  -0.412  27.997  0.00  0.00    +0.000 S 
BRANCH  27  28
ATOM     28  C   UNL     1      10.508   0.377  26.753  0.00  0.00    +0.000 A 
ATOM     29  C   UNL     1      10.560   1.780  26.714  0.00  0.00    +0.000 A 
ATOM     30  C   UNL     1       9.884   2.506  25.791  0.00  0.00    +0.000 A 
ATOM     31  C   UNL     1       9.107   1.923  24.837  0.00  0.00    +0.000 A 
ATOM     32  C   UNL     1       9.038   0.532  24.855  0.00  0.00    +0.000 A 
ATOM     33  C   UNL     1       9.730  -0.201  25.798  0.00  0.00    +0.000 A 
ENDBRANCH  27  28
ENDBRANCH   5  27
TORSDOF 8
ENDMDL
