MODEL 1
REMARK VINA RESULT:      -8.7      0.000      0.000
REMARK  Name = 
REMARK  1 active torsions:
REMARK  status: ('A' for Active; 'I' for Inactive)
REMARK    1  A    between atoms: C_5  and  C_6
REMARK                            x       y       z     vdW  Elec       q    Type
REMARK                         _______ _______ _______ _____ _____    ______ ____
ROOT
ATOM      1  C   UNL     1      15.229  11.708  36.007  0.00  0.00    +0.000 A 
ATOM      2  N   UNL     1      14.376  11.515  37.013  0.00  0.00    +0.000 NA
ATOM      3  C   UNL     1      14.678  10.966  38.177  0.00  0.00    +0.000 A 
ATOM      4  N   UNL     1      13.645  10.839  39.137  0.00  0.00    +0.000 NA
ATOM      5  C   UNL     1      15.995  10.537  38.415  0.00  0.00    +0.000 A 
ATOM      6  C   UNL     1      16.480   9.957  39.541  0.00  0.00    +0.000 A 
ATOM      7  C   UNL     1      17.807   9.621  39.539  0.00  0.00    +0.000 A 
ATOM      8  S   UNL     1      18.328  10.115  37.994  0.00  0.00    +0.000 S 
ATOM      9  C   UNL     1      16.859  10.735  37.386  0.00  0.00    +0.000 A 
ATOM     10  N   UNL     1      16.494  11.302  36.216  0.00  0.00    +0.000 NA
ATOM     11  C   UNL     1      18.395   8.972  40.770  0.00  0.00    +0.000 C 
ATOM     12  C   UNL     1      17.525   7.782  41.080  0.00  0.00    +0.000 C 
ATOM     13  C   UNL     1      16.065   8.124  41.101  0.00  0.00    +0.000 C 
ATOM     14  C   UNL     1      15.806   9.592  40.860  0.00  0.00    +0.000 C 
ENDROOT
BRANCH   1  19
ATOM     15  C   UNL     1      13.761  14.031  30.953  0.00  0.00    +0.000 C 
ATOM     16  C   UNL     1      14.136  13.438  32.267  0.00  0.00    +0.000 A 
ATOM     17  C   UNL     1      14.938  12.317  32.336  0.00  0.00    +0.000 A 
ATOM     18  C   UNL     1      15.287  11.763  33.559  0.00  0.00    +0.000 A 
ATOM     19  C   UNL     1      14.840  12.320  34.739  0.00  0.00    +0.000 A 
ATOM     20  C   UNL     1      14.039  13.439  34.679  0.00  0.00    +0.000 A 
ATOM     21  C   UNL     1      13.693  13.987  33.452  0.00  0.00    +0.000 A 
ENDBRANCH   1  19
TORSDOF 1
ENDMDL
MODEL 2
REMARK VINA RESULT:      -8.7      1.761      7.585
REMARK  Name = 
REMARK  1 active torsions:
REMARK  status: ('A' for Active; 'I' for Inactive)
REMARK    1  A    between atoms: C_5  and  C_6
REMARK                            x       y       z     vdW  Elec       q    Type
REMARK                         _______ _______ _______ _____ _____    ______ ____
ROOT
ATOM      1  C   UNL     1      16.019  11.124  36.486  0.00  0.00    +0.000 A 
ATOM      2  N   UNL     1      15.104  12.085  36.362  0.00  0.00    +0.000 NA
ATOM      3  C   UNL     1      14.653  12.568  35.218  0.00  0.00    +0.000 A 
ATOM      4  N   UNL     1      13.675  13.592  35.271  0.00  0.00    +0.000 NA
ATOM      5  C   UNL     1      15.151  12.055  34.009  0.00  0.00    +0.000 A 
ATOM      6  C   UNL     1      14.806  12.428  32.752  0.00  0.00    +0.000 A 
ATOM      7  C   UNL     1      15.433  11.780  31.721  0.00  0.00    +0.000 A 
ATOM      8  S   UNL     1      16.467  10.690  32.523  0.00  0.00    +0.000 S 
ATOM      9  C   UNL     1      16.084  11.076  34.142  0.00  0.00    +0.000 A 
ATOM     10  N   UNL     1      16.509  10.621  35.339  0.00  0.00    +0.000 NA
ATOM     11  C   UNL     1      15.083  12.161  30.302  0.00  0.00    +0.000 C 
ATOM     12  C   UNL     1      15.261  13.654  30.206  0.00  0.00    +0.000 C 
ATOM     13  C   UNL     1      14.573  14.391  31.316  0.00  0.00    +0.000 C 
ATOM     14  C   UNL     1      13.816  13.472  32.244  0.00  0.00    +0.000 C 
ENDROOT
BRANCH   1  19
ATOM     15  C   UNL     1      17.728   9.169  41.621  0.00  0.00    +0.000 C 
ATOM     16  C   UNL     1      17.296   9.675  40.288  0.00  0.00    +0.000 A 
ATOM     17  C   UNL     1      15.971   9.966  40.035  0.00  0.00    +0.000 A 
ATOM     18  C   UNL     1      15.567  10.437  38.794  0.00  0.00    +0.000 A 
ATOM     19  C   UNL     1      16.482  10.627  37.779  0.00  0.00    +0.000 A 
ATOM     20  C   UNL     1      17.807  10.339  38.024  0.00  0.00    +0.000 A 
ATOM     21  C   UNL     1      18.203   9.868  39.267  0.00  0.00    +0.000 A 
ENDBRANCH   1  19
TORSDOF 1
ENDMDL
MODEL 3
REMARK VINA RESULT:      -7.5      1.355      2.458
REMARK  Name = 
REMARK  1 active torsions:
REMARK  status: ('A' for Active; 'I' for Inactive)
REMARK    1  A    between atoms: C_5  and  C_6
REMARK                            x       y       z     vdW  Elec       q    Type
REMARK                         _______ _______ _______ _____ _____    ______ ____
ROOT
ATOM      1  C   UNL     1      16.157  11.290  35.533  0.00  0.00    +0.000 A 
ATOM      2  N   UNL     1      17.382  10.766  35.478  0.00  0.00    +0.000 NA
ATOM      3  C   UNL     1      18.009  10.181  36.483  0.00  0.00    +0.000 A 
ATOM      4  N   UNL     1      19.312   9.677  36.247  0.00  0.00    +0.000 NA
ATOM      5  C   UNL     1      17.369  10.080  37.730  0.00  0.00    +0.000 A 
ATOM      6  C   UNL     1      17.857   9.516  38.863  0.00  0.00    +0.000 A 
ATOM      7  C   UNL     1      17.043   9.538  39.963  0.00  0.00    +0.000 A 
ATOM      8  S   UNL     1      15.647  10.331  39.395  0.00  0.00    +0.000 S 
ATOM      9  C   UNL     1      16.122  10.616  37.780  0.00  0.00    +0.000 A 
ATOM     10  N   UNL     1      15.529  11.204  36.719  0.00  0.00    +0.000 NA
ATOM     11  C   UNL     1      17.543   8.924  41.249  0.00  0.00    +0.000 C 
ATOM     12  C   UNL     1      18.876   9.562  41.536  0.00  0.00    +0.000 C 
ATOM     13  C   UNL     1      19.794   9.541  40.350  0.00  0.00    +0.000 C 
ATOM     14  C   UNL     1      19.191   8.837  39.158  0.00  0.00    +0.000 C 
ENDROOT
BRANCH   1  19
ATOM     15  C   UNL     1      13.677  13.728  30.949  0.00  0.00    +0.000 C 
ATOM     16  C   UNL     1      14.314  13.103  32.143  0.00  0.00    +0.000 A 
ATOM     17  C   UNL     1      15.270  12.118  32.003  0.00  0.00    +0.000 A 
ATOM     18  C   UNL     1      15.863  11.535  33.113  0.00  0.00    +0.000 A 
ATOM     19  C   UNL     1      15.511  11.927  34.389  0.00  0.00    +0.000 A 
ATOM     20  C   UNL     1      14.557  12.910  34.537  0.00  0.00    +0.000 A 
ATOM     21  C   UNL     1      13.969  13.488  33.421  0.00  0.00    +0.000 A 
ENDBRANCH   1  19
TORSDOF 1
ENDMDL
MODEL 4
REMARK VINA RESULT:      -7.3     20.085     21.830
REMARK  Name = 
REMARK  1 active torsions:
REMARK  status: ('A' for Active; 'I' for Inactive)
REMARK    1  A    between atoms: C_5  and  C_6
REMARK                            x       y       z     vdW  Elec       q    Type
REMARK                         _______ _______ _______ _____ _____    ______ ____
ROOT
ATOM      1  C   UNL     1      33.301  -0.698  34.724  0.00  0.00    +0.000 A 
ATOM      2  N   UNL     1      33.589  -0.294  35.961  0.00  0.00    +0.000 NA
ATOM      3  C   UNL     1      33.840   0.954  36.319  0.00  0.00    +0.000 A 
ATOM      4  N   UNL     1      34.128   1.206  37.682  0.00  0.00    +0.000 NA
ATOM      5  C   UNL     1      33.812   1.968  35.347  0.00  0.00    +0.000 A 
ATOM      6  C   UNL     1      34.043   3.292  35.532  0.00  0.00    +0.000 A 
ATOM      7  C   UNL     1      33.959   4.093  34.425  0.00  0.00    +0.000 A 
ATOM      8  S   UNL     1      33.568   2.996  33.182  0.00  0.00    +0.000 S 
ATOM      9  C   UNL     1      33.519   1.550  34.089  0.00  0.00    +0.000 A 
ATOM     10  N   UNL     1      33.270   0.259  33.780  0.00  0.00    +0.000 NA
ATOM     11  C   UNL     1      34.208   5.575  34.580  0.00  0.00    +0.000 C 
ATOM     12  C   UNL     1      35.545   5.712  35.261  0.00  0.00    +0.000 C 
ATOM     13  C   UNL     1      35.660   4.854  36.485  0.00  0.00    +0.000 C 
ATOM     14  C   UNL     1      34.392   4.090  36.784  0.00  0.00    +0.000 C 
ENDROOT
BRANCH   1  19
ATOM     15  C   UNL     1      32.324  -6.185  33.294  0.00  0.00    +0.000 C 
ATOM     16  C   UNL     1      32.569  -4.765  33.672  0.00  0.00    +0.000 A 
ATOM     17  C   UNL     1      33.480  -3.993  32.979  0.00  0.00    +0.000 A 
ATOM     18  C   UNL     1      33.710  -2.671  33.331  0.00  0.00    +0.000 A 
ATOM     19  C   UNL     1      33.031  -2.093  34.385  0.00  0.00    +0.000 A 
ATOM     20  C   UNL     1      32.121  -2.856  35.081  0.00  0.00    +0.000 A 
ATOM     21  C   UNL     1      31.897  -4.178  34.724  0.00  0.00    +0.000 A 
ENDBRANCH   1  19
TORSDOF 1
ENDMDL
MODEL 5
REMARK VINA RESULT:      -7.1     19.564     20.788
REMARK  Name = 
REMARK  1 active torsions:
REMARK  status: ('A' for Active; 'I' for Inactive)
REMARK    1  A    between atoms: C_5  and  C_6
REMARK                            x       y       z     vdW  Elec       q    Type
REMARK                         _______ _______ _______ _____ _____    ______ ____
ROOT
ATOM      1  C   UNL     1      34.657   5.077  35.674  0.00  0.00    +0.000 A 
ATOM      2  N   UNL     1      34.280   4.703  34.452  0.00  0.00    +0.000 NA
ATOM      3  C   UNL     1      33.896   3.485  34.109  0.00  0.00    +0.000 A 
ATOM      4  N   UNL     1      33.527   3.263  32.760  0.00  0.00    +0.000 NA
ATOM      5  C   UNL     1      33.869   2.472  35.082  0.00  0.00    +0.000 A 
ATOM      6  C   UNL     1      33.506   1.177  34.911  0.00  0.00    +0.000 A 
ATOM      7  C   UNL     1      33.561   0.369  36.015  0.00  0.00    +0.000 A 
ATOM      8  S   UNL     1      34.109   1.423  37.237  0.00  0.00    +0.000 S 
ATOM      9  C   UNL     1      34.255   2.859  36.325  0.00  0.00    +0.000 A 
ATOM     10  N   UNL     1      34.638   4.120  36.619  0.00  0.00    +0.000 NA
ATOM     11  C   UNL     1      33.167  -1.082  35.875  0.00  0.00    +0.000 C 
ATOM     12  C   UNL     1      33.989  -1.638  34.743  0.00  0.00    +0.000 C 
ATOM     13  C   UNL     1      33.936  -0.780  33.514  0.00  0.00    +0.000 C 
ATOM     14  C   UNL     1      33.029   0.416  33.677  0.00  0.00    +0.000 C 
ENDROOT
BRANCH   1  19
ATOM     15  C   UNL     1      36.408  10.400  36.981  0.00  0.00    +0.000 C 
ATOM     16  C   UNL     1      35.944   9.026  36.640  0.00  0.00    +0.000 A 
ATOM     17  C   UNL     1      36.781   7.938  36.787  0.00  0.00    +0.000 A 
ATOM     18  C   UNL     1      36.351   6.657  36.469  0.00  0.00    +0.000 A 
ATOM     19  C   UNL     1      35.073   6.439  35.998  0.00  0.00    +0.000 A 
ATOM     20  C   UNL     1      34.231   7.520  35.849  0.00  0.00    +0.000 A 
ATOM     21  C   UNL     1      34.669   8.797  36.168  0.00  0.00    +0.000 A 
ENDBRANCH   1  19
TORSDOF 1
ENDMDL
MODEL 6
REMARK VINA RESULT:      -7.0      1.634      2.143
REMARK  Name = 
REMARK  1 active torsions:
REMARK  status: ('A' for Active; 'I' for Inactive)
REMARK    1  A    between atoms: C_5  and  C_6
REMARK                            x       y       z     vdW  Elec       q    Type
REMARK                         _______ _______ _______ _____ _____    ______ ____
ROOT
ATOM      1  C   UNL     1      16.915  10.717  36.031  0.00  0.00    +0.000 A 
ATOM      2  N   UNL     1      16.170  10.637  37.133  0.00  0.00    +0.000 NA
ATOM      3  C   UNL     1      16.620  10.338  38.340  0.00  0.00    +0.000 A 
ATOM      4  N   UNL     1      15.685  10.298  39.403  0.00  0.00    +0.000 NA
ATOM      5  C   UNL     1      17.988  10.077  38.520  0.00  0.00    +0.000 A 
ATOM      6  C   UNL     1      18.619   9.757  39.677  0.00  0.00    +0.000 A 
ATOM      7  C   UNL     1      19.970   9.544  39.605  0.00  0.00    +0.000 A 
ATOM      8  S   UNL     1      20.312   9.791  37.955  0.00  0.00    +0.000 S 
ATOM      9  C   UNL     1      18.742  10.159  37.394  0.00  0.00    +0.000 A 
ATOM     10  N   UNL     1      18.228  10.469  36.184  0.00  0.00    +0.000 NA
ATOM     11  C   UNL     1      20.718   9.184  40.867  0.00  0.00    +0.000 C 
ATOM     12  C   UNL     1      20.003   7.999  41.461  0.00  0.00    +0.000 C 
ATOM     13  C   UNL     1      18.522   8.210  41.565  0.00  0.00    +0.000 C 
ATOM     14  C   UNL     1      18.094   9.580  41.099  0.00  0.00    +0.000 C 
ENDROOT
BRANCH   1  19
ATOM     15  C   UNL     1      14.831  11.957  30.814  0.00  0.00    +0.000 C 
ATOM     16  C   UNL     1      15.364  11.644  32.169  0.00  0.00    +0.000 A 
ATOM     17  C   UNL     1      16.415  10.765  32.332  0.00  0.00    +0.000 A 
ATOM     18  C   UNL     1      16.912  10.471  33.594  0.00  0.00    +0.000 A 
ATOM     19  C   UNL     1      16.365  11.052  34.720  0.00  0.00    +0.000 A 
ATOM     20  C   UNL     1      15.315  11.930  34.566  0.00  0.00    +0.000 A 
ATOM     21  C   UNL     1      14.824  12.218  33.300  0.00  0.00    +0.000 A 
ENDBRANCH   1  19
TORSDOF 1
ENDMDL
MODEL 7
REMARK VINA RESULT:      -6.9     22.614     23.608
REMARK  Name = 
REMARK  1 active torsions:
REMARK  status: ('A' for Active; 'I' for Inactive)
REMARK    1  A    between atoms: C_5  and  C_6
REMARK                            x       y       z     vdW  Elec       q    Type
REMARK                         _______ _______ _______ _____ _____    ______ ____
ROOT
ATOM      1  C   UNL     1      22.526  -7.787  24.911  0.00  0.00    +0.000 A 
ATOM      2  N   UNL     1      21.728  -6.724  25.010  0.00  0.00    +0.000 NA
ATOM      3  C   UNL     1      20.543  -6.709  25.595  0.00  0.00    +0.000 A 
ATOM      4  N   UNL     1      19.828  -5.487  25.610  0.00  0.00    +0.000 NA
ATOM      5  C   UNL     1      20.045  -7.890  26.173  0.00  0.00    +0.000 A 
ATOM      6  C   UNL     1      18.860  -8.057  26.810  0.00  0.00    +0.000 A 
ATOM      7  C   UNL     1      18.591  -9.309  27.293  0.00  0.00    +0.000 A 
ATOM      8  S   UNL     1      19.975 -10.199  26.852  0.00  0.00    +0.000 S 
ATOM      9  C   UNL     1      20.862  -8.969  26.068  0.00  0.00    +0.000 A 
ATOM     10  N   UNL     1      22.066  -8.927  25.458  0.00  0.00    +0.000 NA
ATOM     11  C   UNL     1      17.283  -9.547  28.010  0.00  0.00    +0.000 C 
ATOM     12  C   UNL     1      16.197  -9.068  27.082  0.00  0.00    +0.000 C 
ATOM     13  C   UNL     1      16.459  -7.692  26.547  0.00  0.00    +0.000 C 
ATOM     14  C   UNL     1      17.724  -7.082  27.102  0.00  0.00    +0.000 C 
ENDROOT
BRANCH   1  19
ATOM     15  C   UNL     1      27.659  -7.755  22.312  0.00  0.00    +0.000 C 
ATOM     16  C   UNL     1      26.330  -7.752  22.985  0.00  0.00    +0.000 A 
ATOM     17  C   UNL     1      25.707  -8.934  23.330  0.00  0.00    +0.000 A 
ATOM     18  C   UNL     1      24.469  -8.933  23.956  0.00  0.00    +0.000 A 
ATOM     19  C   UNL     1      23.829  -7.747  24.251  0.00  0.00    +0.000 A 
ATOM     20  C   UNL     1      24.444  -6.563  23.910  0.00  0.00    +0.000 A 
ATOM     21  C   UNL     1      25.682  -6.573  23.283  0.00  0.00    +0.000 A 
ENDBRANCH   1  19
TORSDOF 1
ENDMDL
MODEL 8
REMARK VINA RESULT:      -6.7      2.096      3.565
REMARK  Name = 
REMARK  1 active torsions:
REMARK  status: ('A' for Active; 'I' for Inactive)
REMARK    1  A    between atoms: C_5  and  C_6
REMARK                            x       y       z     vdW  Elec       q    Type
REMARK                         _______ _______ _______ _____ _____    ______ ____
ROOT
ATOM      1  C   UNL     1      17.439  10.460  36.587  0.00  0.00    +0.000 A 
ATOM      2  N   UNL     1      18.753  10.388  36.796  0.00  0.00    +0.000 NA
ATOM      3  C   UNL     1      19.329  10.115  37.954  0.00  0.00    +0.000 A 
ATOM      4  N   UNL     1      20.745  10.078  37.996  0.00  0.00    +0.000 NA
ATOM      5  C   UNL     1      18.528   9.874  39.083  0.00  0.00    +0.000 A 
ATOM      6  C   UNL     1      18.944   9.581  40.340  0.00  0.00    +0.000 A 
ATOM      7  C   UNL     1      17.971   9.386  41.282  0.00  0.00    +0.000 A 
ATOM      8  S   UNL     1      16.530   9.614  40.402  0.00  0.00    +0.000 S 
ATOM      9  C   UNL     1      17.190   9.949  38.864  0.00  0.00    +0.000 A 
ATOM     10  N   UNL     1      16.655  10.233  37.657  0.00  0.00    +0.000 NA
ATOM     11  C   UNL     1      18.384   9.058  42.698  0.00  0.00    +0.000 C 
ATOM     12  C   UNL     1      19.352  10.133  43.118  0.00  0.00    +0.000 C 
ATOM     13  C   UNL     1      20.438  10.358  42.109  0.00  0.00    +0.000 C 
ATOM     14  C   UNL     1      20.342   9.421  40.929  0.00  0.00    +0.000 C 
ENDROOT
BRANCH   1  19
ATOM     15  C   UNL     1      15.053  11.742  31.511  0.00  0.00    +0.000 C 
ATOM     16  C   UNL     1      15.678  11.404  32.820  0.00  0.00    +0.000 A 
ATOM     17  C   UNL     1      15.173  11.911  34.000  0.00  0.00    +0.000 A 
ATOM     18  C   UNL     1      15.754  11.597  35.220  0.00  0.00    +0.000 A 
ATOM     19  C   UNL     1      16.855  10.767  35.284  0.00  0.00    +0.000 A 
ATOM     20  C   UNL     1      17.365  10.257  34.111  0.00  0.00    +0.000 A 
ATOM     21  C   UNL     1      16.778  10.576  32.895  0.00  0.00    +0.000 A 
ENDBRANCH   1  19
TORSDOF 1
ENDMDL
MODEL 9
REMARK VINA RESULT:      -6.6     19.308     20.212
REMARK  Name = 
REMARK  1 active torsions:
REMARK  status: ('A' for Active; 'I' for Inactive)
REMARK    1  A    between atoms: C_5  and  C_6
REMARK                            x       y       z     vdW  Elec       q    Type
REMARK                         _______ _______ _______ _____ _____    ______ ____
ROOT
ATOM      1  C   UNL     1       8.612  23.244  23.362  0.00  0.00    +0.000 A 
ATOM      2  N   UNL     1       9.435  24.272  23.562  0.00  0.00    +0.000 NA
ATOM      3  C   UNL     1      10.639  24.403  23.032  0.00  0.00    +0.000 A 
ATOM      4  N   UNL     1      11.381  25.566  23.353  0.00  0.00    +0.000 NA
ATOM      5  C   UNL     1      11.130  23.398  22.182  0.00  0.00    +0.000 A 
ATOM      6  C   UNL     1      12.333  23.365  21.555  0.00  0.00    +0.000 A 
ATOM      7  C   UNL     1      12.591  22.273  20.772  0.00  0.00    +0.000 A 
ATOM      8  S   UNL     1      11.174  21.340  20.931  0.00  0.00    +0.000 S 
ATOM      9  C   UNL     1      10.287  22.352  21.983  0.00  0.00    +0.000 A 
ATOM     10  N   UNL     1       9.066  22.270  22.551  0.00  0.00    +0.000 NA
ATOM     11  C   UNL     1      13.917  22.190  20.053  0.00  0.00    +0.000 C 
ATOM     12  C   UNL     1      14.981  22.381  21.102  0.00  0.00    +0.000 C 
ATOM     13  C   UNL     1      14.730  23.580  21.967  0.00  0.00    +0.000 C 
ATOM     14  C   UNL     1      13.498  24.349  21.556  0.00  0.00    +0.000 C 
ENDROOT
BRANCH   1  19
ATOM     15  C   UNL     1       3.352  22.861  25.662  0.00  0.00    +0.000 C 
ATOM     16  C   UNL     1       4.718  22.962  25.077  0.00  0.00    +0.000 A 
ATOM     17  C   UNL     1       4.912  22.898  23.712  0.00  0.00    +0.000 A 
ATOM     18  C   UNL     1       6.184  22.990  23.165  0.00  0.00    +0.000 A 
ATOM     19  C   UNL     1       7.289  23.150  23.975  0.00  0.00    +0.000 A 
ATOM     20  C   UNL     1       7.105  23.215  25.338  0.00  0.00    +0.000 A 
ATOM     21  C   UNL     1       5.830  23.121  25.877  0.00  0.00    +0.000 A 
ENDBRANCH   1  19
TORSDOF 1
ENDMDL
MODEL 10
REMARK VINA RESULT:      -6.5     22.148     23.653
REMARK  Name = 
REMARK  1 active torsions:
REMARK  status: ('A' for Active; 'I' for Inactive)
REMARK    1  A    between atoms: C_5  and  C_6
REMARK                            x       y       z     vdW  Elec       q    Type
REMARK                         _______ _______ _______ _____ _____    ______ ____
ROOT
ATOM      1  C   UNL     1      19.569  -9.033  27.407  0.00  0.00    +0.000 A 
ATOM      2  N   UNL     1      19.451  -7.828  26.851  0.00  0.00    +0.000 NA
ATOM      3  C   UNL     1      20.284  -7.309  25.965  0.00  0.00    +0.000 A 
ATOM      4  N   UNL     1      20.005  -6.010  25.476  0.00  0.00    +0.000 NA
ATOM      5  C   UNL     1      21.398  -8.057  25.546  0.00  0.00    +0.000 A 
ATOM      6  C   UNL     1      22.348  -7.687  24.653  0.00  0.00    +0.000 A 
ATOM      7  C   UNL     1      23.346  -8.591  24.404  0.00  0.00    +0.000 A 
ATOM      8  S   UNL     1      22.935  -9.905  25.407  0.00  0.00    +0.000 S 
ATOM      9  C   UNL     1      21.512  -9.284  26.117  0.00  0.00    +0.000 A 
ATOM     10  N   UNL     1      20.630  -9.763  27.019  0.00  0.00    +0.000 NA
ATOM     11  C   UNL     1      24.429  -8.225  23.417  0.00  0.00    +0.000 C 
ATOM     12  C   UNL     1      24.984  -6.899  23.867  0.00  0.00    +0.000 C 
ATOM     13  C   UNL     1      23.913  -5.885  24.134  0.00  0.00    +0.000 C 
ATOM     14  C   UNL     1      22.527  -6.408  23.841  0.00  0.00    +0.000 C 
ENDROOT
BRANCH   1  19
ATOM     15  C   UNL     1      15.891 -11.048  31.346  0.00  0.00    +0.000 C 
ATOM     16  C   UNL     1      16.837 -10.531  30.318  0.00  0.00    +0.000 A 
ATOM     17  C   UNL     1      17.977  -9.843  30.684  0.00  0.00    +0.000 A 
ATOM     18  C   UNL     1      18.858  -9.361  29.728  0.00  0.00    +0.000 A 
ATOM     19  C   UNL     1      18.617  -9.557  28.384  0.00  0.00    +0.000 A 
ATOM     20  C   UNL     1      17.482 -10.242  28.010  0.00  0.00    +0.000 A 
ATOM     21  C   UNL     1      16.605 -10.721  28.973  0.00  0.00    +0.000 A 
ENDBRANCH   1  19
TORSDOF 1
ENDMDL
