MODEL 1
REMARK VINA RESULT:      -7.3      0.000      0.000
REMARK  Name = 
REMARK  7 active torsions:
REMARK  status: ('A' for Active; 'I' for Inactive)
REMARK    1  A    between atoms: C_2  and  C_3
REMARK    2  A    between atoms: C_3  and  O_4
REMARK    3  A    between atoms: O_4  and  C_5
REMARK    4  A    between atoms: C_8  and  N_9
REMARK    5  A    between atoms: C_10  and  C_12
REMARK    6  A    between atoms: C_13  and  N_14
REMARK    7  A    between atoms: C_15  and  C_17
REMARK                            x       y       z     vdW  Elec       q    Type
REMARK                         _______ _______ _______ _____ _____    ______ ____
ROOT
ATOM      1  C   UNL     1      36.446  -0.385  15.970  0.00  0.00    +0.000 A 
ATOM      2  C   UNL     1      36.395   0.750  16.733  0.00  0.00    +0.000 A 
ATOM      3  S   UNL     1      34.914   0.450  17.668  0.00  0.00    +0.000 S 
ATOM      4  C   UNL     1      34.483  -1.033  17.041  0.00  0.00    +0.000 A 
ATOM      5  C   UNL     1      33.279  -1.858  17.424  0.00  0.00    +0.000 C 
ATOM      6  C   UNL     1      35.452  -1.298  16.135  0.00  0.00    +0.000 A 
ATOM      7  C   UNL     1      35.348  -2.622  15.357  0.00  0.00    +0.000 C 
ENDROOT
BRANCH   1   9
ATOM      8  N   UNL     1      38.886  -0.821  15.742  0.00  0.00    +0.000 NA
ATOM      9  C   UNL     1      37.628  -0.698  15.114  0.00  0.00    +0.000 C 
ATOM     10  O   UNL     1      37.594  -0.864  13.892  0.00  0.00    +0.000 OA
BRANCH   8  14
ATOM     11  C   UNL     1      42.365  -1.633  13.460  0.00  0.00    +0.000 A 
ATOM     12  C   UNL     1      41.910  -0.352  13.615  0.00  0.00    +0.000 A 
ATOM     13  C   UNL     1      40.774  -0.117  14.365  0.00  0.00    +0.000 A 
ATOM     14  C   UNL     1      40.068  -1.127  14.970  0.00  0.00    +0.000 A 
ATOM     15  C   UNL     1      40.533  -2.414  14.808  0.00  0.00    +0.000 A 
ATOM     16  C   UNL     1      41.668  -2.660  14.062  0.00  0.00    +0.000 A 
BRANCH  11  17
ATOM     17  O   UNL     1      43.508  -1.852  12.705  0.00  0.00    +0.000 OA
BRANCH  17  18
ATOM     18  C   UNL     1      44.728  -1.178  12.973  0.00  0.00    +0.000 C 
BRANCH  18  20
ATOM     19  C   UNL     1      45.244  -0.429  15.283  0.00  0.00    +0.000 C 
ATOM     20  C   UNL     1      45.220  -1.610  14.345  0.00  0.00    +0.000 C 
ENDBRANCH  18  20
ENDBRANCH  17  18
ENDBRANCH  11  17
ENDBRANCH   8  14
ENDBRANCH   1   9
BRANCH   2  21
ATOM     21  N   UNL     1      37.041   1.970  16.825  0.00  0.00    +0.000 NA
ATOM     22  C   UNL     1      37.038   3.246  16.451  0.00  0.00    +0.000 C 
ATOM     23  O   UNL     1      36.114   3.674  15.729  0.00  0.00    +0.000 OA
BRANCH  22  24
ATOM     24  C   UNL     1      38.077   4.249  16.832  0.00  0.00    +0.000 A 
ATOM     25  C   UNL     1      38.300   4.587  18.142  0.00  0.00    +0.000 A 
ATOM     26  C   UNL     1      39.280   5.530  18.475  0.00  0.00    +0.000 A 
ATOM     27  C   UNL     1      40.043   6.145  17.507  0.00  0.00    +0.000 A 
ATOM     28  C   UNL     1      39.816   5.804  16.192  0.00  0.00    +0.000 A 
ATOM     29  C   UNL     1      38.835   4.859  15.862  0.00  0.00    +0.000 A 
ENDBRANCH  22  24
ENDBRANCH   2  21
TORSDOF 7
ENDMDL
MODEL 2
REMARK VINA RESULT:      -7.3      1.063      1.884
REMARK  Name = 
REMARK  7 active torsions:
REMARK  status: ('A' for Active; 'I' for Inactive)
REMARK    1  A    between atoms: C_2  and  C_3
REMARK    2  A    between atoms: C_3  and  O_4
REMARK    3  A    between atoms: O_4  and  C_5
REMARK    4  A    between atoms: C_8  and  N_9
REMARK    5  A    between atoms: C_10  and  C_12
REMARK    6  A    between atoms: C_13  and  N_14
REMARK    7  A    between atoms: C_15  and  C_17
REMARK                            x       y       z     vdW  Elec       q    Type
REMARK                         _______ _______ _______ _____ _____    ______ ____
ROOT
ATOM      1  C   UNL     1      36.494  -0.271  15.953  0.00  0.00    +0.000 A 
ATOM      2  C   UNL     1      36.448   0.864  16.716  0.00  0.00    +0.000 A 
ATOM      3  S   UNL     1      34.984   0.555  17.675  0.00  0.00    +0.000 S 
ATOM      4  C   UNL     1      34.552  -0.931  17.056  0.00  0.00    +0.000 A 
ATOM      5  C   UNL     1      33.360  -1.763  17.457  0.00  0.00    +0.000 C 
ATOM      6  C   UNL     1      35.508  -1.190  16.134  0.00  0.00    +0.000 A 
ATOM      7  C   UNL     1      35.400  -2.515  15.358  0.00  0.00    +0.000 C 
ENDROOT
BRANCH   1   9
ATOM      8  N   UNL     1      38.908  -0.823  15.699  0.00  0.00    +0.000 NA
ATOM      9  C   UNL     1      37.665  -0.577  15.079  0.00  0.00    +0.000 C 
ATOM     10  O   UNL     1      37.631  -0.637  13.847  0.00  0.00    +0.000 OA
BRANCH   8  14
ATOM     11  C   UNL     1      42.325  -1.804  13.390  0.00  0.00    +0.000 A 
ATOM     12  C   UNL     1      41.544  -2.784  13.940  0.00  0.00    +0.000 A 
ATOM     13  C   UNL     1      40.436  -2.435  14.688  0.00  0.00    +0.000 A 
ATOM     14  C   UNL     1      40.078  -1.128  14.908  0.00  0.00    +0.000 A 
ATOM     15  C   UNL     1      40.870  -0.148  14.350  0.00  0.00    +0.000 A 
ATOM     16  C   UNL     1      41.979  -0.486  13.601  0.00  0.00    +0.000 A 
BRANCH  11  17
ATOM     17  O   UNL     1      43.434  -2.172  12.642  0.00  0.00    +0.000 OA
BRANCH  17  18
ATOM     18  C   UNL     1      43.390  -3.238  11.705  0.00  0.00    +0.000 C 
BRANCH  18  20
ATOM     19  C   UNL     1      41.427  -3.472  10.203  0.00  0.00    +0.000 C 
ATOM     20  C   UNL     1      42.720  -2.731  10.438  0.00  0.00    +0.000 C 
ENDBRANCH  18  20
ENDBRANCH  17  18
ENDBRANCH  11  17
ENDBRANCH   8  14
ENDBRANCH   1   9
BRANCH   2  21
ATOM     21  N   UNL     1      37.087   2.088  16.797  0.00  0.00    +0.000 NA
ATOM     22  C   UNL     1      37.126   3.340  16.351  0.00  0.00    +0.000 C 
ATOM     23  O   UNL     1      36.277   3.723  15.521  0.00  0.00    +0.000 OA
BRANCH  22  24
ATOM     24  C   UNL     1      38.129   4.365  16.770  0.00  0.00    +0.000 A 
ATOM     25  C   UNL     1      38.398   4.605  18.092  0.00  0.00    +0.000 A 
ATOM     26  C   UNL     1      39.342   5.571  18.461  0.00  0.00    +0.000 A 
ATOM     27  C   UNL     1      40.024   6.305  17.515  0.00  0.00    +0.000 A 
ATOM     28  C   UNL     1      39.750   6.062  16.188  0.00  0.00    +0.000 A 
ATOM     29  C   UNL     1      38.805   5.095  15.822  0.00  0.00    +0.000 A 
ENDBRANCH  22  24
ENDBRANCH   2  21
TORSDOF 7
ENDMDL
MODEL 3
REMARK VINA RESULT:      -7.2     27.446     31.342
REMARK  Name = 
REMARK  7 active torsions:
REMARK  status: ('A' for Active; 'I' for Inactive)
REMARK    1  A    between atoms: C_2  and  C_3
REMARK    2  A    between atoms: C_3  and  O_4
REMARK    3  A    between atoms: O_4  and  C_5
REMARK    4  A    between atoms: C_8  and  N_9
REMARK    5  A    between atoms: C_10  and  C_12
REMARK    6  A    between atoms: C_13  and  N_14
REMARK    7  A    between atoms: C_15  and  C_17
REMARK                            x       y       z     vdW  Elec       q    Type
REMARK                         _______ _______ _______ _____ _____    ______ ____
ROOT
ATOM      1  C   UNL     1      23.693  17.111  39.652  0.00  0.00    +0.000 A 
ATOM      2  C   UNL     1      24.075  17.580  38.425  0.00  0.00    +0.000 A 
ATOM      3  S   UNL     1      23.679  19.304  38.595  0.00  0.00    +0.000 S 
ATOM      4  C   UNL     1      23.074  19.301  40.147  0.00  0.00    +0.000 A 
ATOM      5  C   UNL     1      22.544  20.489  40.912  0.00  0.00    +0.000 C 
ATOM      6  C   UNL     1      23.173  18.007  40.533  0.00  0.00    +0.000 A 
ATOM      7  C   UNL     1      22.686  17.654  41.949  0.00  0.00    +0.000 C 
ENDROOT
BRANCH   1   9
ATOM      8  N   UNL     1      25.196  15.467  40.761  0.00  0.00    +0.000 NA
ATOM      9  C   UNL     1      23.986  15.711  40.080  0.00  0.00    +0.000 C 
ATOM     10  O   UNL     1      23.246  14.742  39.886  0.00  0.00    +0.000 OA
BRANCH   8  14
ATOM     11  C   UNL     1      26.235  11.544  41.987  0.00  0.00    +0.000 A 
ATOM     12  C   UNL     1      26.605  12.016  40.757  0.00  0.00    +0.000 A 
ATOM     13  C   UNL     1      26.252  13.299  40.384  0.00  0.00    +0.000 A 
ATOM     14  C   UNL     1      25.537  14.134  41.205  0.00  0.00    +0.000 A 
ATOM     15  C   UNL     1      25.169  13.650  42.442  0.00  0.00    +0.000 A 
ATOM     16  C   UNL     1      25.516  12.371  42.824  0.00  0.00    +0.000 A 
BRANCH  11  17
ATOM     17  O   UNL     1      26.597  10.254  42.346  0.00  0.00    +0.000 OA
BRANCH  17  18
ATOM     18  C   UNL     1      26.969   9.280  41.382  0.00  0.00    +0.000 C 
BRANCH  18  20
ATOM     19  C   UNL     1      27.678   7.347  42.770  0.00  0.00    +0.000 C 
ATOM     20  C   UNL     1      26.573   7.911  41.910  0.00  0.00    +0.000 C 
ENDBRANCH  18  20
ENDBRANCH  17  18
ENDBRANCH  11  17
ENDBRANCH   8  14
ENDBRANCH   1   9
BRANCH   2  21
ATOM     21  N   UNL     1      24.492  17.079  37.205  0.00  0.00    +0.000 NA
ATOM     22  C   UNL     1      25.532  16.848  36.410  0.00  0.00    +0.000 C 
ATOM     23  O   UNL     1      26.682  17.132  36.802  0.00  0.00    +0.000 OA
BRANCH  22  24
ATOM     24  C   UNL     1      25.445  16.257  35.040  0.00  0.00    +0.000 A 
ATOM     25  C   UNL     1      24.976  16.982  33.976  0.00  0.00    +0.000 A 
ATOM     26  C   UNL     1      24.902  16.407  32.702  0.00  0.00    +0.000 A 
ATOM     27  C   UNL     1      25.295  15.106  32.477  0.00  0.00    +0.000 A 
ATOM     28  C   UNL     1      25.766  14.380  33.549  0.00  0.00    +0.000 A 
ATOM     29  C   UNL     1      25.838  14.958  34.823  0.00  0.00    +0.000 A 
ENDBRANCH  22  24
ENDBRANCH   2  21
TORSDOF 7
ENDMDL
MODEL 4
REMARK VINA RESULT:      -7.2      2.109      7.060
REMARK  Name = 
REMARK  7 active torsions:
REMARK  status: ('A' for Active; 'I' for Inactive)
REMARK    1  A    between atoms: C_2  and  C_3
REMARK    2  A    between atoms: C_3  and  O_4
REMARK    3  A    between atoms: O_4  and  C_5
REMARK    4  A    between atoms: C_8  and  N_9
REMARK    5  A    between atoms: C_10  and  C_12
REMARK    6  A    between atoms: C_13  and  N_14
REMARK    7  A    between atoms: C_15  and  C_17
REMARK                            x       y       z     vdW  Elec       q    Type
REMARK                         _______ _______ _______ _____ _____    ______ ____
ROOT
ATOM      1  C   UNL     1      36.715  -1.885  15.555  0.00  0.00    +0.000 A 
ATOM      2  C   UNL     1      37.553  -2.635  14.775  0.00  0.00    +0.000 A 
ATOM      3  S   UNL     1      36.490  -4.000  14.371  0.00  0.00    +0.000 S 
ATOM      4  C   UNL     1      35.117  -3.540  15.196  0.00  0.00    +0.000 A 
ATOM      5  C   UNL     1      33.811  -4.292  15.264  0.00  0.00    +0.000 C 
ATOM      6  C   UNL     1      35.460  -2.363  15.769  0.00  0.00    +0.000 A 
ATOM      7  C   UNL     1      34.394  -1.657  16.625  0.00  0.00    +0.000 C 
ENDROOT
BRANCH   1   9
ATOM      8  N   UNL     1      37.071   0.530  15.072  0.00  0.00    +0.000 NA
ATOM      9  C   UNL     1      37.094  -0.517  16.017  0.00  0.00    +0.000 C 
ATOM     10  O   UNL     1      37.424  -0.224  17.169  0.00  0.00    +0.000 OA
BRANCH   8  14
ATOM     11  C   UNL     1      38.033   4.487  16.251  0.00  0.00    +0.000 A 
ATOM     12  C   UNL     1      36.900   3.872  16.713  0.00  0.00    +0.000 A 
ATOM     13  C   UNL     1      36.613   2.582  16.311  0.00  0.00    +0.000 A 
ATOM     14  C   UNL     1      37.423   1.878  15.457  0.00  0.00    +0.000 A 
ATOM     15  C   UNL     1      38.561   2.505  14.997  0.00  0.00    +0.000 A 
ATOM     16  C   UNL     1      38.859   3.793  15.391  0.00  0.00    +0.000 A 
BRANCH  11  17
ATOM     17  O   UNL     1      38.307   5.783  16.663  0.00  0.00    +0.000 OA
BRANCH  17  18
ATOM     18  C   UNL     1      39.489   6.111  17.379  0.00  0.00    +0.000 C 
BRANCH  18  20
ATOM     19  C   UNL     1      39.540   6.738  19.781  0.00  0.00    +0.000 C 
ATOM     20  C   UNL     1      39.338   5.606  18.804  0.00  0.00    +0.000 C 
ENDBRANCH  18  20
ENDBRANCH  17  18
ENDBRANCH  11  17
ENDBRANCH   8  14
ENDBRANCH   1   9
BRANCH   2  21
ATOM     21  N   UNL     1      38.886  -2.658  14.406  0.00  0.00    +0.000 NA
ATOM     22  C   UNL     1      40.128  -2.932  14.792  0.00  0.00    +0.000 C 
ATOM     23  O   UNL     1      40.331  -3.388  15.936  0.00  0.00    +0.000 OA
BRANCH  22  24
ATOM     24  C   UNL     1      41.347  -2.738  13.949  0.00  0.00    +0.000 A 
ATOM     25  C   UNL     1      41.496  -3.381  12.748  0.00  0.00    +0.000 A 
ATOM     26  C   UNL     1      42.646  -3.184  11.975  0.00  0.00    +0.000 A 
ATOM     27  C   UNL     1      43.657  -2.346  12.393  0.00  0.00    +0.000 A 
ATOM     28  C   UNL     1      43.504  -1.702  13.601  0.00  0.00    +0.000 A 
ATOM     29  C   UNL     1      42.351  -1.902  14.372  0.00  0.00    +0.000 A 
ENDBRANCH  22  24
ENDBRANCH   2  21
TORSDOF 7
ENDMDL
MODEL 5
REMARK VINA RESULT:      -7.0      3.127      7.935
REMARK  Name = 
REMARK  7 active torsions:
REMARK  status: ('A' for Active; 'I' for Inactive)
REMARK    1  A    between atoms: C_2  and  C_3
REMARK    2  A    between atoms: C_3  and  O_4
REMARK    3  A    between atoms: O_4  and  C_5
REMARK    4  A    between atoms: C_8  and  N_9
REMARK    5  A    between atoms: C_10  and  C_12
REMARK    6  A    between atoms: C_13  and  N_14
REMARK    7  A    between atoms: C_15  and  C_17
REMARK                            x       y       z     vdW  Elec       q    Type
REMARK                         _______ _______ _______ _____ _____    ______ ____
ROOT
ATOM      1  C   UNL     1      37.448  -1.032  17.083  0.00  0.00    +0.000 A 
ATOM      2  C   UNL     1      38.306  -1.926  16.504  0.00  0.00    +0.000 A 
ATOM      3  S   UNL     1      38.615  -3.017  17.872  0.00  0.00    +0.000 S 
ATOM      4  C   UNL     1      37.675  -2.282  19.035  0.00  0.00    +0.000 A 
ATOM      5  C   UNL     1      37.498  -2.727  20.466  0.00  0.00    +0.000 C 
ATOM      6  C   UNL     1      37.131  -1.223  18.392  0.00  0.00    +0.000 A 
ATOM      7  C   UNL     1      36.191  -0.312  19.202  0.00  0.00    +0.000 C 
ENDROOT
BRANCH   1   9
ATOM      8  N   UNL     1      37.308   1.309  16.249  0.00  0.00    +0.000 NA
ATOM      9  C   UNL     1      36.749   0.014  16.279  0.00  0.00    +0.000 C 
ATOM     10  O   UNL     1      35.715  -0.165  15.630  0.00  0.00    +0.000 OA
BRANCH   8  14
ATOM     11  C   UNL     1      35.540   4.410  13.962  0.00  0.00    +0.000 A 
ATOM     12  C   UNL     1      36.802   3.961  13.680  0.00  0.00    +0.000 A 
ATOM     13  C   UNL     1      37.352   2.949  14.442  0.00  0.00    +0.000 A 
ATOM     14  C   UNL     1      36.681   2.364  15.486  0.00  0.00    +0.000 A 
ATOM     15  C   UNL     1      35.411   2.822  15.763  0.00  0.00    +0.000 A 
ATOM     16  C   UNL     1      34.851   3.832  15.008  0.00  0.00    +0.000 A 
BRANCH  11  17
ATOM     17  O   UNL     1      35.001   5.426  13.187  0.00  0.00    +0.000 OA
BRANCH  17  18
ATOM     18  C   UNL     1      35.011   6.782  13.611  0.00  0.00    +0.000 C 
BRANCH  18  20
ATOM     19  C   UNL     1      33.681   8.385  14.962  0.00  0.00    +0.000 C 
ATOM     20  C   UNL     1      33.625   7.128  14.130  0.00  0.00    +0.000 C 
ENDBRANCH  18  20
ENDBRANCH  17  18
ENDBRANCH  11  17
ENDBRANCH   8  14
ENDBRANCH   1   9
BRANCH   2  21
ATOM     21  N   UNL     1      39.011  -2.074  15.323  0.00  0.00    +0.000 NA
ATOM     22  C   UNL     1      39.796  -1.479  14.430  0.00  0.00    +0.000 C 
ATOM     23  O   UNL     1      40.145  -0.294  14.610  0.00  0.00    +0.000 OA
BRANCH  22  24
ATOM     24  C   UNL     1      40.316  -2.124  13.186  0.00  0.00    +0.000 A 
ATOM     25  C   UNL     1      39.614  -2.080  12.010  0.00  0.00    +0.000 A 
ATOM     26  C   UNL     1      40.122  -2.692  10.858  0.00  0.00    +0.000 A 
ATOM     27  C   UNL     1      41.331  -3.352  10.868  0.00  0.00    +0.000 A 
ATOM     28  C   UNL     1      42.033  -3.394  12.052  0.00  0.00    +0.000 A 
ATOM     29  C   UNL     1      41.523  -2.781  13.204  0.00  0.00    +0.000 A 
ENDBRANCH  22  24
ENDBRANCH   2  21
TORSDOF 7
ENDMDL
MODEL 6
REMARK VINA RESULT:      -7.0      3.937      8.425
REMARK  Name = 
REMARK  7 active torsions:
REMARK  status: ('A' for Active; 'I' for Inactive)
REMARK    1  A    between atoms: C_2  and  C_3
REMARK    2  A    between atoms: C_3  and  O_4
REMARK    3  A    between atoms: O_4  and  C_5
REMARK    4  A    between atoms: C_8  and  N_9
REMARK    5  A    between atoms: C_10  and  C_12
REMARK    6  A    between atoms: C_13  and  N_14
REMARK    7  A    between atoms: C_15  and  C_17
REMARK                            x       y       z     vdW  Elec       q    Type
REMARK                         _______ _______ _______ _____ _____    ______ ____
ROOT
ATOM      1  C   UNL     1      37.403   2.608  14.423  0.00  0.00    +0.000 A 
ATOM      2  C   UNL     1      37.633   1.267  14.560  0.00  0.00    +0.000 A 
ATOM      3  S   UNL     1      37.721   0.773  12.856  0.00  0.00    +0.000 S 
ATOM      4  C   UNL     1      37.462   2.248  12.124  0.00  0.00    +0.000 A 
ATOM      5  C   UNL     1      37.412   2.522  10.641  0.00  0.00    +0.000 C 
ATOM      6  C   UNL     1      37.313   3.105  13.160  0.00  0.00    +0.000 A 
ATOM      7  C   UNL     1      37.051   4.583  12.822  0.00  0.00    +0.000 C 
ENDROOT
BRANCH   1   9
ATOM      8  N   UNL     1      38.516   4.404  15.740  0.00  0.00    +0.000 NA
ATOM      9  C   UNL     1      37.418   3.528  15.599  0.00  0.00    +0.000 C 
ATOM     10  O   UNL     1      36.539   3.588  16.463  0.00  0.00    +0.000 OA
BRANCH   8  14
ATOM     11  C   UNL     1      38.770   7.034  19.054  0.00  0.00    +0.000 A 
ATOM     12  C   UNL     1      39.281   5.766  19.124  0.00  0.00    +0.000 A 
ATOM     13  C   UNL     1      39.183   4.931  18.027  0.00  0.00    +0.000 A 
ATOM     14  C   UNL     1      38.588   5.321  16.854  0.00  0.00    +0.000 A 
ATOM     15  C   UNL     1      38.077   6.599  16.794  0.00  0.00    +0.000 A 
ATOM     16  C   UNL     1      38.169   7.442  17.882  0.00  0.00    +0.000 A 
BRANCH  11  17
ATOM     17  O   UNL     1      38.876   7.861  20.164  0.00  0.00    +0.000 OA
BRANCH  17  18
ATOM     18  C   UNL     1      38.027   8.984  20.349  0.00  0.00    +0.000 C 
BRANCH  18  20
ATOM     19  C   UNL     1      38.300  11.436  20.631  0.00  0.00    +0.000 C 
ATOM     20  C   UNL     1      38.831  10.081  21.029  0.00  0.00    +0.000 C 
ENDBRANCH  18  20
ENDBRANCH  17  18
ENDBRANCH  11  17
ENDBRANCH   8  14
ENDBRANCH   1   9
BRANCH   2  21
ATOM     21  N   UNL     1      37.655   0.314  15.563  0.00  0.00    +0.000 NA
ATOM     22  C   UNL     1      36.962  -0.282  16.528  0.00  0.00    +0.000 C 
ATOM     23  O   UNL     1      35.768   0.033  16.713  0.00  0.00    +0.000 OA
BRANCH  22  24
ATOM     24  C   UNL     1      37.501  -1.332  17.444  0.00  0.00    +0.000 A 
ATOM     25  C   UNL     1      37.197  -1.341  18.780  0.00  0.00    +0.000 A 
ATOM     26  C   UNL     1      37.715  -2.335  19.620  0.00  0.00    +0.000 A 
ATOM     27  C   UNL     1      38.539  -3.326  19.134  0.00  0.00    +0.000 A 
ATOM     28  C   UNL     1      38.843  -3.313  17.791  0.00  0.00    +0.000 A 
ATOM     29  C   UNL     1      38.323  -2.317  16.954  0.00  0.00    +0.000 A 
ENDBRANCH  22  24
ENDBRANCH   2  21
TORSDOF 7
ENDMDL
MODEL 7
REMARK VINA RESULT:      -6.9      4.326      8.276
REMARK  Name = 
REMARK  7 active torsions:
REMARK  status: ('A' for Active; 'I' for Inactive)
REMARK    1  A    between atoms: C_2  and  C_3
REMARK    2  A    between atoms: C_3  and  O_4
REMARK    3  A    between atoms: O_4  and  C_5
REMARK    4  A    between atoms: C_8  and  N_9
REMARK    5  A    between atoms: C_10  and  C_12
REMARK    6  A    between atoms: C_13  and  N_14
REMARK    7  A    between atoms: C_15  and  C_17
REMARK                            x       y       z     vdW  Elec       q    Type
REMARK                         _______ _______ _______ _____ _____    ______ ____
ROOT
ATOM      1  C   UNL     1      37.678   3.678  13.270  0.00  0.00    +0.000 A 
ATOM      2  C   UNL     1      37.294   2.366  13.288  0.00  0.00    +0.000 A 
ATOM      3  S   UNL     1      37.443   1.957  11.565  0.00  0.00    +0.000 S 
ATOM      4  C   UNL     1      37.954   3.428  10.971  0.00  0.00    +0.000 A 
ATOM      5  C   UNL     1      38.267   3.761   9.533  0.00  0.00    +0.000 C 
ATOM      6  C   UNL     1      38.014   4.219  12.068  0.00  0.00    +0.000 A 
ATOM      7  C   UNL     1      38.459   5.677  11.863  0.00  0.00    +0.000 C 
ENDROOT
BRANCH   1   9
ATOM      8  N   UNL     1      39.114   4.285  15.210  0.00  0.00    +0.000 NA
ATOM      9  C   UNL     1      37.888   4.449  14.532  0.00  0.00    +0.000 C 
ATOM     10  O   UNL     1      37.071   5.226  15.031  0.00  0.00    +0.000 OA
BRANCH   8  14
ATOM     11  C   UNL     1      39.841   6.344  18.844  0.00  0.00    +0.000 A 
ATOM     12  C   UNL     1      38.967   5.292  18.796  0.00  0.00    +0.000 A 
ATOM     13  C   UNL     1      38.750   4.640  17.597  0.00  0.00    +0.000 A 
ATOM     14  C   UNL     1      39.380   5.005  16.435  0.00  0.00    +0.000 A 
ATOM     15  C   UNL     1      40.259   6.066  16.493  0.00  0.00    +0.000 A 
ATOM     16  C   UNL     1      40.483   6.724  17.684  0.00  0.00    +0.000 A 
BRANCH  11  17
ATOM     17  O   UNL     1      40.047   6.988  20.055  0.00  0.00    +0.000 OA
BRANCH  17  18
ATOM     18  C   UNL     1      39.894   8.393  20.196  0.00  0.00    +0.000 C 
BRANCH  18  20
ATOM     19  C   UNL     1      37.453   8.756  19.921  0.00  0.00    +0.000 C 
ATOM     20  C   UNL     1      38.582   8.659  20.917  0.00  0.00    +0.000 C 
ENDBRANCH  18  20
ENDBRANCH  17  18
ENDBRANCH  11  17
ENDBRANCH   8  14
ENDBRANCH   1   9
BRANCH   2  21
ATOM     21  N   UNL     1      36.748   1.455  14.174  0.00  0.00    +0.000 NA
ATOM     22  C   UNL     1      36.602   1.117  15.452  0.00  0.00    +0.000 C 
ATOM     23  O   UNL     1      37.092   1.843  16.340  0.00  0.00    +0.000 OA
BRANCH  22  24
ATOM     24  C   UNL     1      35.877  -0.096  15.937  0.00  0.00    +0.000 A 
ATOM     25  C   UNL     1      34.996  -0.032  16.984  0.00  0.00    +0.000 A 
ATOM     26  C   UNL     1      34.328  -1.182  17.422  0.00  0.00    +0.000 A 
ATOM     27  C   UNL     1      34.534  -2.404  16.820  0.00  0.00    +0.000 A 
ATOM     28  C   UNL     1      35.421  -2.465  15.768  0.00  0.00    +0.000 A 
ATOM     29  C   UNL     1      36.087  -1.312  15.333  0.00  0.00    +0.000 A 
ENDBRANCH  22  24
ENDBRANCH   2  21
TORSDOF 7
ENDMDL
MODEL 8
REMARK VINA RESULT:      -6.7     22.975     27.863
REMARK  Name = 
REMARK  7 active torsions:
REMARK  status: ('A' for Active; 'I' for Inactive)
REMARK    1  A    between atoms: C_2  and  C_3
REMARK    2  A    between atoms: C_3  and  O_4
REMARK    3  A    between atoms: O_4  and  C_5
REMARK    4  A    between atoms: C_8  and  N_9
REMARK    5  A    between atoms: C_10  and  C_12
REMARK    6  A    between atoms: C_13  and  N_14
REMARK    7  A    between atoms: C_15  and  C_17
REMARK                            x       y       z     vdW  Elec       q    Type
REMARK                         _______ _______ _______ _____ _____    ______ ____
ROOT
ATOM      1  C   UNL     1      12.081   0.592  28.214  0.00  0.00    +0.000 A 
ATOM      2  C   UNL     1      11.925   0.146  29.498  0.00  0.00    +0.000 A 
ATOM      3  S   UNL     1      10.182  -0.196  29.517  0.00  0.00    +0.000 S 
ATOM      4  C   UNL     1       9.794   0.243  27.957  0.00  0.00    +0.000 A 
ATOM      5  C   UNL     1       8.427   0.193  27.319  0.00  0.00    +0.000 C 
ATOM      6  C   UNL     1      10.974   0.642  27.427  0.00  0.00    +0.000 A 
ATOM      7  C   UNL     1      10.965   1.124  25.966  0.00  0.00    +0.000 C 
ENDROOT
BRANCH   1   9
ATOM      8  N   UNL     1      14.334  -0.226  27.545  0.00  0.00    +0.000 NA
ATOM      9  C   UNL     1      13.433   0.855  27.637  0.00  0.00    +0.000 C 
ATOM     10  O   UNL     1      13.828   1.950  27.228  0.00  0.00    +0.000 OA
BRANCH   8  14
ATOM     11  C   UNL     1      18.241   0.346  26.003  0.00  0.00    +0.000 A 
ATOM     12  C   UNL     1      17.973   0.553  27.329  0.00  0.00    +0.000 A 
ATOM     13  C   UNL     1      16.690   0.359  27.803  0.00  0.00    +0.000 A 
ATOM     14  C   UNL     1      15.656  -0.038  26.992  0.00  0.00    +0.000 A 
ATOM     15  C   UNL     1      15.936  -0.245  25.658  0.00  0.00    +0.000 A 
ATOM     16  C   UNL     1      17.214  -0.054  25.174  0.00  0.00    +0.000 A 
BRANCH  11  17
ATOM     17  O   UNL     1      19.535   0.546  25.542  0.00  0.00    +0.000 OA
BRANCH  17  18
ATOM     18  C   UNL     1      20.064  -0.182  24.444  0.00  0.00    +0.000 C 
BRANCH  18  20
ATOM     19  C   UNL     1      20.213   0.880  22.205  0.00  0.00    +0.000 C 
ATOM     20  C   UNL     1      20.850   0.780  23.569  0.00  0.00    +0.000 C 
ENDBRANCH  18  20
ENDBRANCH  17  18
ENDBRANCH  11  17
ENDBRANCH   8  14
ENDBRANCH   1   9
BRANCH   2  21
ATOM     21  N   UNL     1      12.664   0.057  30.664  0.00  0.00    +0.000 NA
ATOM     22  C   UNL     1      13.036   0.678  31.779  0.00  0.00    +0.000 C 
ATOM     23  O   UNL     1      12.597   1.821  32.024  0.00  0.00    +0.000 OA
BRANCH  22  24
ATOM     24  C   UNL     1      13.965   0.111  32.804  0.00  0.00    +0.000 A 
ATOM     25  C   UNL     1      14.413   0.863  33.857  0.00  0.00    +0.000 A 
ATOM     26  C   UNL     1      15.283   0.311  34.805  0.00  0.00    +0.000 A 
ATOM     27  C   UNL     1      15.713  -0.995  34.710  0.00  0.00    +0.000 A 
ATOM     28  C   UNL     1      15.260  -1.748  33.649  0.00  0.00    +0.000 A 
ATOM     29  C   UNL     1      14.390  -1.191  32.703  0.00  0.00    +0.000 A 
ENDBRANCH  22  24
ENDBRANCH   2  21
TORSDOF 7
ENDMDL
MODEL 9
REMARK VINA RESULT:      -6.5      3.365      8.881
REMARK  Name = 
REMARK  7 active torsions:
REMARK  status: ('A' for Active; 'I' for Inactive)
REMARK    1  A    between atoms: C_2  and  C_3
REMARK    2  A    between atoms: C_3  and  O_4
REMARK    3  A    between atoms: O_4  and  C_5
REMARK    4  A    between atoms: C_8  and  N_9
REMARK    5  A    between atoms: C_10  and  C_12
REMARK    6  A    between atoms: C_13  and  N_14
REMARK    7  A    between atoms: C_15  and  C_17
REMARK                            x       y       z     vdW  Elec       q    Type
REMARK                         _______ _______ _______ _____ _____    ______ ____
ROOT
ATOM      1  C   UNL     1      39.770   1.024  14.061  0.00  0.00    +0.000 A 
ATOM      2  C   UNL     1      39.469  -0.258  14.432  0.00  0.00    +0.000 A 
ATOM      3  S   UNL     1      41.023  -1.062  14.120  0.00  0.00    +0.000 S 
ATOM      4  C   UNL     1      41.902   0.236  13.557  0.00  0.00    +0.000 A 
ATOM      5  C   UNL     1      43.341   0.223  13.103  0.00  0.00    +0.000 C 
ATOM      6  C   UNL     1      41.028   1.268  13.607  0.00  0.00    +0.000 A 
ATOM      7  C   UNL     1      41.534   2.645  13.141  0.00  0.00    +0.000 C 
ENDROOT
BRANCH   1   9
ATOM      8  N   UNL     1      37.766   2.334  13.379  0.00  0.00    +0.000 NA
ATOM      9  C   UNL     1      38.819   2.150  14.300  0.00  0.00    +0.000 C 
ATOM     10  O   UNL     1      38.877   2.937  15.248  0.00  0.00    +0.000 OA
BRANCH   8  14
ATOM     11  C   UNL     1      34.921   5.423  13.958  0.00  0.00    +0.000 A 
ATOM     12  C   UNL     1      34.829   4.245  14.649  0.00  0.00    +0.000 A 
ATOM     13  C   UNL     1      35.771   3.256  14.440  0.00  0.00    +0.000 A 
ATOM     14  C   UNL     1      36.810   3.403  13.556  0.00  0.00    +0.000 A 
ATOM     15  C   UNL     1      36.895   4.592  12.864  0.00  0.00    +0.000 A 
ATOM     16  C   UNL     1      35.960   5.587  13.066  0.00  0.00    +0.000 A 
BRANCH  11  17
ATOM     17  O   UNL     1      33.968   6.406  14.179  0.00  0.00    +0.000 OA
BRANCH  17  18
ATOM     18  C   UNL     1      33.862   7.553  13.349  0.00  0.00    +0.000 C 
BRANCH  18  20
ATOM     19  C   UNL     1      33.494   8.620  15.561  0.00  0.00    +0.000 C 
ATOM     20  C   UNL     1      34.128   8.783  14.201  0.00  0.00    +0.000 C 
ENDBRANCH  18  20
ENDBRANCH  17  18
ENDBRANCH  11  17
ENDBRANCH   8  14
ENDBRANCH   1   9
BRANCH   2  21
ATOM     21  N   UNL     1      38.361  -1.002  14.793  0.00  0.00    +0.000 NA
ATOM     22  C   UNL     1      37.627  -1.462  15.802  0.00  0.00    +0.000 C 
ATOM     23  O   UNL     1      37.934  -1.162  16.974  0.00  0.00    +0.000 OA
BRANCH  22  24
ATOM     24  C   UNL     1      36.425  -2.337  15.654  0.00  0.00    +0.000 A 
ATOM     25  C   UNL     1      36.385  -3.348  14.730  0.00  0.00    +0.000 A 
ATOM     26  C   UNL     1      35.247  -4.155  14.609  0.00  0.00    +0.000 A 
ATOM     27  C   UNL     1      34.141  -3.961  15.407  0.00  0.00    +0.000 A 
ATOM     28  C   UNL     1      34.185  -2.944  16.335  0.00  0.00    +0.000 A 
ATOM     29  C   UNL     1      35.325  -2.138  16.453  0.00  0.00    +0.000 A 
ENDBRANCH  22  24
ENDBRANCH   2  21
TORSDOF 7
ENDMDL
MODEL 10
REMARK VINA RESULT:      -6.4      3.093      4.089
REMARK  Name = 
REMARK  7 active torsions:
REMARK  status: ('A' for Active; 'I' for Inactive)
REMARK    1  A    between atoms: C_2  and  C_3
REMARK    2  A    between atoms: C_3  and  O_4
REMARK    3  A    between atoms: O_4  and  C_5
REMARK    4  A    between atoms: C_8  and  N_9
REMARK    5  A    between atoms: C_10  and  C_12
REMARK    6  A    between atoms: C_13  and  N_14
REMARK    7  A    between atoms: C_15  and  C_17
REMARK                            x       y       z     vdW  Elec       q    Type
REMARK                         _______ _______ _______ _____ _____    ______ ____
ROOT
ATOM      1  C   UNL     1      37.922  -1.976  17.189  0.00  0.00    +0.000 A 
ATOM      2  C   UNL     1      37.300  -0.767  17.347  0.00  0.00    +0.000 A 
ATOM      3  S   UNL     1      36.952  -0.803  19.089  0.00  0.00    +0.000 S 
ATOM      4  C   UNL     1      37.589  -2.294  19.472  0.00  0.00    +0.000 A 
ATOM      5  C   UNL     1      37.611  -2.943  20.834  0.00  0.00    +0.000 C 
ATOM      6  C   UNL     1      38.063  -2.759  18.292  0.00  0.00    +0.000 A 
ATOM      7  C   UNL     1      38.727  -4.147  18.296  0.00  0.00    +0.000 C 
ENDROOT
BRANCH   1   9
ATOM      8  N   UNL     1      39.642  -1.560  15.439  0.00  0.00    +0.000 NA
ATOM      9  C   UNL     1      38.574  -2.357  15.902  0.00  0.00    +0.000 C 
ATOM     10  O   UNL     1      38.253  -3.324  15.204  0.00  0.00    +0.000 OA
BRANCH   8  14
ATOM     11  C   UNL     1      41.686  -2.531  11.855  0.00  0.00    +0.000 A 
ATOM     12  C   UNL     1      42.208  -2.868  13.074  0.00  0.00    +0.000 A 
ATOM     13  C   UNL     1      41.519  -2.539  14.226  0.00  0.00    +0.000 A 
ATOM     14  C   UNL     1      40.317  -1.878  14.202  0.00  0.00    +0.000 A 
ATOM     15  C   UNL     1      39.799  -1.543  12.969  0.00  0.00    +0.000 A 
ATOM     16  C   UNL     1      40.478  -1.868  11.813  0.00  0.00    +0.000 A 
BRANCH  11  17
ATOM     17  O   UNL     1      42.389  -2.869  10.708  0.00  0.00    +0.000 OA
BRANCH  17  18
ATOM     18  C   UNL     1      41.736  -3.153   9.479  0.00  0.00    +0.000 C 
BRANCH  18  20
ATOM     19  C   UNL     1      42.115  -5.606   9.540  0.00  0.00    +0.000 C 
ATOM     20  C   UNL     1      42.448  -4.323   8.820  0.00  0.00    +0.000 C 
ENDBRANCH  18  20
ENDBRANCH  17  18
ENDBRANCH  11  17
ENDBRANCH   8  14
ENDBRANCH   1   9
BRANCH   2  21
ATOM     21  N   UNL     1      36.811   0.260  16.560  0.00  0.00    +0.000 NA
ATOM     22  C   UNL     1      36.425   0.621  15.340  0.00  0.00    +0.000 C 
ATOM     23  O   UNL     1      36.436  -0.219  14.417  0.00  0.00    +0.000 OA
BRANCH  22  24
ATOM     24  C   UNL     1      35.964   1.991  14.961  0.00  0.00    +0.000 A 
ATOM     25  C   UNL     1      36.679   2.771  14.091  0.00  0.00    +0.000 A 
ATOM     26  C   UNL     1      36.227   4.052  13.750  0.00  0.00    +0.000 A 
ATOM     27  C   UNL     1      35.061   4.565  14.275  0.00  0.00    +0.000 A 
ATOM     28  C   UNL     1      34.345   3.778  15.150  0.00  0.00    +0.000 A 
ATOM     29  C   UNL     1      34.800   2.497  15.488  0.00  0.00    +0.000 A 
ENDBRANCH  22  24
ENDBRANCH   2  21
TORSDOF 7
ENDMDL
