MODEL 1
REMARK VINA RESULT:      -7.0      0.000      0.000
REMARK  Name = 
REMARK  4 active torsions:
REMARK  status: ('A' for Active; 'I' for Inactive)
REMARK    1  A    between atoms: C_2  and  C_4
REMARK    2  A    between atoms: C_4  and  C_5
REMARK    3  A    between atoms: C_5  and  C_6
REMARK    4  A    between atoms: N_11  and  C_12
REMARK                            x       y       z     vdW  Elec       q    Type
REMARK                         _______ _______ _______ _____ _____    ______ ____
ROOT
ATOM      1  C   UNL     1      16.188  11.589  36.911  0.00  0.00    +0.000 C 
ATOM      2  C   UNL     1      17.129  12.756  37.070  0.00  0.00    +0.000 C 
ATOM      3  N   UNL     1      14.936  11.828  37.598  0.00  0.00    +0.000 NA
ATOM      4  C   UNL     1      13.949  12.038  36.587  0.00  0.00    +0.000 C 
ATOM      5  O   UNL     1      12.703  12.066  36.703  0.00  0.00    +0.000 OA
ATOM      6  N   UNL     1      14.705  12.212  35.380  0.00  0.00    +0.000 N 
ATOM      7  N   UNL     1      15.890  11.447  35.510  0.00  0.00    +0.000 NA
ENDROOT
BRANCH   6   8
ATOM      8  C   UNL     1      14.324  13.011  34.275  0.00  0.00    +0.000 A 
ATOM      9  C   UNL     1      14.646  12.621  32.991  0.00  0.00    +0.000 A 
ATOM     10  C   UNL     1      14.296  13.361  31.877  0.00  0.00    +0.000 A 
ATOM     11  C   UNL     1      13.591  14.545  32.106  0.00  0.00    +0.000 A 
ATOM     12  C   UNL     1      13.245  14.977  33.368  0.00  0.00    +0.000 A 
ATOM     13  C   UNL     1      13.620  14.200  34.433  0.00  0.00    +0.000 A 
ENDBRANCH   6   8
BRANCH   1  14
ATOM     14  C   UNL     1      16.867  10.344  37.494  0.00  0.00    +0.000 C 
BRANCH  14  15
ATOM     15  C   UNL     1      18.342  10.683  37.527  0.00  0.00    +0.000 C 
BRANCH  15  17
ATOM     16  C   UNL     1      18.550   9.138  35.695  0.00  0.00    +0.000 C 
ATOM     17  C   UNL     1      19.165   9.834  36.647  0.00  0.00    +0.000 C 
ATOM     18  C   UNL     1      20.660   9.757  36.814  0.00  0.00    +0.000 C 
ENDBRANCH  15  17
ENDBRANCH  14  15
ENDBRANCH   1  14
TORSDOF 4
ENDMDL
MODEL 2
REMARK VINA RESULT:      -6.8      1.299      1.846
REMARK  Name = 
REMARK  4 active torsions:
REMARK  status: ('A' for Active; 'I' for Inactive)
REMARK    1  A    between atoms: C_2  and  C_4
REMARK    2  A    between atoms: C_4  and  C_5
REMARK    3  A    between atoms: C_5  and  C_6
REMARK    4  A    between atoms: N_11  and  C_12
REMARK                            x       y       z     vdW  Elec       q    Type
REMARK                         _______ _______ _______ _____ _____    ______ ____
ROOT
ATOM      1  C   UNL     1      16.398  11.475  36.840  0.00  0.00    +0.000 C 
ATOM      2  C   UNL     1      17.319  12.662  36.978  0.00  0.00    +0.000 C 
ATOM      3  N   UNL     1      15.158  11.688  37.554  0.00  0.00    +0.000 NA
ATOM      4  C   UNL     1      14.144  11.878  36.566  0.00  0.00    +0.000 C 
ATOM      5  O   UNL     1      12.901  11.880  36.710  0.00  0.00    +0.000 OA
ATOM      6  N   UNL     1      14.869  12.068  35.342  0.00  0.00    +0.000 N 
ATOM      7  N   UNL     1      16.072  11.328  35.445  0.00  0.00    +0.000 NA
ENDROOT
BRANCH   6   8
ATOM      8  C   UNL     1      14.447  12.860  34.248  0.00  0.00    +0.000 A 
ATOM      9  C   UNL     1      14.733  12.469  32.955  0.00  0.00    +0.000 A 
ATOM     10  C   UNL     1      14.343  13.202  31.850  0.00  0.00    +0.000 A 
ATOM     11  C   UNL     1      13.633  14.379  32.098  0.00  0.00    +0.000 A 
ATOM     12  C   UNL     1      13.321  14.812  33.368  0.00  0.00    +0.000 A 
ATOM     13  C   UNL     1      13.736  14.043  34.423  0.00  0.00    +0.000 A 
ENDBRANCH   6   8
BRANCH   1  14
ATOM     14  C   UNL     1      17.117  10.245  37.406  0.00  0.00    +0.000 C 
BRANCH  14  15
ATOM     15  C   UNL     1      16.790  10.246  38.884  0.00  0.00    +0.000 C 
BRANCH  15  17
ATOM     16  C   UNL     1      18.611   8.694  39.133  0.00  0.00    +0.000 C 
ATOM     17  C   UNL     1      17.495   9.201  39.648  0.00  0.00    +0.000 C 
ATOM     18  C   UNL     1      16.972   8.720  40.976  0.00  0.00    +0.000 C 
ENDBRANCH  15  17
ENDBRANCH  14  15
ENDBRANCH   1  14
TORSDOF 4
ENDMDL
MODEL 3
REMARK VINA RESULT:      -6.2      2.541      3.581
REMARK  Name = 
REMARK  4 active torsions:
REMARK  status: ('A' for Active; 'I' for Inactive)
REMARK    1  A    between atoms: C_2  and  C_4
REMARK    2  A    between atoms: C_4  and  C_5
REMARK    3  A    between atoms: C_5  and  C_6
REMARK    4  A    between atoms: N_11  and  C_12
REMARK                            x       y       z     vdW  Elec       q    Type
REMARK                         _______ _______ _______ _____ _____    ______ ____
ROOT
ATOM      1  C   UNL     1      18.271  10.036  37.208  0.00  0.00    +0.000 C 
ATOM      2  C   UNL     1      19.495   9.702  36.392  0.00  0.00    +0.000 C 
ATOM      3  N   UNL     1      18.215  11.449  37.514  0.00  0.00    +0.000 NA
ATOM      4  C   UNL     1      17.151  11.995  36.731  0.00  0.00    +0.000 C 
ATOM      5  O   UNL     1      16.603  13.115  36.827  0.00  0.00    +0.000 OA
ATOM      6  N   UNL     1      16.832  10.959  35.790  0.00  0.00    +0.000 N 
ATOM      7  N   UNL     1      17.111   9.719  36.416  0.00  0.00    +0.000 NA
ENDROOT
BRANCH   6   8
ATOM      8  C   UNL     1      16.339  11.158  34.479  0.00  0.00    +0.000 A 
ATOM      9  C   UNL     1      16.907  10.491  33.413  0.00  0.00    +0.000 A 
ATOM     10  C   UNL     1      16.463  10.647  32.113  0.00  0.00    +0.000 A 
ATOM     11  C   UNL     1      15.394  11.524  31.916  0.00  0.00    +0.000 A 
ATOM     12  C   UNL     1      14.791  12.212  32.947  0.00  0.00    +0.000 A 
ATOM     13  C   UNL     1      15.276  12.017  34.214  0.00  0.00    +0.000 A 
ENDBRANCH   6   8
BRANCH   1  14
ATOM     14  C   UNL     1      18.331   9.228  38.510  0.00  0.00    +0.000 C 
BRANCH  14  15
ATOM     15  C   UNL     1      17.202   9.771  39.359  0.00  0.00    +0.000 C 
BRANCH  15  17
ATOM     16  C   UNL     1      15.983   9.385  41.398  0.00  0.00    +0.000 C 
ATOM     17  C   UNL     1      16.891   8.938  40.535  0.00  0.00    +0.000 C 
ATOM     18  C   UNL     1      17.576   7.614  40.755  0.00  0.00    +0.000 C 
ENDBRANCH  15  17
ENDBRANCH  14  15
ENDBRANCH   1  14
TORSDOF 4
ENDMDL
MODEL 4
REMARK VINA RESULT:      -6.2      2.453      6.351
REMARK  Name = 
REMARK  4 active torsions:
REMARK  status: ('A' for Active; 'I' for Inactive)
REMARK    1  A    between atoms: C_2  and  C_4
REMARK    2  A    between atoms: C_4  and  C_5
REMARK    3  A    between atoms: C_5  and  C_6
REMARK    4  A    between atoms: N_11  and  C_12
REMARK                            x       y       z     vdW  Elec       q    Type
REMARK                         _______ _______ _______ _____ _____    ______ ____
ROOT
ATOM      1  C   UNL     1      15.438  11.968  36.098  0.00  0.00    +0.000 C 
ATOM      2  C   UNL     1      14.177  11.963  36.924  0.00  0.00    +0.000 C 
ATOM      3  N   UNL     1      16.361  12.983  36.557  0.00  0.00    +0.000 NA
ATOM      4  C   UNL     1      17.446  12.296  37.185  0.00  0.00    +0.000 C 
ATOM      5  O   UNL     1      18.561  12.745  37.532  0.00  0.00    +0.000 OA
ATOM      6  N   UNL     1      16.975  10.949  37.335  0.00  0.00    +0.000 N 
ATOM      7  N   UNL     1      16.083  10.692  36.265  0.00  0.00    +0.000 NA
ENDROOT
BRANCH   6   8
ATOM      8  C   UNL     1      17.341  10.057  38.371  0.00  0.00    +0.000 A 
ATOM      9  C   UNL     1      16.594   9.992  39.529  0.00  0.00    +0.000 A 
ATOM     10  C   UNL     1      16.904   9.138  40.571  0.00  0.00    +0.000 A 
ATOM     11  C   UNL     1      18.028   8.327  40.402  0.00  0.00    +0.000 A 
ATOM     12  C   UNL     1      18.807   8.353  39.266  0.00  0.00    +0.000 A 
ATOM     13  C   UNL     1      18.449   9.221  38.267  0.00  0.00    +0.000 A 
ENDBRANCH   6   8
BRANCH   1  14
ATOM     14  C   UNL     1      15.052  12.242  34.639  0.00  0.00    +0.000 C 
BRANCH  14  15
ATOM     15  C   UNL     1      15.848  11.242  33.829  0.00  0.00    +0.000 C 
BRANCH  15  17
ATOM     16  C   UNL     1      15.977  12.092  31.582  0.00  0.00    +0.000 C 
ATOM     17  C   UNL     1      15.460  11.187  32.408  0.00  0.00    +0.000 C 
ATOM     18  C   UNL     1      14.508  10.136  31.900  0.00  0.00    +0.000 C 
ENDBRANCH  15  17
ENDBRANCH  14  15
ENDBRANCH   1  14
TORSDOF 4
ENDMDL
MODEL 5
REMARK VINA RESULT:      -6.2      2.117      2.951
REMARK  Name = 
REMARK  4 active torsions:
REMARK  status: ('A' for Active; 'I' for Inactive)
REMARK    1  A    between atoms: C_2  and  C_4
REMARK    2  A    between atoms: C_4  and  C_5
REMARK    3  A    between atoms: C_5  and  C_6
REMARK    4  A    between atoms: N_11  and  C_12
REMARK                            x       y       z     vdW  Elec       q    Type
REMARK                         _______ _______ _______ _____ _____    ______ ____
ROOT
ATOM      1  C   UNL     1      16.469  11.235  36.507  0.00  0.00    +0.000 C 
ATOM      2  C   UNL     1      15.102  11.086  37.126  0.00  0.00    +0.000 C 
ATOM      3  N   UNL     1      16.804  10.087  35.692  0.00  0.00    +0.000 NA
ATOM      4  C   UNL     1      16.759  10.524  34.332  0.00  0.00    +0.000 C 
ATOM      5  O   UNL     1      17.181   9.941  33.309  0.00  0.00    +0.000 OA
ATOM      6  N   UNL     1      16.116  11.805  34.390  0.00  0.00    +0.000 N 
ATOM      7  N   UNL     1      16.440  12.385  35.641  0.00  0.00    +0.000 NA
ENDROOT
BRANCH   6   8
ATOM      8  C   UNL     1      15.304  12.366  33.376  0.00  0.00    +0.000 A 
ATOM      9  C   UNL     1      14.398  13.363  33.682  0.00  0.00    +0.000 A 
ATOM     10  C   UNL     1      13.583  13.948  32.731  0.00  0.00    +0.000 A 
ATOM     11  C   UNL     1      13.713  13.482  31.421  0.00  0.00    +0.000 A 
ATOM     12  C   UNL     1      14.602  12.491  31.064  0.00  0.00    +0.000 A 
ATOM     13  C   UNL     1      15.383  11.949  32.051  0.00  0.00    +0.000 A 
ENDBRANCH   6   8
BRANCH   1  14
ATOM     14  C   UNL     1      17.493  11.381  37.640  0.00  0.00    +0.000 C 
BRANCH  14  15
ATOM     15  C   UNL     1      17.816   9.964  38.060  0.00  0.00    +0.000 C 
BRANCH  15  17
ATOM     16  C   UNL     1      16.751   9.536  40.174  0.00  0.00    +0.000 C 
ATOM     17  C   UNL     1      17.883   9.780  39.522  0.00  0.00    +0.000 C 
ATOM     18  C   UNL     1      19.194   9.861  40.258  0.00  0.00    +0.000 C 
ENDBRANCH  15  17
ENDBRANCH  14  15
ENDBRANCH   1  14
TORSDOF 4
ENDMDL
MODEL 6
REMARK VINA RESULT:      -6.2      2.932      6.762
REMARK  Name = 
REMARK  4 active torsions:
REMARK  status: ('A' for Active; 'I' for Inactive)
REMARK    1  A    between atoms: C_2  and  C_4
REMARK    2  A    between atoms: C_4  and  C_5
REMARK    3  A    between atoms: C_5  and  C_6
REMARK    4  A    between atoms: N_11  and  C_12
REMARK                            x       y       z     vdW  Elec       q    Type
REMARK                         _______ _______ _______ _____ _____    ______ ____
ROOT
ATOM      1  C   UNL     1      15.907  11.433  36.357  0.00  0.00    +0.000 C 
ATOM      2  C   UNL     1      16.534  12.796  36.510  0.00  0.00    +0.000 C 
ATOM      3  N   UNL     1      16.450  10.732  35.214  0.00  0.00    +0.000 NA
ATOM      4  C   UNL     1      17.267   9.679  35.729  0.00  0.00    +0.000 C 
ATOM      5  O   UNL     1      17.755   8.699  35.124  0.00  0.00    +0.000 OA
ATOM      6  N   UNL     1      17.410   9.988  37.123  0.00  0.00    +0.000 N 
ATOM      7  N   UNL     1      16.233  10.662  37.530  0.00  0.00    +0.000 NA
ENDROOT
BRANCH   6   8
ATOM      8  C   UNL     1      18.533   9.676  37.927  0.00  0.00    +0.000 A 
ATOM      9  C   UNL     1      19.777  10.183  37.611  0.00  0.00    +0.000 A 
ATOM     10  C   UNL     1      20.906   9.912  38.362  0.00  0.00    +0.000 A 
ATOM     11  C   UNL     1      20.734   9.088  39.477  0.00  0.00    +0.000 A 
ATOM     12  C   UNL     1      19.514   8.558  39.835  0.00  0.00    +0.000 A 
ATOM     13  C   UNL     1      18.432   8.862  39.051  0.00  0.00    +0.000 A 
ENDBRANCH   6   8
BRANCH   1  14
ATOM     14  C   UNL     1      14.396  11.619  36.180  0.00  0.00    +0.000 C 
BRANCH  14  15
ATOM     15  C   UNL     1      13.872  11.912  37.570  0.00  0.00    +0.000 C 
BRANCH  15  17
ATOM     16  C   UNL     1      12.694  10.286  38.895  0.00  0.00    +0.000 C 
ATOM     17  C   UNL     1      12.641  11.175  37.907  0.00  0.00    +0.000 C 
ATOM     18  C   UNL     1      11.356  11.420  37.160  0.00  0.00    +0.000 C 
ENDBRANCH  15  17
ENDBRANCH  14  15
ENDBRANCH   1  14
TORSDOF 4
ENDMDL
MODEL 7
REMARK VINA RESULT:      -6.0      2.424      3.795
REMARK  Name = 
REMARK  4 active torsions:
REMARK  status: ('A' for Active; 'I' for Inactive)
REMARK    1  A    between atoms: C_2  and  C_4
REMARK    2  A    between atoms: C_4  and  C_5
REMARK    3  A    between atoms: C_5  and  C_6
REMARK    4  A    between atoms: N_11  and  C_12
REMARK                            x       y       z     vdW  Elec       q    Type
REMARK                         _______ _______ _______ _____ _____    ______ ____
ROOT
ATOM      1  C   UNL     1      18.524  10.089  38.063  0.00  0.00    +0.000 C 
ATOM      2  C   UNL     1      17.847   9.572  39.307  0.00  0.00    +0.000 C 
ATOM      3  N   UNL     1      18.309   9.201  36.941  0.00  0.00    +0.000 NA
ATOM      4  C   UNL     1      17.413   9.874  36.053  0.00  0.00    +0.000 C 
ATOM      5  O   UNL     1      17.120   9.587  34.872  0.00  0.00    +0.000 OA
ATOM      6  N   UNL     1      16.912  10.978  36.821  0.00  0.00    +0.000 N 
ATOM      7  N   UNL     1      17.930  11.357  37.730  0.00  0.00    +0.000 NA
ENDROOT
BRANCH   6   8
ATOM      8  C   UNL     1      15.630  11.561  36.686  0.00  0.00    +0.000 A 
ATOM      9  C   UNL     1      15.375  12.453  35.664  0.00  0.00    +0.000 A 
ATOM     10  C   UNL     1      14.141  13.050  35.484  0.00  0.00    +0.000 A 
ATOM     11  C   UNL     1      13.141  12.709  36.397  0.00  0.00    +0.000 A 
ATOM     12  C   UNL     1      13.343  11.823  37.434  0.00  0.00    +0.000 A 
ATOM     13  C   UNL     1      14.588  11.265  37.560  0.00  0.00    +0.000 A 
ENDBRANCH   6   8
BRANCH   1  14
ATOM     14  C   UNL     1      20.026  10.204  38.350  0.00  0.00    +0.000 C 
BRANCH  14  15
ATOM     15  C   UNL     1      20.700   9.946  37.020  0.00  0.00    +0.000 C 
BRANCH  15  17
ATOM     16  C   UNL     1      22.942   9.288  36.446  0.00  0.00    +0.000 C 
ATOM     17  C   UNL     1      22.155  10.183  37.036  0.00  0.00    +0.000 C 
ATOM     18  C   UNL     1      22.738  11.404  37.697  0.00  0.00    +0.000 C 
ENDBRANCH  15  17
ENDBRANCH  14  15
ENDBRANCH   1  14
TORSDOF 4
ENDMDL
MODEL 8
REMARK VINA RESULT:      -6.0      4.015      7.573
REMARK  Name = 
REMARK  4 active torsions:
REMARK  status: ('A' for Active; 'I' for Inactive)
REMARK    1  A    between atoms: C_2  and  C_4
REMARK    2  A    between atoms: C_4  and  C_5
REMARK    3  A    between atoms: C_5  and  C_6
REMARK    4  A    between atoms: N_11  and  C_12
REMARK                            x       y       z     vdW  Elec       q    Type
REMARK                         _______ _______ _______ _____ _____    ______ ____
ROOT
ATOM      1  C   UNL     1      18.495   9.870  37.797  0.00  0.00    +0.000 C 
ATOM      2  C   UNL     1      18.321   9.295  36.414  0.00  0.00    +0.000 C 
ATOM      3  N   UNL     1      19.021   8.881  38.713  0.00  0.00    +0.000 NA
ATOM      4  C   UNL     1      20.369   9.261  38.996  0.00  0.00    +0.000 C 
ATOM      5  O   UNL     1      21.132   8.832  39.889  0.00  0.00    +0.000 OA
ATOM      6  N   UNL     1      20.669  10.267  38.017  0.00  0.00    +0.000 N 
ATOM      7  N   UNL     1      19.459  10.937  37.715  0.00  0.00    +0.000 NA
ENDROOT
BRANCH   6   8
ATOM      8  C   UNL     1      21.945  10.522  37.462  0.00  0.00    +0.000 A 
ATOM      9  C   UNL     1      22.742  11.524  37.979  0.00  0.00    +0.000 A 
ATOM     10  C   UNL     1      23.997  11.814  37.477  0.00  0.00    +0.000 A 
ATOM     11  C   UNL     1      24.437  11.038  36.403  0.00  0.00    +0.000 A 
ATOM     12  C   UNL     1      23.681  10.026  35.851  0.00  0.00    +0.000 A 
ATOM     13  C   UNL     1      22.445   9.786  36.391  0.00  0.00    +0.000 A 
ENDBRANCH   6   8
BRANCH   1  14
ATOM     14  C   UNL     1      17.126  10.354  38.289  0.00  0.00    +0.000 C 
BRANCH  14  15
ATOM     15  C   UNL     1      16.313  10.571  37.031  0.00  0.00    +0.000 C 
BRANCH  15  17
ATOM     16  C   UNL     1      16.416  12.949  36.681  0.00  0.00    +0.000 C 
ATOM     17  C   UNL     1      15.661  11.892  36.967  0.00  0.00    +0.000 C 
ATOM     18  C   UNL     1      14.183  12.045  37.214  0.00  0.00    +0.000 C 
ENDBRANCH  15  17
ENDBRANCH  14  15
ENDBRANCH   1  14
TORSDOF 4
ENDMDL
MODEL 9
REMARK VINA RESULT:      -6.0     20.242     21.825
REMARK  Name = 
REMARK  4 active torsions:
REMARK  status: ('A' for Active; 'I' for Inactive)
REMARK    1  A    between atoms: C_2  and  C_4
REMARK    2  A    between atoms: C_4  and  C_5
REMARK    3  A    between atoms: C_5  and  C_6
REMARK    4  A    between atoms: N_11  and  C_12
REMARK                            x       y       z     vdW  Elec       q    Type
REMARK                         _______ _______ _______ _____ _____    ______ ____
ROOT
ATOM      1  C   UNL     1      28.556  24.339  22.418  0.00  0.00    +0.000 C 
ATOM      2  C   UNL     1      29.620  23.934  23.408  0.00  0.00    +0.000 C 
ATOM      3  N   UNL     1      27.726  23.213  22.050  0.00  0.00    +0.000 NA
ATOM      4  C   UNL     1      26.450  23.430  22.657  0.00  0.00    +0.000 C 
ATOM      5  O   UNL     1      25.370  22.837  22.441  0.00  0.00    +0.000 OA
ATOM      6  N   UNL     1      26.674  24.500  23.586  0.00  0.00    +0.000 N 
ATOM      7  N   UNL     1      27.706  25.311  23.056  0.00  0.00    +0.000 NA
ENDROOT
BRANCH   6   8
ATOM      8  C   UNL     1      25.985  24.689  24.808  0.00  0.00    +0.000 A 
ATOM      9  C   UNL     1      26.247  23.869  25.888  0.00  0.00    +0.000 A 
ATOM     10  C   UNL     1      25.606  24.012  27.105  0.00  0.00    +0.000 A 
ATOM     11  C   UNL     1      24.663  25.038  27.201  0.00  0.00    +0.000 A 
ATOM     12  C   UNL     1      24.367  25.883  26.153  0.00  0.00    +0.000 A 
ATOM     13  C   UNL     1      25.036  25.692  24.972  0.00  0.00    +0.000 A 
ENDBRANCH   6   8
BRANCH   1  14
ATOM     14  C   UNL     1      29.252  24.898  21.171  0.00  0.00    +0.000 C 
BRANCH  14  15
ATOM     15  C   UNL     1      29.452  26.370  21.461  0.00  0.00    +0.000 C 
BRANCH  15  17
ATOM     16  C   UNL     1      28.091  27.965  20.281  0.00  0.00    +0.000 C 
ATOM     17  C   UNL     1      29.206  27.242  20.297  0.00  0.00    +0.000 C 
ATOM     18  C   UNL     1      30.190  27.317  19.159  0.00  0.00    +0.000 C 
ENDBRANCH  15  17
ENDBRANCH  14  15
ENDBRANCH   1  14
TORSDOF 4
ENDMDL
MODEL 10
REMARK VINA RESULT:      -5.9      2.749      3.190
REMARK  Name = 
REMARK  4 active torsions:
REMARK  status: ('A' for Active; 'I' for Inactive)
REMARK    1  A    between atoms: C_2  and  C_4
REMARK    2  A    between atoms: C_4  and  C_5
REMARK    3  A    between atoms: C_5  and  C_6
REMARK    4  A    between atoms: N_11  and  C_12
REMARK                            x       y       z     vdW  Elec       q    Type
REMARK                         _______ _______ _______ _____ _____    ______ ____
ROOT
ATOM      1  C   UNL     1      16.812  11.416  36.712  0.00  0.00    +0.000 C 
ATOM      2  C   UNL     1      15.388  11.613  37.166  0.00  0.00    +0.000 C 
ATOM      3  N   UNL     1      17.122  10.012  36.549  0.00  0.00    +0.000 NA
ATOM      4  C   UNL     1      17.236   9.779  35.144  0.00  0.00    +0.000 C 
ATOM      5  O   UNL     1      17.697   8.778  34.552  0.00  0.00    +0.000 OA
ATOM      6  N   UNL     1      16.699  10.965  34.541  0.00  0.00    +0.000 N 
ATOM      7  N   UNL     1      16.957  12.042  35.423  0.00  0.00    +0.000 NA
ENDROOT
BRANCH   6   8
ATOM      8  C   UNL     1      16.030  11.026  33.295  0.00  0.00    +0.000 A 
ATOM      9  C   UNL     1      16.454  11.908  32.321  0.00  0.00    +0.000 A 
ATOM     10  C   UNL     1      15.840  12.007  31.086  0.00  0.00    +0.000 A 
ATOM     11  C   UNL     1      14.751  11.163  30.858  0.00  0.00    +0.000 A 
ATOM     12  C   UNL     1      14.289  10.266  31.797  0.00  0.00    +0.000 A 
ATOM     13  C   UNL     1      14.939  10.214  33.002  0.00  0.00    +0.000 A 
ENDBRANCH   6   8
BRANCH   1  14
ATOM     14  C   UNL     1      17.739  12.031  37.768  0.00  0.00    +0.000 C 
BRANCH  14  15
ATOM     15  C   UNL     1      18.630  10.893  38.217  0.00  0.00    +0.000 C 
BRANCH  15  17
ATOM     16  C   UNL     1      20.748  10.163  37.339  0.00  0.00    +0.000 C 
ATOM     17  C   UNL     1      20.063  11.123  37.954  0.00  0.00    +0.000 C 
ATOM     18  C   UNL     1      20.734  12.407  38.363  0.00  0.00    +0.000 C 
ENDBRANCH  15  17
ENDBRANCH  14  15
ENDBRANCH   1  14
TORSDOF 4
ENDMDL
