MODEL 1
REMARK VINA RESULT:      -7.4      0.000      0.000
REMARK  Name = 
REMARK  7 active torsions:
REMARK  status: ('A' for Active; 'I' for Inactive)
REMARK    1  A    between atoms: O_2  and  C_3
REMARK    2  A    between atoms: C_6  and  N_7
REMARK    3  A    between atoms: C_8  and  C_10
REMARK    4  A    between atoms: C_11  and  N_12
REMARK    5  A    between atoms: C_13  and  C_15
REMARK    6  A    between atoms: C_15  and  O_16
REMARK    7  A    between atoms: O_16  and  C_17
REMARK                            x       y       z     vdW  Elec       q    Type
REMARK                         _______ _______ _______ _____ _____    ______ ____
ROOT
ATOM      1  C   UNL     1      36.554   2.266  14.758  0.00  0.00    +0.000 A 
ATOM      2  C   UNL     1      35.449   1.893  15.440  0.00  0.00    +0.000 A 
ATOM      3  S   UNL     1      34.474   3.380  15.337  0.00  0.00    +0.000 S 
ATOM      4  C   UNL     1      35.541   4.336  14.460  0.00  0.00    +0.000 A 
ATOM      5  C   UNL     1      36.606   3.527  14.255  0.00  0.00    +0.000 A 
ATOM      6  C   UNL     1      37.665   4.289  13.463  0.00  0.00    +0.000 C 
ATOM      7  C   UNL     1      37.202   4.738  12.177  0.00  0.00    +0.000 C 
ATOM      8  C   UNL     1      35.725   5.437  12.245  0.00  0.00    +0.000 C 
ATOM      9  C   UNL     1      36.325   6.935  11.906  0.00  0.00    +0.000 C 
ATOM     10  C   UNL     1      35.689   5.718  13.864  0.00  0.00    +0.000 C 
ENDROOT
BRANCH   1  12
ATOM     11  N   UNL     1      38.716   1.026  15.204  0.00  0.00    +0.000 NA
ATOM     12  C   UNL     1      37.602   1.275  14.344  0.00  0.00    +0.000 C 
ATOM     13  O   UNL     1      37.575   0.647  13.300  0.00  0.00    +0.000 OA
BRANCH  11  17
ATOM     14  C   UNL     1      41.728  -1.727  14.014  0.00  0.00    +0.000 A 
ATOM     15  C   UNL     1      41.794  -0.375  13.685  0.00  0.00    +0.000 A 
ATOM     16  C   UNL     1      40.806   0.488  14.084  0.00  0.00    +0.000 A 
ATOM     17  C   UNL     1      39.721   0.076  14.815  0.00  0.00    +0.000 A 
ATOM     18  C   UNL     1      39.648  -1.260  15.144  0.00  0.00    +0.000 A 
ATOM     19  C   UNL     1      40.643  -2.156  14.748  0.00  0.00    +0.000 A 
BRANCH  14  21
ATOM     20  C   UNL     1      42.629  -3.271  12.383  0.00  0.00    +0.000 C 
ATOM     21  O   UNL     1      42.730  -2.564  13.602  0.00  0.00    +0.000 OA
ENDBRANCH  14  21
ENDBRANCH  11  17
ENDBRANCH   1  12
BRANCH   2  22
ATOM     22  N   UNL     1      35.064   0.821  16.264  0.00  0.00    +0.000 NA
ATOM     23  C   UNL     1      35.604   0.432  17.455  0.00  0.00    +0.000 C 
ATOM     24  O   UNL     1      36.538   0.986  18.073  0.00  0.00    +0.000 OA
BRANCH  23  25
ATOM     25  C   UNL     1      35.064  -0.790  18.157  0.00  0.00    +0.000 C 
BRANCH  25  26
ATOM     26  O   UNL     1      35.286  -1.912  17.360  0.00  0.00    +0.000 OA
BRANCH  26  27
ATOM     27  C   UNL     1      36.432  -2.658  17.395  0.00  0.00    +0.000 A 
ATOM     28  C   UNL     1      36.559  -3.657  16.426  0.00  0.00    +0.000 A 
ATOM     29  C   UNL     1      37.655  -4.459  16.366  0.00  0.00    +0.000 A 
ATOM     30  C   UNL     1      38.667  -4.276  17.292  0.00  0.00    +0.000 A 
ATOM     31  C   UNL     1      38.579  -3.299  18.265  0.00  0.00    +0.000 A 
ATOM     32  C   UNL     1      37.464  -2.514  18.295  0.00  0.00    +0.000 A 
ENDBRANCH  26  27
ENDBRANCH  25  26
ENDBRANCH  23  25
ENDBRANCH   2  22
TORSDOF 7
ENDMDL
MODEL 2
REMARK VINA RESULT:      -7.2      2.941      6.511
REMARK  Name = 
REMARK  7 active torsions:
REMARK  status: ('A' for Active; 'I' for Inactive)
REMARK    1  A    between atoms: O_2  and  C_3
REMARK    2  A    between atoms: C_6  and  N_7
REMARK    3  A    between atoms: C_8  and  C_10
REMARK    4  A    between atoms: C_11  and  N_12
REMARK    5  A    between atoms: C_13  and  C_15
REMARK    6  A    between atoms: C_15  and  O_16
REMARK    7  A    between atoms: O_16  and  C_17
REMARK                            x       y       z     vdW  Elec       q    Type
REMARK                         _______ _______ _______ _____ _____    ______ ____
ROOT
ATOM      1  C   UNL     1      37.287  -0.851  15.033  0.00  0.00    +0.000 A 
ATOM      2  C   UNL     1      36.884   0.133  15.866  0.00  0.00    +0.000 A 
ATOM      3  S   UNL     1      35.436  -0.610  16.587  0.00  0.00    +0.000 S 
ATOM      4  C   UNL     1      35.458  -2.079  15.773  0.00  0.00    +0.000 A 
ATOM      5  C   UNL     1      36.550  -1.991  14.980  0.00  0.00    +0.000 A 
ATOM      6  C   UNL     1      36.683  -3.280  14.171  0.00  0.00    +0.000 C 
ATOM      7  C   UNL     1      36.828  -4.454  14.989  0.00  0.00    +0.000 C 
ATOM      8  C   UNL     1      35.762  -4.499  16.228  0.00  0.00    +0.000 C 
ATOM      9  C   UNL     1      34.929  -5.763  15.575  0.00  0.00    +0.000 C 
ATOM     10  C   UNL     1      34.704  -3.384  15.646  0.00  0.00    +0.000 C 
ENDROOT
BRANCH   1  12
ATOM     11  N   UNL     1      39.781  -1.287  15.052  0.00  0.00    +0.000 NA
ATOM     12  C   UNL     1      38.625  -0.818  14.355  0.00  0.00    +0.000 C 
ATOM     13  O   UNL     1      38.807  -0.411  13.220  0.00  0.00    +0.000 OA
BRANCH  11  17
ATOM     14  C   UNL     1      43.572  -1.285  13.131  0.00  0.00    +0.000 A 
ATOM     15  C   UNL     1      42.813  -2.445  13.260  0.00  0.00    +0.000 A 
ATOM     16  C   UNL     1      41.593  -2.413  13.885  0.00  0.00    +0.000 A 
ATOM     17  C   UNL     1      41.065  -1.260  14.407  0.00  0.00    +0.000 A 
ATOM     18  C   UNL     1      41.810  -0.108  14.283  0.00  0.00    +0.000 A 
ATOM     19  C   UNL     1      43.054  -0.118  13.650  0.00  0.00    +0.000 A 
BRANCH  14  21
ATOM     20  C   UNL     1      45.319  -2.586  12.075  0.00  0.00    +0.000 C 
ATOM     21  O   UNL     1      44.787  -1.349  12.500  0.00  0.00    +0.000 OA
ENDBRANCH  14  21
ENDBRANCH  11  17
ENDBRANCH   1  12
BRANCH   2  22
ATOM     22  N   UNL     1      37.200   1.485  16.086  0.00  0.00    +0.000 NA
ATOM     23  C   UNL     1      36.634   2.590  15.518  0.00  0.00    +0.000 C 
ATOM     24  O   UNL     1      35.685   2.614  14.706  0.00  0.00    +0.000 OA
BRANCH  23  25
ATOM     25  C   UNL     1      37.162   3.961  15.862  0.00  0.00    +0.000 C 
BRANCH  25  26
ATOM     26  O   UNL     1      37.869   3.891  17.063  0.00  0.00    +0.000 OA
BRANCH  26  27
ATOM     27  C   UNL     1      38.856   4.768  17.419  0.00  0.00    +0.000 A 
ATOM     28  C   UNL     1      39.689   5.223  16.393  0.00  0.00    +0.000 A 
ATOM     29  C   UNL     1      40.703   6.096  16.631  0.00  0.00    +0.000 A 
ATOM     30  C   UNL     1      40.911   6.541  17.924  0.00  0.00    +0.000 A 
ATOM     31  C   UNL     1      40.110   6.116  18.966  0.00  0.00    +0.000 A 
ATOM     32  C   UNL     1      39.102   5.239  18.690  0.00  0.00    +0.000 A 
ENDBRANCH  26  27
ENDBRANCH  25  26
ENDBRANCH  23  25
ENDBRANCH   2  22
TORSDOF 7
ENDMDL
MODEL 3
REMARK VINA RESULT:      -6.7      3.610      5.519
REMARK  Name = 
REMARK  7 active torsions:
REMARK  status: ('A' for Active; 'I' for Inactive)
REMARK    1  A    between atoms: O_2  and  C_3
REMARK    2  A    between atoms: C_6  and  N_7
REMARK    3  A    between atoms: C_8  and  C_10
REMARK    4  A    between atoms: C_11  and  N_12
REMARK    5  A    between atoms: C_13  and  C_15
REMARK    6  A    between atoms: C_15  and  O_16
REMARK    7  A    between atoms: O_16  and  C_17
REMARK                            x       y       z     vdW  Elec       q    Type
REMARK                         _______ _______ _______ _____ _____    ______ ____
ROOT
ATOM      1  C   UNL     1      37.716   2.405  14.605  0.00  0.00    +0.000 A 
ATOM      2  C   UNL     1      37.357   1.231  15.168  0.00  0.00    +0.000 A 
ATOM      3  S   UNL     1      36.970   0.269  13.720  0.00  0.00    +0.000 S 
ATOM      4  C   UNL     1      37.281   1.426  12.542  0.00  0.00    +0.000 A 
ATOM      5  C   UNL     1      37.673   2.510  13.251  0.00  0.00    +0.000 A 
ATOM      6  C   UNL     1      37.984   3.650  12.284  0.00  0.00    +0.000 C 
ATOM      7  C   UNL     1      39.031   3.335  11.349  0.00  0.00    +0.000 C 
ATOM      8  C   UNL     1      38.851   1.857  10.672  0.00  0.00    +0.000 C 
ATOM      9  C   UNL     1      38.507   2.487   9.187  0.00  0.00    +0.000 C 
ATOM     10  C   UNL     1      37.266   1.636  11.045  0.00  0.00    +0.000 C 
ENDROOT
BRANCH   1  12
ATOM     11  N   UNL     1      37.643   4.147  16.441  0.00  0.00    +0.000 NA
ATOM     12  C   UNL     1      38.372   3.497  15.397  0.00  0.00    +0.000 C 
ATOM     13  O   UNL     1      39.514   3.884  15.215  0.00  0.00    +0.000 OA
BRANCH  11  17
ATOM     14  C   UNL     1      39.468   7.289  18.647  0.00  0.00    +0.000 A 
ATOM     15  C   UNL     1      38.793   7.524  17.451  0.00  0.00    +0.000 A 
ATOM     16  C   UNL     1      38.214   6.489  16.763  0.00  0.00    +0.000 A 
ATOM     17  C   UNL     1      38.268   5.192  17.205  0.00  0.00    +0.000 A 
ATOM     18  C   UNL     1      38.934   4.951  18.387  0.00  0.00    +0.000 A 
ATOM     19  C   UNL     1      39.530   5.989  19.104  0.00  0.00    +0.000 A 
BRANCH  14  21
ATOM     20  C   UNL     1      41.421   8.600  19.216  0.00  0.00    +0.000 C 
ATOM     21  O   UNL     1      40.036   8.343  19.312  0.00  0.00    +0.000 OA
ENDBRANCH  14  21
ENDBRANCH  11  17
ENDBRANCH   1  12
BRANCH   2  22
ATOM     22  N   UNL     1      37.067   0.758  16.460  0.00  0.00    +0.000 NA
ATOM     23  C   UNL     1      35.901   0.868  17.160  0.00  0.00    +0.000 C 
ATOM     24  O   UNL     1      34.834   1.387  16.766  0.00  0.00    +0.000 OA
BRANCH  23  25
ATOM     25  C   UNL     1      35.820   0.326  18.567  0.00  0.00    +0.000 C 
BRANCH  25  26
ATOM     26  O   UNL     1      35.560  -1.043  18.515  0.00  0.00    +0.000 OA
BRANCH  26  27
ATOM     27  C   UNL     1      36.518  -1.993  18.290  0.00  0.00    +0.000 A 
ATOM     28  C   UNL     1      37.563  -2.060  19.216  0.00  0.00    +0.000 A 
ATOM     29  C   UNL     1      38.570  -2.965  19.093  0.00  0.00    +0.000 A 
ATOM     30  C   UNL     1      38.554  -3.838  18.020  0.00  0.00    +0.000 A 
ATOM     31  C   UNL     1      37.539  -3.805  17.084  0.00  0.00    +0.000 A 
ATOM     32  C   UNL     1      36.545  -2.883  17.240  0.00  0.00    +0.000 A 
ENDBRANCH  26  27
ENDBRANCH  25  26
ENDBRANCH  23  25
ENDBRANCH   2  22
TORSDOF 7
ENDMDL
MODEL 4
REMARK VINA RESULT:      -6.6      3.976      5.059
REMARK  Name = 
REMARK  7 active torsions:
REMARK  status: ('A' for Active; 'I' for Inactive)
REMARK    1  A    between atoms: O_2  and  C_3
REMARK    2  A    between atoms: C_6  and  N_7
REMARK    3  A    between atoms: C_8  and  C_10
REMARK    4  A    between atoms: C_11  and  N_12
REMARK    5  A    between atoms: C_13  and  C_15
REMARK    6  A    between atoms: C_15  and  O_16
REMARK    7  A    between atoms: O_16  and  C_17
REMARK                            x       y       z     vdW  Elec       q    Type
REMARK                         _______ _______ _______ _____ _____    ______ ____
ROOT
ATOM      1  C   UNL     1      36.872   4.374  15.815  0.00  0.00    +0.000 A 
ATOM      2  C   UNL     1      36.213   3.204  15.961  0.00  0.00    +0.000 A 
ATOM      3  S   UNL     1      34.956   3.370  14.710  0.00  0.00    +0.000 S 
ATOM      4  C   UNL     1      35.362   4.891  14.125  0.00  0.00    +0.000 A 
ATOM      5  C   UNL     1      36.433   5.248  14.872  0.00  0.00    +0.000 A 
ATOM      6  C   UNL     1      36.902   6.635  14.438  0.00  0.00    +0.000 C 
ATOM      7  C   UNL     1      37.292   6.697  13.055  0.00  0.00    +0.000 C 
ATOM      8  C   UNL     1      36.218   5.967  12.061  0.00  0.00    +0.000 C 
ATOM      9  C   UNL     1      35.739   7.396  11.391  0.00  0.00    +0.000 C 
ATOM     10  C   UNL     1      34.948   5.925  13.103  0.00  0.00    +0.000 C 
ENDROOT
BRANCH   1  12
ATOM     11  N   UNL     1      38.352   5.792  17.302  0.00  0.00    +0.000 NA
ATOM     12  C   UNL     1      38.190   4.630  16.486  0.00  0.00    +0.000 C 
ATOM     13  O   UNL     1      39.162   3.901  16.386  0.00  0.00    +0.000 OA
BRANCH  11  17
ATOM     14  C   UNL     1      42.108   6.538  19.145  0.00  0.00    +0.000 A 
ATOM     15  C   UNL     1      41.944   6.586  17.763  0.00  0.00    +0.000 A 
ATOM     16  C   UNL     1      40.718   6.340  17.198  0.00  0.00    +0.000 A 
ATOM     17  C   UNL     1      39.610   6.041  17.949  0.00  0.00    +0.000 A 
ATOM     18  C   UNL     1      39.765   5.992  19.317  0.00  0.00    +0.000 A 
ATOM     19  C   UNL     1      41.003   6.239  19.913  0.00  0.00    +0.000 A 
BRANCH  14  21
ATOM     20  C   UNL     1      44.489   6.857  18.856  0.00  0.00    +0.000 C 
ATOM     21  O   UNL     1      43.344   6.789  19.680  0.00  0.00    +0.000 OA
ENDBRANCH  14  21
ENDBRANCH  11  17
ENDBRANCH   1  12
BRANCH   2  22
ATOM     22  N   UNL     1      36.186   2.149  16.890  0.00  0.00    +0.000 NA
ATOM     23  C   UNL     1      35.959   0.824  16.660  0.00  0.00    +0.000 C 
ATOM     24  O   UNL     1      35.764   0.276  15.554  0.00  0.00    +0.000 OA
BRANCH  23  25
ATOM     25  C   UNL     1      35.926  -0.141  17.820  0.00  0.00    +0.000 C 
BRANCH  25  26
ATOM     26  O   UNL     1      37.233  -0.470  18.179  0.00  0.00    +0.000 OA
BRANCH  26  27
ATOM     27  C   UNL     1      37.845  -1.645  17.836  0.00  0.00    +0.000 A 
ATOM     28  C   UNL     1      38.499  -1.672  16.601  0.00  0.00    +0.000 A 
ATOM     29  C   UNL     1      39.141  -2.785  16.158  0.00  0.00    +0.000 A 
ATOM     30  C   UNL     1      39.143  -3.916  16.955  0.00  0.00    +0.000 A 
ATOM     31  C   UNL     1      38.508  -3.929  18.182  0.00  0.00    +0.000 A 
ATOM     32  C   UNL     1      37.874  -2.794  18.594  0.00  0.00    +0.000 A 
ENDBRANCH  26  27
ENDBRANCH  25  26
ENDBRANCH  23  25
ENDBRANCH   2  22
TORSDOF 7
ENDMDL
MODEL 5
REMARK VINA RESULT:      -6.6      3.550      6.430
REMARK  Name = 
REMARK  7 active torsions:
REMARK  status: ('A' for Active; 'I' for Inactive)
REMARK    1  A    between atoms: O_2  and  C_3
REMARK    2  A    between atoms: C_6  and  N_7
REMARK    3  A    between atoms: C_8  and  C_10
REMARK    4  A    between atoms: C_11  and  N_12
REMARK    5  A    between atoms: C_13  and  C_15
REMARK    6  A    between atoms: C_15  and  O_16
REMARK    7  A    between atoms: O_16  and  C_17
REMARK                            x       y       z     vdW  Elec       q    Type
REMARK                         _______ _______ _______ _____ _____    ______ ____
ROOT
ATOM      1  C   UNL     1      37.680   1.425  15.299  0.00  0.00    +0.000 A 
ATOM      2  C   UNL     1      37.870   2.636  15.866  0.00  0.00    +0.000 A 
ATOM      3  S   UNL     1      36.416   2.760  16.887  0.00  0.00    +0.000 S 
ATOM      4  C   UNL     1      35.697   1.291  16.504  0.00  0.00    +0.000 A 
ATOM      5  C   UNL     1      36.559   0.731  15.623  0.00  0.00    +0.000 A 
ATOM      6  C   UNL     1      36.011  -0.626  15.186  0.00  0.00    +0.000 C 
ATOM      7  C   UNL     1      35.838  -1.548  16.276  0.00  0.00    +0.000 C 
ATOM      8  C   UNL     1      35.103  -0.869  17.570  0.00  0.00    +0.000 C 
ATOM      9  C   UNL     1      33.729  -1.756  17.362  0.00  0.00    +0.000 C 
ATOM     10  C   UNL     1      34.481   0.445  16.803  0.00  0.00    +0.000 C 
ENDROOT
BRANCH   1  12
ATOM     11  N   UNL     1      39.591  -0.231  15.172  0.00  0.00    +0.000 NA
ATOM     12  C   UNL     1      38.763   0.735  14.522  0.00  0.00    +0.000 C 
ATOM     13  O   UNL     1      38.997   0.941  13.343  0.00  0.00    +0.000 OA
BRANCH  11  17
ATOM     14  C   UNL     1      42.610  -2.263  12.975  0.00  0.00    +0.000 A 
ATOM     15  C   UNL     1      41.361  -2.833  13.211  0.00  0.00    +0.000 A 
ATOM     16  C   UNL     1      40.408  -2.152  13.924  0.00  0.00    +0.000 A 
ATOM     17  C   UNL     1      40.627  -0.897  14.432  0.00  0.00    +0.000 A 
ATOM     18  C   UNL     1      41.860  -0.326  14.202  0.00  0.00    +0.000 A 
ATOM     19  C   UNL     1      42.845  -1.001  13.480  0.00  0.00    +0.000 A 
BRANCH  14  21
ATOM     20  C   UNL     1      44.561  -2.302  11.544  0.00  0.00    +0.000 C 
ATOM     21  O   UNL     1      43.541  -2.968  12.259  0.00  0.00    +0.000 OA
ENDBRANCH  14  21
ENDBRANCH  11  17
ENDBRANCH   1  12
BRANCH   2  22
ATOM     22  N   UNL     1      38.730   3.734  15.682  0.00  0.00    +0.000 NA
ATOM     23  C   UNL     1      38.402   5.027  15.393  0.00  0.00    +0.000 C 
ATOM     24  O   UNL     1      37.253   5.502  15.271  0.00  0.00    +0.000 OA
BRANCH  23  25
ATOM     25  C   UNL     1      39.496   6.046  15.186  0.00  0.00    +0.000 C 
BRANCH  25  26
ATOM     26  O   UNL     1      40.591   5.711  15.983  0.00  0.00    +0.000 OA
BRANCH  26  27
ATOM     27  C   UNL     1      40.689   6.020  17.312  0.00  0.00    +0.000 A 
ATOM     28  C   UNL     1      41.951   6.406  17.773  0.00  0.00    +0.000 A 
ATOM     29  C   UNL     1      42.166   6.735  19.074  0.00  0.00    +0.000 A 
ATOM     30  C   UNL     1      41.104   6.683  19.959  0.00  0.00    +0.000 A 
ATOM     31  C   UNL     1      39.841   6.306  19.543  0.00  0.00    +0.000 A 
ATOM     32  C   UNL     1      39.664   5.982  18.230  0.00  0.00    +0.000 A 
ENDBRANCH  26  27
ENDBRANCH  25  26
ENDBRANCH  23  25
ENDBRANCH   2  22
TORSDOF 7
ENDMDL
MODEL 6
REMARK VINA RESULT:      -6.5      4.074      5.652
REMARK  Name = 
REMARK  7 active torsions:
REMARK  status: ('A' for Active; 'I' for Inactive)
REMARK    1  A    between atoms: O_2  and  C_3
REMARK    2  A    between atoms: C_6  and  N_7
REMARK    3  A    between atoms: C_8  and  C_10
REMARK    4  A    between atoms: C_11  and  N_12
REMARK    5  A    between atoms: C_13  and  C_15
REMARK    6  A    between atoms: C_15  and  O_16
REMARK    7  A    between atoms: O_16  and  C_17
REMARK                            x       y       z     vdW  Elec       q    Type
REMARK                         _______ _______ _______ _____ _____    ______ ____
ROOT
ATOM      1  C   UNL     1      37.622   4.052  15.280  0.00  0.00    +0.000 A 
ATOM      2  C   UNL     1      37.739   2.824  14.729  0.00  0.00    +0.000 A 
ATOM      3  S   UNL     1      36.874   3.063  13.191  0.00  0.00    +0.000 S 
ATOM      4  C   UNL     1      36.434   4.673  13.381  0.00  0.00    +0.000 A 
ATOM      5  C   UNL     1      36.945   5.006  14.589  0.00  0.00    +0.000 A 
ATOM      6  C   UNL     1      36.605   6.465  14.888  0.00  0.00    +0.000 C 
ATOM      7  C   UNL     1      37.137   7.384  13.918  0.00  0.00    +0.000 C 
ATOM      8  C   UNL     1      36.883   6.896  12.378  0.00  0.00    +0.000 C 
ATOM      9  C   UNL     1      35.807   8.109  12.082  0.00  0.00    +0.000 C 
ATOM     10  C   UNL     1      35.701   5.798  12.687  0.00  0.00    +0.000 C 
ENDROOT
BRANCH   1  12
ATOM     11  N   UNL     1      39.272   5.584  16.438  0.00  0.00    +0.000 NA
ATOM     12  C   UNL     1      38.401   4.453  16.498  0.00  0.00    +0.000 C 
ATOM     13  O   UNL     1      38.346   3.870  17.568  0.00  0.00    +0.000 OA
BRANCH  11  17
ATOM     14  C   UNL     1      41.546   6.742  19.837  0.00  0.00    +0.000 A 
ATOM     15  C   UNL     1      42.117   6.634  18.571  0.00  0.00    +0.000 A 
ATOM     16  C   UNL     1      41.356   6.258  17.494  0.00  0.00    +0.000 A 
ATOM     17  C   UNL     1      40.019   5.974  17.602  0.00  0.00    +0.000 A 
ATOM     18  C   UNL     1      39.447   6.078  18.851  0.00  0.00    +0.000 A 
ATOM     19  C   UNL     1      40.202   6.459  19.961  0.00  0.00    +0.000 A 
BRANCH  14  21
ATOM     20  C   UNL     1      43.307   6.246  21.421  0.00  0.00    +0.000 C 
ATOM     21  O   UNL     1      42.331   7.120  20.894  0.00  0.00    +0.000 OA
ENDBRANCH  14  21
ENDBRANCH  11  17
ENDBRANCH   1  12
BRANCH   2  22
ATOM     22  N   UNL     1      38.150   1.546  15.147  0.00  0.00    +0.000 NA
ATOM     23  C   UNL     1      38.903   0.634  14.467  0.00  0.00    +0.000 C 
ATOM     24  O   UNL     1      39.413   0.776  13.335  0.00  0.00    +0.000 OA
BRANCH  23  25
ATOM     25  C   UNL     1      39.190  -0.711  15.088  0.00  0.00    +0.000 C 
BRANCH  25  26
ATOM     26  O   UNL     1      37.991  -1.286  15.510  0.00  0.00    +0.000 OA
BRANCH  26  27
ATOM     27  C   UNL     1      37.653  -1.469  16.823  0.00  0.00    +0.000 A 
ATOM     28  C   UNL     1      36.482  -0.844  17.261  0.00  0.00    +0.000 A 
ATOM     29  C   UNL     1      36.050  -0.956  18.545  0.00  0.00    +0.000 A 
ATOM     30  C   UNL     1      36.794  -1.710  19.436  0.00  0.00    +0.000 A 
ATOM     31  C   UNL     1      37.957  -2.343  19.042  0.00  0.00    +0.000 A 
ATOM     32  C   UNL     1      38.359  -2.207  17.746  0.00  0.00    +0.000 A 
ENDBRANCH  26  27
ENDBRANCH  25  26
ENDBRANCH  23  25
ENDBRANCH   2  22
TORSDOF 7
ENDMDL
MODEL 7
REMARK VINA RESULT:      -6.5      4.155      7.277
REMARK  Name = 
REMARK  7 active torsions:
REMARK  status: ('A' for Active; 'I' for Inactive)
REMARK    1  A    between atoms: O_2  and  C_3
REMARK    2  A    between atoms: C_6  and  N_7
REMARK    3  A    between atoms: C_8  and  C_10
REMARK    4  A    between atoms: C_11  and  N_12
REMARK    5  A    between atoms: C_13  and  C_15
REMARK    6  A    between atoms: C_15  and  O_16
REMARK    7  A    between atoms: O_16  and  C_17
REMARK                            x       y       z     vdW  Elec       q    Type
REMARK                         _______ _______ _______ _____ _____    ______ ____
ROOT
ATOM      1  C   UNL     1      38.323   6.053  16.241  0.00  0.00    +0.000 A 
ATOM      2  C   UNL     1      38.423   4.755  16.601  0.00  0.00    +0.000 A 
ATOM      3  S   UNL     1      38.746   4.915  18.345  0.00  0.00    +0.000 S 
ATOM      4  C   UNL     1      38.739   6.590  18.464  0.00  0.00    +0.000 A 
ATOM      5  C   UNL     1      38.490   7.002  17.199  0.00  0.00    +0.000 A 
ATOM      6  C   UNL     1      38.463   8.528  17.169  0.00  0.00    +0.000 C 
ATOM      7  C   UNL     1      37.454   9.097  18.021  0.00  0.00    +0.000 C 
ATOM      8  C   UNL     1      37.422   8.415  19.507  0.00  0.00    +0.000 C 
ATOM      9  C   UNL     1      37.987   9.780  20.238  0.00  0.00    +0.000 C 
ATOM     10  C   UNL     1      38.908   7.715  19.459  0.00  0.00    +0.000 C 
ENDROOT
BRANCH   1  12
ATOM     11  N   UNL     1      36.411   6.677  14.704  0.00  0.00    +0.000 NA
ATOM     12  C   UNL     1      37.811   6.465  14.892  0.00  0.00    +0.000 C 
ATOM     13  O   UNL     1      38.520   6.639  13.915  0.00  0.00    +0.000 OA
BRANCH  11  17
ATOM     14  C   UNL     1      34.950   7.927  10.913  0.00  0.00    +0.000 A 
ATOM     15  C   UNL     1      35.320   8.840  11.897  0.00  0.00    +0.000 A 
ATOM     16  C   UNL     1      35.788   8.405  13.111  0.00  0.00    +0.000 A 
ATOM     17  C   UNL     1      35.915   7.074  13.415  0.00  0.00    +0.000 A 
ATOM     18  C   UNL     1      35.551   6.164  12.446  0.00  0.00    +0.000 A 
ATOM     19  C   UNL     1      35.073   6.584  11.204  0.00  0.00    +0.000 A 
BRANCH  14  21
ATOM     20  C   UNL     1      34.318   7.520   8.613  0.00  0.00    +0.000 C 
ATOM     21  O   UNL     1      34.487   8.392   9.711  0.00  0.00    +0.000 OA
ENDBRANCH  14  21
ENDBRANCH  11  17
ENDBRANCH   1  12
BRANCH   2  22
ATOM     22  N   UNL     1      38.522   3.513  15.949  0.00  0.00    +0.000 NA
ATOM     23  C   UNL     1      37.538   2.807  15.320  0.00  0.00    +0.000 C 
ATOM     24  O   UNL     1      36.347   3.150  15.166  0.00  0.00    +0.000 OA
BRANCH  23  25
ATOM     25  C   UNL     1      37.854   1.457  14.721  0.00  0.00    +0.000 C 
BRANCH  25  26
ATOM     26  O   UNL     1      37.875   0.500  15.736  0.00  0.00    +0.000 OA
BRANCH  26  27
ATOM     27  C   UNL     1      36.836  -0.348  16.006  0.00  0.00    +0.000 A 
ATOM     28  C   UNL     1      36.752  -1.503  15.223  0.00  0.00    +0.000 A 
ATOM     29  C   UNL     1      35.761  -2.416  15.403  0.00  0.00    +0.000 A 
ATOM     30  C   UNL     1      34.816  -2.190  16.387  0.00  0.00    +0.000 A 
ATOM     31  C   UNL     1      34.865  -1.061  17.182  0.00  0.00    +0.000 A 
ATOM     32  C   UNL     1      35.873  -0.167  16.972  0.00  0.00    +0.000 A 
ENDBRANCH  26  27
ENDBRANCH  25  26
ENDBRANCH  23  25
ENDBRANCH   2  22
TORSDOF 7
ENDMDL
MODEL 8
REMARK VINA RESULT:      -6.4      2.292      5.278
REMARK  Name = 
REMARK  7 active torsions:
REMARK  status: ('A' for Active; 'I' for Inactive)
REMARK    1  A    between atoms: O_2  and  C_3
REMARK    2  A    between atoms: C_6  and  N_7
REMARK    3  A    between atoms: C_8  and  C_10
REMARK    4  A    between atoms: C_11  and  N_12
REMARK    5  A    between atoms: C_13  and  C_15
REMARK    6  A    between atoms: C_15  and  O_16
REMARK    7  A    between atoms: O_16  and  C_17
REMARK                            x       y       z     vdW  Elec       q    Type
REMARK                         _______ _______ _______ _____ _____    ______ ____
ROOT
ATOM      1  C   UNL     1      36.761   4.072  12.882  0.00  0.00    +0.000 A 
ATOM      2  C   UNL     1      37.668   3.853  11.906  0.00  0.00    +0.000 A 
ATOM      3  S   UNL     1      37.427   5.297  10.893  0.00  0.00    +0.000 S 
ATOM      4  C   UNL     1      36.205   6.039  11.775  0.00  0.00    +0.000 A 
ATOM      5  C   UNL     1      36.002   5.197  12.815  0.00  0.00    +0.000 A 
ATOM      6  C   UNL     1      34.895   5.762  13.703  0.00  0.00    +0.000 C 
ATOM      7  C   UNL     1      35.204   7.059  14.242  0.00  0.00    +0.000 C 
ATOM      8  C   UNL     1      35.808   8.084  13.120  0.00  0.00    +0.000 C 
ATOM      9  C   UNL     1      34.461   9.035  13.143  0.00  0.00    +0.000 C 
ATOM     10  C   UNL     1      35.316   7.262  11.785  0.00  0.00    +0.000 C 
ENDROOT
BRANCH   1  12
ATOM     11  N   UNL     1      36.021   2.010  14.151  0.00  0.00    +0.000 NA
ATOM     12  C   UNL     1      36.731   3.250  14.137  0.00  0.00    +0.000 C 
ATOM     13  O   UNL     1      37.284   3.568  15.176  0.00  0.00    +0.000 OA
BRANCH  11  17
ATOM     14  C   UNL     1      35.991  -0.380  17.665  0.00  0.00    +0.000 A 
ATOM     15  C   UNL     1      36.868  -0.629  16.613  0.00  0.00    +0.000 A 
ATOM     16  C   UNL     1      36.854   0.161  15.492  0.00  0.00    +0.000 A 
ATOM     17  C   UNL     1      35.992   1.217  15.349  0.00  0.00    +0.000 A 
ATOM     18  C   UNL     1      35.120   1.470  16.386  0.00  0.00    +0.000 A 
ATOM     19  C   UNL     1      35.118   0.679  17.536  0.00  0.00    +0.000 A 
BRANCH  14  21
ATOM     20  C   UNL     1      37.260  -1.645  19.292  0.00  0.00    +0.000 C 
ATOM     21  O   UNL     1      36.030  -1.186  18.772  0.00  0.00    +0.000 OA
ENDBRANCH  14  21
ENDBRANCH  11  17
ENDBRANCH   1  12
BRANCH   2  22
ATOM     22  N   UNL     1      38.480   2.787  11.480  0.00  0.00    +0.000 NA
ATOM     23  C   UNL     1      38.098   1.545  11.063  0.00  0.00    +0.000 C 
ATOM     24  O   UNL     1      36.929   1.120  10.943  0.00  0.00    +0.000 OA
BRANCH  23  25
ATOM     25  C   UNL     1      39.147   0.525  10.692  0.00  0.00    +0.000 C 
BRANCH  25  26
ATOM     26  O   UNL     1      38.858  -0.682  11.330  0.00  0.00    +0.000 OA
BRANCH  26  27
ATOM     27  C   UNL     1      39.307  -1.011  12.579  0.00  0.00    +0.000 A 
ATOM     28  C   UNL     1      38.807  -2.192  13.133  0.00  0.00    +0.000 A 
ATOM     29  C   UNL     1      39.184  -2.617  14.369  0.00  0.00    +0.000 A 
ATOM     30  C   UNL     1      40.085  -1.855  15.090  0.00  0.00    +0.000 A 
ATOM     31  C   UNL     1      40.603  -0.681  14.577  0.00  0.00    +0.000 A 
ATOM     32  C   UNL     1      40.201  -0.286  13.335  0.00  0.00    +0.000 A 
ENDBRANCH  26  27
ENDBRANCH  25  26
ENDBRANCH  23  25
ENDBRANCH   2  22
TORSDOF 7
ENDMDL
MODEL 9
REMARK VINA RESULT:      -6.4      4.487      6.069
REMARK  Name = 
REMARK  7 active torsions:
REMARK  status: ('A' for Active; 'I' for Inactive)
REMARK    1  A    between atoms: O_2  and  C_3
REMARK    2  A    between atoms: C_6  and  N_7
REMARK    3  A    between atoms: C_8  and  C_10
REMARK    4  A    between atoms: C_11  and  N_12
REMARK    5  A    between atoms: C_13  and  C_15
REMARK    6  A    between atoms: C_15  and  O_16
REMARK    7  A    between atoms: O_16  and  C_17
REMARK                            x       y       z     vdW  Elec       q    Type
REMARK                         _______ _______ _______ _____ _____    ______ ____
ROOT
ATOM      1  C   UNL     1      36.873   6.619  15.014  0.00  0.00    +0.000 A 
ATOM      2  C   UNL     1      36.664   5.459  14.355  0.00  0.00    +0.000 A 
ATOM      3  S   UNL     1      35.327   5.923  13.274  0.00  0.00    +0.000 S 
ATOM      4  C   UNL     1      35.142   7.522  13.752  0.00  0.00    +0.000 A 
ATOM      5  C   UNL     1      36.086   7.684  14.709  0.00  0.00    +0.000 A 
ATOM      6  C   UNL     1      36.018   9.115  15.237  0.00  0.00    +0.000 C 
ATOM      7  C   UNL     1      36.247  10.109  14.223  0.00  0.00    +0.000 C 
ATOM      8  C   UNL     1      35.406   9.817  12.850  0.00  0.00    +0.000 C 
ATOM      9  C   UNL     1      34.417  11.116  13.081  0.00  0.00    +0.000 C 
ATOM     10  C   UNL     1      34.318   8.760  13.480  0.00  0.00    +0.000 C 
ENDROOT
BRANCH   1  12
ATOM     11  N   UNL     1      38.350   5.912  16.945  0.00  0.00    +0.000 NA
ATOM     12  C   UNL     1      38.075   6.832  15.886  0.00  0.00    +0.000 C 
ATOM     13  O   UNL     1      38.861   7.755  15.755  0.00  0.00    +0.000 OA
BRANCH  11  17
ATOM     14  C   UNL     1      41.803   6.494  19.354  0.00  0.00    +0.000 A 
ATOM     15  C   UNL     1      41.879   6.413  17.966  0.00  0.00    +0.000 A 
ATOM     16  C   UNL     1      40.746   6.225  17.216  0.00  0.00    +0.000 A 
ATOM     17  C   UNL     1      39.502   6.109  17.781  0.00  0.00    +0.000 A 
ATOM     18  C   UNL     1      39.419   6.188  19.154  0.00  0.00    +0.000 A 
ATOM     19  C   UNL     1      40.559   6.379  19.937  0.00  0.00    +0.000 A 
BRANCH  14  21
ATOM     20  C   UNL     1      43.144   6.034  21.315  0.00  0.00    +0.000 C 
ATOM     21  O   UNL     1      42.952   6.683  20.076  0.00  0.00    +0.000 OA
ENDBRANCH  14  21
ENDBRANCH  11  17
ENDBRANCH   1  12
BRANCH   2  22
ATOM     22  N   UNL     1      37.075   4.120  14.479  0.00  0.00    +0.000 NA
ATOM     23  C   UNL     1      36.460   3.105  15.152  0.00  0.00    +0.000 C 
ATOM     24  O   UNL     1      35.375   3.161  15.769  0.00  0.00    +0.000 OA
BRANCH  23  25
ATOM     25  C   UNL     1      37.104   1.740  15.197  0.00  0.00    +0.000 C 
BRANCH  25  26
ATOM     26  O   UNL     1      36.188   0.818  15.703  0.00  0.00    +0.000 OA
BRANCH  26  27
ATOM     27  C   UNL     1      36.401   0.071  16.830  0.00  0.00    +0.000 A 
ATOM     28  C   UNL     1      35.755   0.495  17.994  0.00  0.00    +0.000 A 
ATOM     29  C   UNL     1      35.894  -0.170  19.171  0.00  0.00    +0.000 A 
ATOM     30  C   UNL     1      36.698  -1.295  19.210  0.00  0.00    +0.000 A 
ATOM     31  C   UNL     1      37.355  -1.747  18.081  0.00  0.00    +0.000 A 
ATOM     32  C   UNL     1      37.192  -1.053  16.918  0.00  0.00    +0.000 A 
ENDBRANCH  26  27
ENDBRANCH  25  26
ENDBRANCH  23  25
ENDBRANCH   2  22
TORSDOF 7
ENDMDL
MODEL 10
REMARK VINA RESULT:      -6.4      3.926      7.175
REMARK  Name = 
REMARK  7 active torsions:
REMARK  status: ('A' for Active; 'I' for Inactive)
REMARK    1  A    between atoms: O_2  and  C_3
REMARK    2  A    between atoms: C_6  and  N_7
REMARK    3  A    between atoms: C_8  and  C_10
REMARK    4  A    between atoms: C_11  and  N_12
REMARK    5  A    between atoms: C_13  and  C_15
REMARK    6  A    between atoms: C_15  and  O_16
REMARK    7  A    between atoms: O_16  and  C_17
REMARK                            x       y       z     vdW  Elec       q    Type
REMARK                         _______ _______ _______ _____ _____    ______ ____
ROOT
ATOM      1  C   UNL     1      37.892   4.626  15.258  0.00  0.00    +0.000 A 
ATOM      2  C   UNL     1      37.947   5.364  14.128  0.00  0.00    +0.000 A 
ATOM      3  S   UNL     1      38.268   6.982  14.798  0.00  0.00    +0.000 S 
ATOM      4  C   UNL     1      38.294   6.592  16.432  0.00  0.00    +0.000 A 
ATOM      5  C   UNL     1      38.067   5.258  16.448  0.00  0.00    +0.000 A 
ATOM      6  C   UNL     1      38.060   4.773  17.896  0.00  0.00    +0.000 C 
ATOM      7  C   UNL     1      39.299   5.016  18.584  0.00  0.00    +0.000 C 
ATOM      8  C   UNL     1      39.871   6.529  18.345  0.00  0.00    +0.000 C 
ATOM      9  C   UNL     1      39.587   6.974  19.906  0.00  0.00    +0.000 C 
ATOM     10  C   UNL     1      38.477   7.207  17.801  0.00  0.00    +0.000 C 
ENDROOT
BRANCH   1  12
ATOM     11  N   UNL     1      36.642   2.433  15.064  0.00  0.00    +0.000 NA
ATOM     12  C   UNL     1      37.881   3.126  15.227  0.00  0.00    +0.000 C 
ATOM     13  O   UNL     1      38.879   2.432  15.333  0.00  0.00    +0.000 OA
BRANCH  11  17
ATOM     14  C   UNL     1      36.572  -1.817  15.040  0.00  0.00    +0.000 A 
ATOM     15  C   UNL     1      36.212  -1.081  16.166  0.00  0.00    +0.000 A 
ATOM     16  C   UNL     1      36.245   0.290  16.142  0.00  0.00    +0.000 A 
ATOM     17  C   UNL     1      36.626   0.997  15.030  0.00  0.00    +0.000 A 
ATOM     18  C   UNL     1      36.985   0.275  13.912  0.00  0.00    +0.000 A 
ATOM     19  C   UNL     1      36.958  -1.120  13.914  0.00  0.00    +0.000 A 
BRANCH  14  21
ATOM     20  C   UNL     1      35.430  -3.896  14.564  0.00  0.00    +0.000 C 
ATOM     21  O   UNL     1      36.528  -3.185  15.094  0.00  0.00    +0.000 OA
ENDBRANCH  14  21
ENDBRANCH  11  17
ENDBRANCH   1  12
BRANCH   2  22
ATOM     22  N   UNL     1      37.638   5.182  12.768  0.00  0.00    +0.000 NA
ATOM     23  C   UNL     1      36.470   5.462  12.120  0.00  0.00    +0.000 C 
ATOM     24  O   UNL     1      35.443   5.978  12.612  0.00  0.00    +0.000 OA
BRANCH  23  25
ATOM     25  C   UNL     1      36.335   5.141  10.652  0.00  0.00    +0.000 C 
BRANCH  25  26
ATOM     26  O   UNL     1      36.885   3.884  10.405  0.00  0.00    +0.000 OA
BRANCH  26  27
ATOM     27  C   UNL     1      36.735   3.203   9.228  0.00  0.00    +0.000 A 
ATOM     28  C   UNL     1      36.043   3.861   8.208  0.00  0.00    +0.000 A 
ATOM     29  C   UNL     1      35.834   3.281   6.997  0.00  0.00    +0.000 A 
ATOM     30  C   UNL     1      36.321   2.005   6.776  0.00  0.00    +0.000 A 
ATOM     31  C   UNL     1      37.011   1.321   7.758  0.00  0.00    +0.000 A 
ATOM     32  C   UNL     1      37.201   1.935   8.961  0.00  0.00    +0.000 A 
ENDBRANCH  26  27
ENDBRANCH  25  26
ENDBRANCH  23  25
ENDBRANCH   2  22
TORSDOF 7
ENDMDL
