MODEL 1
REMARK VINA RESULT:      -7.4      0.000      0.000
REMARK  Name = 
REMARK  2 active torsions:
REMARK  status: ('A' for Active; 'I' for Inactive)
REMARK    1  A    between atoms: C_5  and  N_6
REMARK    2  A    between atoms: C_14  and  C_15
REMARK                            x       y       z     vdW  Elec       q    Type
REMARK                         _______ _______ _______ _____ _____    ______ ____
ROOT
ATOM      1  N   UNL     1      15.715  11.807  35.529  0.00  0.00    +0.000 NA
ATOM      2  C   UNL     1      14.981  11.405  36.666  0.00  0.00    +0.000 A 
ATOM      3  N   UNL     1      13.627  11.508  36.692  0.00  0.00    +0.000 NA
ATOM      4  C   UNL     1      12.876  11.142  37.744  0.00  0.00    +0.000 A 
ATOM      5  C   UNL     1      11.381  11.280  37.710  0.00  0.00    +0.000 C 
ATOM      6  C   UNL     1      13.531  10.640  38.847  0.00  0.00    +0.000 A 
ATOM      7  C   UNL     1      14.917  10.527  38.844  0.00  0.00    +0.000 A 
ATOM      8  C   UNL     1      15.650   9.982  40.033  0.00  0.00    +0.000 C 
ATOM      9  C   UNL     1      15.668  10.907  37.751  0.00  0.00    +0.000 A 
ENDROOT
BRANCH   1  14
ATOM     10  C   UNL     1      13.479  13.772  30.647  0.00  0.00    +0.000 C 
ATOM     11  C   UNL     1      14.053  13.274  31.932  0.00  0.00    +0.000 A 
ATOM     12  C   UNL     1      14.895  12.172  31.952  0.00  0.00    +0.000 A 
ATOM     13  C   UNL     1      15.417  11.725  33.149  0.00  0.00    +0.000 A 
ATOM     14  C   UNL     1      15.138  12.330  34.356  0.00  0.00    +0.000 A 
ATOM     15  C   UNL     1      14.300  13.426  34.328  0.00  0.00    +0.000 A 
ATOM     16  C   UNL     1      13.779  13.874  33.133  0.00  0.00    +0.000 A 
ENDBRANCH   1  14
BRANCH   9  17
ATOM     17  C   UNL     1      17.123  10.780  37.768  0.00  0.00    +0.000 C 
ATOM     18  N   UNL     1      17.761   9.565  37.411  0.00  0.00    +0.000 NA
ATOM     19  O   UNL     1      17.876  11.734  38.095  0.00  0.00    +0.000 OA
ENDBRANCH   9  17
TORSDOF 2
ENDMDL
MODEL 2
REMARK VINA RESULT:      -6.4      3.051      4.891
REMARK  Name = 
REMARK  2 active torsions:
REMARK  status: ('A' for Active; 'I' for Inactive)
REMARK    1  A    between atoms: C_5  and  N_6
REMARK    2  A    between atoms: C_14  and  C_15
REMARK                            x       y       z     vdW  Elec       q    Type
REMARK                         _______ _______ _______ _____ _____    ______ ____
ROOT
ATOM      1  N   UNL     1      17.576   9.662  37.477  0.00  0.00    +0.000 NA
ATOM      2  C   UNL     1      18.528  10.260  38.332  0.00  0.00    +0.000 A 
ATOM      3  N   UNL     1      19.129  11.429  37.993  0.00  0.00    +0.000 NA
ATOM      4  C   UNL     1      20.040  12.046  38.764  0.00  0.00    +0.000 A 
ATOM      5  C   UNL     1      20.669  13.339  38.333  0.00  0.00    +0.000 C 
ATOM      6  C   UNL     1      20.370  11.444  39.959  0.00  0.00    +0.000 A 
ATOM      7  C   UNL     1      19.768  10.246  40.327  0.00  0.00    +0.000 A 
ATOM      8  C   UNL     1      20.112   9.575  41.622  0.00  0.00    +0.000 C 
ATOM      9  C   UNL     1      18.834   9.632  39.519  0.00  0.00    +0.000 A 
ENDROOT
BRANCH   1  14
ATOM     10  C   UNL     1      16.092  11.709  32.349  0.00  0.00    +0.000 C 
ATOM     11  C   UNL     1      16.466  11.187  33.696  0.00  0.00    +0.000 A 
ATOM     12  C   UNL     1      17.451  10.221  33.834  0.00  0.00    +0.000 A 
ATOM     13  C   UNL     1      17.784   9.749  35.087  0.00  0.00    +0.000 A 
ATOM     14  C   UNL     1      17.173  10.198  36.239  0.00  0.00    +0.000 A 
ATOM     15  C   UNL     1      16.194  11.159  36.095  0.00  0.00    +0.000 A 
ATOM     16  C   UNL     1      15.861  11.631  34.843  0.00  0.00    +0.000 A 
ENDBRANCH   1  14
BRANCH   9  17
ATOM     17  C   UNL     1      18.213   8.374  39.923  0.00  0.00    +0.000 C 
ATOM     18  N   UNL     1      17.004   8.353  40.665  0.00  0.00    +0.000 NA
ATOM     19  O   UNL     1      18.713   7.255  39.635  0.00  0.00    +0.000 OA
ENDBRANCH   9  17
TORSDOF 2
ENDMDL
MODEL 3
REMARK VINA RESULT:      -6.1      3.787      6.030
REMARK  Name = 
REMARK  2 active torsions:
REMARK  status: ('A' for Active; 'I' for Inactive)
REMARK    1  A    between atoms: C_5  and  N_6
REMARK    2  A    between atoms: C_14  and  C_15
REMARK                            x       y       z     vdW  Elec       q    Type
REMARK                         _______ _______ _______ _____ _____    ______ ____
ROOT
ATOM      1  N   UNL     1      18.832  11.139  37.479  0.00  0.00    +0.000 NA
ATOM      2  C   UNL     1      19.807  12.006  38.020  0.00  0.00    +0.000 A 
ATOM      3  N   UNL     1      19.486  13.278  38.371  0.00  0.00    +0.000 NA
ATOM      4  C   UNL     1      20.369  14.148  38.889  0.00  0.00    +0.000 A 
ATOM      5  C   UNL     1      19.953  15.543  39.258  0.00  0.00    +0.000 C 
ATOM      6  C   UNL     1      21.663  13.709  39.067  0.00  0.00    +0.000 A 
ATOM      7  C   UNL     1      22.014  12.411  38.714  0.00  0.00    +0.000 A 
ATOM      8  C   UNL     1      23.415  11.913  38.900  0.00  0.00    +0.000 C 
ATOM      9  C   UNL     1      21.090  11.535  38.184  0.00  0.00    +0.000 A 
ENDROOT
BRANCH   1  14
ATOM     10  C   UNL     1      13.309  12.425  36.747  0.00  0.00    +0.000 C 
ATOM     11  C   UNL     1      14.757  12.103  36.924  0.00  0.00    +0.000 A 
ATOM     12  C   UNL     1      15.162  11.146  37.841  0.00  0.00    +0.000 A 
ATOM     13  C   UNL     1      16.504  10.861  37.991  0.00  0.00    +0.000 A 
ATOM     14  C   UNL     1      17.487  11.493  37.260  0.00  0.00    +0.000 A 
ATOM     15  C   UNL     1      17.076  12.445  36.350  0.00  0.00    +0.000 A 
ATOM     16  C   UNL     1      15.736  12.730  36.199  0.00  0.00    +0.000 A 
ENDBRANCH   1  14
BRANCH   9  17
ATOM     17  C   UNL     1      21.479  10.175  37.820  0.00  0.00    +0.000 C 
ATOM     18  N   UNL     1      21.918   9.861  36.508  0.00  0.00    +0.000 NA
ATOM     19  O   UNL     1      21.446   9.224  38.643  0.00  0.00    +0.000 OA
ENDBRANCH   9  17
TORSDOF 2
ENDMDL
MODEL 4
REMARK VINA RESULT:      -5.9     19.532     22.050
REMARK  Name = 
REMARK  2 active torsions:
REMARK  status: ('A' for Active; 'I' for Inactive)
REMARK    1  A    between atoms: C_5  and  N_6
REMARK    2  A    between atoms: C_14  and  C_15
REMARK                            x       y       z     vdW  Elec       q    Type
REMARK                         _______ _______ _______ _____ _____    ______ ____
ROOT
ATOM      1  N   UNL     1      24.037   3.313  17.203  0.00  0.00    +0.000 NA
ATOM      2  C   UNL     1      22.699   3.335  17.652  0.00  0.00    +0.000 A 
ATOM      3  N   UNL     1      22.266   4.305  18.498  0.00  0.00    +0.000 NA
ATOM      4  C   UNL     1      21.006   4.379  18.959  0.00  0.00    +0.000 A 
ATOM      5  C   UNL     1      20.588   5.477  19.894  0.00  0.00    +0.000 C 
ATOM      6  C   UNL     1      20.120   3.410  18.540  0.00  0.00    +0.000 A 
ATOM      7  C   UNL     1      20.541   2.407  17.674  0.00  0.00    +0.000 A 
ATOM      8  C   UNL     1      19.594   1.344  17.206  0.00  0.00    +0.000 C 
ATOM      9  C   UNL     1      21.840   2.352  17.213  0.00  0.00    +0.000 A 
ENDROOT
BRANCH   1  14
ATOM     10  C   UNL     1      27.973   7.250  18.506  0.00  0.00    +0.000 C 
ATOM     11  C   UNL     1      26.949   6.213  18.184  0.00  0.00    +0.000 A 
ATOM     12  C   UNL     1      26.251   6.255  16.987  0.00  0.00    +0.000 A 
ATOM     13  C   UNL     1      25.307   5.288  16.705  0.00  0.00    +0.000 A 
ATOM     14  C   UNL     1      25.014   4.257  17.572  0.00  0.00    +0.000 A 
ATOM     15  C   UNL     1      25.713   4.221  18.761  0.00  0.00    +0.000 A 
ATOM     16  C   UNL     1      26.656   5.187  19.043  0.00  0.00    +0.000 A 
ENDBRANCH   1  14
BRANCH   9  17
ATOM     17  C   UNL     1      22.262   1.290  16.304  0.00  0.00    +0.000 C 
ATOM     18  N   UNL     1      22.777   0.062  16.794  0.00  0.00    +0.000 NA
ATOM     19  O   UNL     1      22.190   1.408  15.053  0.00  0.00    +0.000 OA
ENDBRANCH   9  17
TORSDOF 2
ENDMDL
MODEL 5
REMARK VINA RESULT:      -5.9     23.038     24.808
REMARK  Name = 
REMARK  2 active torsions:
REMARK  status: ('A' for Active; 'I' for Inactive)
REMARK    1  A    between atoms: C_5  and  N_6
REMARK    2  A    between atoms: C_14  and  C_15
REMARK                            x       y       z     vdW  Elec       q    Type
REMARK                         _______ _______ _______ _____ _____    ______ ____
ROOT
ATOM      1  N   UNL     1      33.667  -4.737  33.738  0.00  0.00    +0.000 NA
ATOM      2  C   UNL     1      33.711  -3.394  34.173  0.00  0.00    +0.000 A 
ATOM      3  N   UNL     1      33.905  -2.383  33.288  0.00  0.00    +0.000 NA
ATOM      4  C   UNL     1      33.956  -1.087  33.642  0.00  0.00    +0.000 A 
ATOM      5  C   UNL     1      34.173  -0.014  32.615  0.00  0.00    +0.000 C 
ATOM      6  C   UNL     1      33.803  -0.789  34.978  0.00  0.00    +0.000 A 
ATOM      7  C   UNL     1      33.604  -1.808  35.903  0.00  0.00    +0.000 A 
ATOM      8  C   UNL     1      33.435  -1.505  37.361  0.00  0.00    +0.000 C 
ATOM      9  C   UNL     1      33.554  -3.131  35.516  0.00  0.00    +0.000 A 
ENDROOT
BRANCH   1  14
ATOM     10  C   UNL     1      34.036  -6.336  28.261  0.00  0.00    +0.000 C 
ATOM     11  C   UNL     1      33.959  -5.923  29.693  0.00  0.00    +0.000 A 
ATOM     12  C   UNL     1      32.769  -5.461  30.235  0.00  0.00    +0.000 A 
ATOM     13  C   UNL     1      32.717  -5.084  31.561  0.00  0.00    +0.000 A 
ATOM     14  C   UNL     1      33.812  -5.142  32.397  0.00  0.00    +0.000 A 
ATOM     15  C   UNL     1      34.992  -5.602  31.851  0.00  0.00    +0.000 A 
ATOM     16  C   UNL     1      35.046  -5.980  30.527  0.00  0.00    +0.000 A 
ENDBRANCH   1  14
BRANCH   9  17
ATOM     17  C   UNL     1      33.345  -4.187  36.503  0.00  0.00    +0.000 C 
ATOM     18  N   UNL     1      34.435  -4.781  37.188  0.00  0.00    +0.000 NA
ATOM     19  O   UNL     1      32.199  -4.617  36.793  0.00  0.00    +0.000 OA
ENDBRANCH   9  17
TORSDOF 2
ENDMDL
MODEL 6
REMARK VINA RESULT:      -5.9     22.487     23.765
REMARK  Name = 
REMARK  2 active torsions:
REMARK  status: ('A' for Active; 'I' for Inactive)
REMARK    1  A    between atoms: C_5  and  N_6
REMARK    2  A    between atoms: C_14  and  C_15
REMARK                            x       y       z     vdW  Elec       q    Type
REMARK                         _______ _______ _______ _____ _____    ______ ____
ROOT
ATOM      1  N   UNL     1      21.329  -7.541  25.014  0.00  0.00    +0.000 NA
ATOM      2  C   UNL     1      20.961  -8.377  26.091  0.00  0.00    +0.000 A 
ATOM      3  N   UNL     1      21.828  -9.297  26.585  0.00  0.00    +0.000 NA
ATOM      4  C   UNL     1      21.535 -10.119  27.606  0.00  0.00    +0.000 A 
ATOM      5  C   UNL     1      22.539 -11.117  28.107  0.00  0.00    +0.000 C 
ATOM      6  C   UNL     1      20.283 -10.007  28.170  0.00  0.00    +0.000 A 
ATOM      7  C   UNL     1      19.378  -9.072  27.681  0.00  0.00    +0.000 A 
ATOM      8  C   UNL     1      18.011  -8.933  28.280  0.00  0.00    +0.000 C 
ATOM      9  C   UNL     1      19.702  -8.238  26.632  0.00  0.00    +0.000 A 
ENDROOT
BRANCH   1  14
ATOM     10  C   UNL     1      26.470  -7.497  22.510  0.00  0.00    +0.000 C 
ATOM     11  C   UNL     1      25.123  -7.526  23.154  0.00  0.00    +0.000 A 
ATOM     12  C   UNL     1      24.726  -6.512  24.011  0.00  0.00    +0.000 A 
ATOM     13  C   UNL     1      23.478  -6.555  24.598  0.00  0.00    +0.000 A 
ATOM     14  C   UNL     1      22.582  -7.579  24.373  0.00  0.00    +0.000 A 
ATOM     15  C   UNL     1      22.985  -8.585  23.518  0.00  0.00    +0.000 A 
ATOM     16  C   UNL     1      24.231  -8.542  22.931  0.00  0.00    +0.000 A 
ENDBRANCH   1  14
BRANCH   9  17
ATOM     17  C   UNL     1      18.737  -7.262  26.132  0.00  0.00    +0.000 C 
ATOM     18  N   UNL     1      18.787  -5.903  26.534  0.00  0.00    +0.000 NA
ATOM     19  O   UNL     1      17.823  -7.575  25.325  0.00  0.00    +0.000 OA
ENDBRANCH   9  17
TORSDOF 2
ENDMDL
MODEL 7
REMARK VINA RESULT:      -5.8     20.278     21.568
REMARK  Name = 
REMARK  2 active torsions:
REMARK  status: ('A' for Active; 'I' for Inactive)
REMARK    1  A    between atoms: C_5  and  N_6
REMARK    2  A    between atoms: C_14  and  C_15
REMARK                            x       y       z     vdW  Elec       q    Type
REMARK                         _______ _______ _______ _____ _____    ______ ____
ROOT
ATOM      1  N   UNL     1      34.124   3.140  35.049  0.00  0.00    +0.000 NA
ATOM      2  C   UNL     1      33.963   2.194  36.086  0.00  0.00    +0.000 A 
ATOM      3  N   UNL     1      34.157   2.546  37.383  0.00  0.00    +0.000 NA
ATOM      4  C   UNL     1      34.019   1.692  38.411  0.00  0.00    +0.000 A 
ATOM      5  C   UNL     1      34.248   2.141  39.825  0.00  0.00    +0.000 C 
ATOM      6  C   UNL     1      33.661   0.395  38.114  0.00  0.00    +0.000 A 
ATOM      7  C   UNL     1      33.458   0.012  36.792  0.00  0.00    +0.000 A 
ATOM      8  C   UNL     1      33.068  -1.393  36.447  0.00  0.00    +0.000 C 
ATOM      9  C   UNL     1      33.604   0.907  35.754  0.00  0.00    +0.000 A 
ENDROOT
BRANCH   1  14
ATOM     10  C   UNL     1      35.810   8.541  35.871  0.00  0.00    +0.000 C 
ATOM     11  C   UNL     1      35.350   7.137  35.656  0.00  0.00    +0.000 A 
ATOM     12  C   UNL     1      36.265   6.103  35.538  0.00  0.00    +0.000 A 
ATOM     13  C   UNL     1      35.822   4.810  35.340  0.00  0.00    +0.000 A 
ATOM     14  C   UNL     1      34.485   4.485  35.251  0.00  0.00    +0.000 A 
ATOM     15  C   UNL     1      33.581   5.520  35.371  0.00  0.00    +0.000 A 
ATOM     16  C   UNL     1      34.022   6.811  35.569  0.00  0.00    +0.000 A 
ENDBRANCH   1  14
BRANCH   9  17
ATOM     17  C   UNL     1      33.386   0.485  34.372  0.00  0.00    +0.000 C 
ATOM     18  N   UNL     1      34.424  -0.111  33.612  0.00  0.00    +0.000 NA
ATOM     19  O   UNL     1      32.278   0.626  33.794  0.00  0.00    +0.000 OA
ENDBRANCH   9  17
TORSDOF 2
ENDMDL
MODEL 8
REMARK VINA RESULT:      -5.8     18.303     19.153
REMARK  Name = 
REMARK  2 active torsions:
REMARK  status: ('A' for Active; 'I' for Inactive)
REMARK    1  A    between atoms: C_5  and  N_6
REMARK    2  A    between atoms: C_14  and  C_15
REMARK                            x       y       z     vdW  Elec       q    Type
REMARK                         _______ _______ _______ _____ _____    ______ ____
ROOT
ATOM      1  N   UNL     1      24.362  25.460  27.754  0.00  0.00    +0.000 NA
ATOM      2  C   UNL     1      25.339  24.561  27.272  0.00  0.00    +0.000 A 
ATOM      3  N   UNL     1      25.376  24.214  25.959  0.00  0.00    +0.000 NA
ATOM      4  C   UNL     1      26.280  23.364  25.443  0.00  0.00    +0.000 A 
ATOM      5  C   UNL     1      26.269  23.020  23.982  0.00  0.00    +0.000 C 
ATOM      6  C   UNL     1      27.210  22.826  26.306  0.00  0.00    +0.000 A 
ATOM      7  C   UNL     1      27.190  23.167  27.654  0.00  0.00    +0.000 A 
ATOM      8  C   UNL     1      28.192  22.593  28.609  0.00  0.00    +0.000 C 
ATOM      9  C   UNL     1      26.253  24.042  28.161  0.00  0.00    +0.000 A 
ENDROOT
BRANCH   1  14
ATOM     10  C   UNL     1      20.190  27.846  24.657  0.00  0.00    +0.000 C 
ATOM     11  C   UNL     1      21.293  27.228  25.451  0.00  0.00    +0.000 A 
ATOM     12  C   UNL     1      21.035  26.629  26.674  0.00  0.00    +0.000 A 
ATOM     13  C   UNL     1      22.067  26.063  27.395  0.00  0.00    +0.000 A 
ATOM     14  C   UNL     1      23.373  26.062  26.953  0.00  0.00    +0.000 A 
ATOM     15  C   UNL     1      23.621  26.659  25.735  0.00  0.00    +0.000 A 
ATOM     16  C   UNL     1      22.592  27.225  25.013  0.00  0.00    +0.000 A 
ENDBRANCH   1  14
BRANCH   9  17
ATOM     17  C   UNL     1      26.249  24.386  29.581  0.00  0.00    +0.000 C 
ATOM     18  N   UNL     1      26.905  25.550  30.058  0.00  0.00    +0.000 NA
ATOM     19  O   UNL     1      25.668  23.677  30.442  0.00  0.00    +0.000 OA
ENDBRANCH   9  17
TORSDOF 2
ENDMDL
MODEL 9
REMARK VINA RESULT:      -5.7     20.548     22.727
REMARK  Name = 
REMARK  2 active torsions:
REMARK  status: ('A' for Active; 'I' for Inactive)
REMARK    1  A    between atoms: C_5  and  N_6
REMARK    2  A    between atoms: C_14  and  C_15
REMARK                            x       y       z     vdW  Elec       q    Type
REMARK                         _______ _______ _______ _____ _____    ______ ____
ROOT
ATOM      1  N   UNL     1      27.796  24.941  23.556  0.00  0.00    +0.000 NA
ATOM      2  C   UNL     1      28.550  24.173  24.470  0.00  0.00    +0.000 A 
ATOM      3  N   UNL     1      29.906  24.140  24.397  0.00  0.00    +0.000 NA
ATOM      4  C   UNL     1      30.676  23.428  25.237  0.00  0.00    +0.000 A 
ATOM      5  C   UNL     1      32.172  23.433  25.105  0.00  0.00    +0.000 C 
ATOM      6  C   UNL     1      30.039  22.700  26.218  0.00  0.00    +0.000 A 
ATOM      7  C   UNL     1      28.652  22.718  26.311  0.00  0.00    +0.000 A 
ATOM      8  C   UNL     1      27.939  21.933  27.370  0.00  0.00    +0.000 C 
ATOM      9  C   UNL     1      27.882  23.457  25.438  0.00  0.00    +0.000 A 
ENDROOT
BRANCH   1  14
ATOM     10  C   UNL     1      30.106  27.903  19.246  0.00  0.00    +0.000 C 
ATOM     11  C   UNL     1      29.499  27.148  20.381  0.00  0.00    +0.000 A 
ATOM     12  C   UNL     1      29.430  25.763  20.353  0.00  0.00    +0.000 A 
ATOM     13  C   UNL     1      28.865  25.080  21.412  0.00  0.00    +0.000 A 
ATOM     14  C   UNL     1      28.353  25.717  22.522  0.00  0.00    +0.000 A 
ATOM     15  C   UNL     1      28.426  27.095  22.542  0.00  0.00    +0.000 A 
ATOM     16  C   UNL     1      28.990  27.778  21.486  0.00  0.00    +0.000 A 
ENDBRANCH   1  14
BRANCH   9  17
ATOM     17  C   UNL     1      26.426  23.462  25.552  0.00  0.00    +0.000 C 
ATOM     18  N   UNL     1      25.759  24.357  26.428  0.00  0.00    +0.000 NA
ATOM     19  O   UNL     1      25.697  22.683  24.885  0.00  0.00    +0.000 OA
ENDBRANCH   9  17
TORSDOF 2
ENDMDL
MODEL 10
REMARK VINA RESULT:      -5.7      4.586      7.737
REMARK  Name = 
REMARK  2 active torsions:
REMARK  status: ('A' for Active; 'I' for Inactive)
REMARK    1  A    between atoms: C_5  and  N_6
REMARK    2  A    between atoms: C_14  and  C_15
REMARK                            x       y       z     vdW  Elec       q    Type
REMARK                         _______ _______ _______ _____ _____    ______ ____
ROOT
ATOM      1  N   UNL     1      20.476  10.729  37.227  0.00  0.00    +0.000 NA
ATOM      2  C   UNL     1      19.583  10.176  38.170  0.00  0.00    +0.000 A 
ATOM      3  N   UNL     1      20.029   9.339  39.143  0.00  0.00    +0.000 NA
ATOM      4  C   UNL     1      19.229   8.783  40.067  0.00  0.00    +0.000 A 
ATOM      5  C   UNL     1      19.784   7.865  41.118  0.00  0.00    +0.000 C 
ATOM      6  C   UNL     1      17.886   9.088  40.009  0.00  0.00    +0.000 A 
ATOM      7  C   UNL     1      17.406   9.942  39.022  0.00  0.00    +0.000 A 
ATOM      8  C   UNL     1      15.950  10.287  38.942  0.00  0.00    +0.000 C 
ATOM      9  C   UNL     1      18.248  10.502  38.084  0.00  0.00    +0.000 A 
ENDROOT
BRANCH   1  14
ATOM     10  C   UNL     1      26.133   9.897  37.260  0.00  0.00    +0.000 C 
ATOM     11  C   UNL     1      24.653  10.097  37.240  0.00  0.00    +0.000 A 
ATOM     12  C   UNL     1      24.073  11.157  37.920  0.00  0.00    +0.000 A 
ATOM     13  C   UNL     1      22.703  11.327  37.890  0.00  0.00    +0.000 A 
ATOM     14  C   UNL     1      21.861  10.479  37.203  0.00  0.00    +0.000 A 
ATOM     15  C   UNL     1      22.446   9.427  36.529  0.00  0.00    +0.000 A 
ATOM     16  C   UNL     1      23.814   9.256  36.557  0.00  0.00    +0.000 A 
ENDBRANCH   1  14
BRANCH   9  17
ATOM     17  C   UNL     1      17.723  11.396  37.055  0.00  0.00    +0.000 C 
ATOM     18  N   UNL     1      17.236  10.894  35.821  0.00  0.00    +0.000 NA
ATOM     19  O   UNL     1      17.676  12.644  37.210  0.00  0.00    +0.000 OA
ENDBRANCH   9  17
TORSDOF 2
ENDMDL
