MODEL 1
REMARK VINA RESULT:      -7.2      0.000      0.000
REMARK  Name = 
REMARK  3 active torsions:
REMARK  status: ('A' for Active; 'I' for Inactive)
REMARK    1  A    between atoms: O_2  and  C_3
REMARK    2  A    between atoms: C_6  and  C_7
REMARK    3  A    between atoms: C_19  and  O_20
REMARK                            x       y       z     vdW  Elec       q    Type
REMARK                         _______ _______ _______ _____ _____    ______ ____
ROOT
ATOM      1  C   UNL     1      15.613  11.518  36.004  0.00  0.00    +0.000 A 
ATOM      2  C   UNL     1      15.895  11.187  34.695  0.00  0.00    +0.000 A 
ATOM      3  C   UNL     1      15.182  12.077  33.894  0.00  0.00    +0.000 A 
ATOM      4  C   UNL     1      15.077  12.223  32.529  0.00  0.00    +0.000 A 
ATOM      5  C   UNL     1      14.296  13.196  31.932  0.00  0.00    +0.000 A 
ATOM      6  C   UNL     1      14.199  13.334  30.445  0.00  0.00    +0.000 C 
ATOM      7  N   UNL     1      13.621  14.018  32.760  0.00  0.00    +0.000 NA
ATOM      8  C   UNL     1      13.721  13.878  34.095  0.00  0.00    +0.000 A 
ATOM      9  O   UNL     1      13.052  14.695  34.792  0.00  0.00    +0.000 OA
ATOM     10  N   UNL     1      14.485  12.927  34.672  0.00  0.00    +0.000 N 
ATOM     11  C   UNL     1      14.745  12.591  35.941  0.00  0.00    +0.000 A 
ENDROOT
BRANCH   1  15
ATOM     12  C   UNL     1      17.033   9.711  39.532  0.00  0.00    +0.000 A 
ATOM     13  C   UNL     1      15.756  10.250  39.508  0.00  0.00    +0.000 A 
ATOM     14  C   UNL     1      15.312  10.831  38.358  0.00  0.00    +0.000 A 
ATOM     15  C   UNL     1      16.116  10.883  37.239  0.00  0.00    +0.000 A 
ATOM     16  C   UNL     1      17.363  10.342  37.302  0.00  0.00    +0.000 A 
ATOM     17  C   UNL     1      17.865   9.741  38.438  0.00  0.00    +0.000 A 
BRANCH  12  19
ATOM     18  C   UNL     1      16.893   9.419  41.961  0.00  0.00    +0.000 C 
ATOM     19  O   UNL     1      17.455   9.126  40.717  0.00  0.00    +0.000 OA
ENDBRANCH  12  19
BRANCH  17  20
ATOM     20  O   UNL     1      19.145   9.190  38.490  0.00  0.00    +0.000 OA
ATOM     21  C   UNL     1      20.279   9.826  37.980  0.00  0.00    +0.000 C 
ENDBRANCH  17  20
ENDBRANCH   1  15
TORSDOF 3
ENDMDL
MODEL 2
REMARK VINA RESULT:      -7.0      1.930      2.237
REMARK  Name = 
REMARK  3 active torsions:
REMARK  status: ('A' for Active; 'I' for Inactive)
REMARK    1  A    between atoms: O_2  and  C_3
REMARK    2  A    between atoms: C_6  and  C_7
REMARK    3  A    between atoms: C_19  and  O_20
REMARK                            x       y       z     vdW  Elec       q    Type
REMARK                         _______ _______ _______ _____ _____    ______ ____
ROOT
ATOM      1  C   UNL     1      16.368  11.096  35.482  0.00  0.00    +0.000 A 
ATOM      2  C   UNL     1      15.479  12.124  35.249  0.00  0.00    +0.000 A 
ATOM      3  C   UNL     1      15.238  12.143  33.876  0.00  0.00    +0.000 A 
ATOM      4  C   UNL     1      14.447  12.940  33.080  0.00  0.00    +0.000 A 
ATOM      5  C   UNL     1      14.354  12.781  31.709  0.00  0.00    +0.000 A 
ATOM      6  C   UNL     1      13.486  13.661  30.865  0.00  0.00    +0.000 C 
ATOM      7  N   UNL     1      15.087  11.789  31.166  0.00  0.00    +0.000 NA
ATOM      8  C   UNL     1      15.862  11.007  31.942  0.00  0.00    +0.000 A 
ATOM      9  O   UNL     1      16.514  10.103  31.345  0.00  0.00    +0.000 OA
ATOM     10  N   UNL     1      15.949  11.167  33.280  0.00  0.00    +0.000 N 
ATOM     11  C   UNL     1      16.629  10.537  34.245  0.00  0.00    +0.000 A 
ENDROOT
BRANCH   1  15
ATOM     12  C   UNL     1      17.994   9.842  39.158  0.00  0.00    +0.000 A 
ATOM     13  C   UNL     1      16.668  10.240  39.099  0.00  0.00    +0.000 A 
ATOM     14  C   UNL     1      16.157  10.643  37.902  0.00  0.00    +0.000 A 
ATOM     15  C   UNL     1      16.943  10.655  36.769  0.00  0.00    +0.000 A 
ATOM     16  C   UNL     1      18.241  10.257  36.867  0.00  0.00    +0.000 A 
ATOM     17  C   UNL     1      18.811   9.840  38.052  0.00  0.00    +0.000 A 
BRANCH  12  19
ATOM     18  C   UNL     1      17.664   9.117  41.476  0.00  0.00    +0.000 C 
ATOM     19  O   UNL     1      18.484   9.438  40.392  0.00  0.00    +0.000 OA
ENDBRANCH  12  19
BRANCH  17  20
ATOM     20  O   UNL     1      20.143   9.435  38.140  0.00  0.00    +0.000 OA
ATOM     21  C   UNL     1      21.178  10.031  37.419  0.00  0.00    +0.000 C 
ENDBRANCH  17  20
ENDBRANCH   1  15
TORSDOF 3
ENDMDL
MODEL 3
REMARK VINA RESULT:      -6.9      2.106      2.990
REMARK  Name = 
REMARK  3 active torsions:
REMARK  status: ('A' for Active; 'I' for Inactive)
REMARK    1  A    between atoms: O_2  and  C_3
REMARK    2  A    between atoms: C_6  and  C_7
REMARK    3  A    between atoms: C_19  and  O_20
REMARK                            x       y       z     vdW  Elec       q    Type
REMARK                         _______ _______ _______ _____ _____    ______ ____
ROOT
ATOM      1  C   UNL     1      16.655  10.818  35.755  0.00  0.00    +0.000 A 
ATOM      2  C   UNL     1      15.748  11.849  35.628  0.00  0.00    +0.000 A 
ATOM      3  C   UNL     1      15.460  11.965  34.269  0.00  0.00    +0.000 A 
ATOM      4  C   UNL     1      14.634  12.807  33.559  0.00  0.00    +0.000 A 
ATOM      5  C   UNL     1      14.495  12.747  32.184  0.00  0.00    +0.000 A 
ATOM      6  C   UNL     1      13.590  13.675  31.437  0.00  0.00    +0.000 C 
ATOM      7  N   UNL     1      15.219  11.805  31.547  0.00  0.00    +0.000 NA
ATOM      8  C   UNL     1      16.028  10.979  32.237  0.00  0.00    +0.000 A 
ATOM      9  O   UNL     1      16.667  10.128  31.554  0.00  0.00    +0.000 OA
ATOM     10  N   UNL     1      16.160  11.043  33.579  0.00  0.00    +0.000 N 
ATOM     11  C   UNL     1      16.878  10.353  34.473  0.00  0.00    +0.000 A 
ENDROOT
BRANCH   1  15
ATOM     12  C   UNL     1      18.446   9.316  39.257  0.00  0.00    +0.000 A 
ATOM     13  C   UNL     1      19.136   9.252  38.057  0.00  0.00    +0.000 A 
ATOM     14  C   UNL     1      18.542   9.742  36.933  0.00  0.00    +0.000 A 
ATOM     15  C   UNL     1      17.279  10.293  36.986  0.00  0.00    +0.000 A 
ATOM     16  C   UNL     1      16.634  10.339  38.184  0.00  0.00    +0.000 A 
ATOM     17  C   UNL     1      17.186   9.858  39.353  0.00  0.00    +0.000 A 
BRANCH  12  19
ATOM     18  C   UNL     1      19.091   7.450  40.709  0.00  0.00    +0.000 C 
ATOM     19  O   UNL     1      19.077   8.808  40.383  0.00  0.00    +0.000 OA
ENDBRANCH  12  19
BRANCH  17  20
ATOM     20  O   UNL     1      16.514   9.910  40.574  0.00  0.00    +0.000 OA
ATOM     21  C   UNL     1      15.609   8.935  40.998  0.00  0.00    +0.000 C 
ENDBRANCH  17  20
ENDBRANCH   1  15
TORSDOF 3
ENDMDL
MODEL 4
REMARK VINA RESULT:      -6.7     20.085     21.902
REMARK  Name = 
REMARK  3 active torsions:
REMARK  status: ('A' for Active; 'I' for Inactive)
REMARK    1  A    between atoms: O_2  and  C_3
REMARK    2  A    between atoms: C_6  and  C_7
REMARK    3  A    between atoms: C_19  and  O_20
REMARK                            x       y       z     vdW  Elec       q    Type
REMARK                         _______ _______ _______ _____ _____    ______ ____
ROOT
ATOM      1  C   UNL     1      33.270  -0.429  34.482  0.00  0.00    +0.000 A 
ATOM      2  C   UNL     1      33.511   0.289  35.635  0.00  0.00    +0.000 A 
ATOM      3  C   UNL     1      33.707   1.614  35.249  0.00  0.00    +0.000 A 
ATOM      4  C   UNL     1      33.981   2.761  35.959  0.00  0.00    +0.000 A 
ATOM      5  C   UNL     1      34.141   3.999  35.362  0.00  0.00    +0.000 A 
ATOM      6  C   UNL     1      34.438   5.231  36.157  0.00  0.00    +0.000 C 
ATOM      7  N   UNL     1      34.017   4.041  34.021  0.00  0.00    +0.000 NA
ATOM      8  C   UNL     1      33.749   2.921  33.322  0.00  0.00    +0.000 A 
ATOM      9  O   UNL     1      33.650   3.057  32.069  0.00  0.00    +0.000 OA
ATOM     10  N   UNL     1      33.594   1.716  33.910  0.00  0.00    +0.000 N 
ATOM     11  C   UNL     1      33.330   0.488  33.449  0.00  0.00    +0.000 A 
ENDROOT
BRANCH   1  15
ATOM     12  C   UNL     1      32.488  -4.548  34.095  0.00  0.00    +0.000 A 
ATOM     13  C   UNL     1      31.846  -3.822  35.086  0.00  0.00    +0.000 A 
ATOM     14  C   UNL     1      32.111  -2.490  35.198  0.00  0.00    +0.000 A 
ATOM     15  C   UNL     1      32.999  -1.874  34.342  0.00  0.00    +0.000 A 
ATOM     16  C   UNL     1      33.609  -2.620  33.381  0.00  0.00    +0.000 A 
ATOM     17  C   UNL     1      33.380  -3.971  33.222  0.00  0.00    +0.000 A 
BRANCH  12  19
ATOM     18  C   UNL     1      30.970  -6.397  33.562  0.00  0.00    +0.000 C 
ATOM     19  O   UNL     1      32.198  -5.902  34.007  0.00  0.00    +0.000 OA
ENDBRANCH  12  19
BRANCH  17  20
ATOM     20  O   UNL     1      34.011  -4.726  32.233  0.00  0.00    +0.000 OA
ATOM     21  C   UNL     1      33.424  -5.027  31.002  0.00  0.00    +0.000 C 
ENDBRANCH  17  20
ENDBRANCH   1  15
TORSDOF 3
ENDMDL
MODEL 5
REMARK VINA RESULT:      -6.7      1.729      2.221
REMARK  Name = 
REMARK  3 active torsions:
REMARK  status: ('A' for Active; 'I' for Inactive)
REMARK    1  A    between atoms: O_2  and  C_3
REMARK    2  A    between atoms: C_6  and  C_7
REMARK    3  A    between atoms: C_19  and  O_20
REMARK                            x       y       z     vdW  Elec       q    Type
REMARK                         _______ _______ _______ _____ _____    ______ ____
ROOT
ATOM      1  C   UNL     1      17.376  10.675  35.812  0.00  0.00    +0.000 A 
ATOM      2  C   UNL     1      17.448  10.233  34.507  0.00  0.00    +0.000 A 
ATOM      3  C   UNL     1      16.488  10.945  33.790  0.00  0.00    +0.000 A 
ATOM      4  C   UNL     1      16.110  10.926  32.466  0.00  0.00    +0.000 A 
ATOM      5  C   UNL     1      15.111  11.735  31.954  0.00  0.00    +0.000 A 
ATOM      6  C   UNL     1      14.720  11.695  30.510  0.00  0.00    +0.000 C 
ATOM      7  N   UNL     1      14.503  12.564  32.825  0.00  0.00    +0.000 NA
ATOM      8  C   UNL     1      14.869  12.585  34.120  0.00  0.00    +0.000 A 
ATOM      9  O   UNL     1      14.242  13.395  34.862  0.00  0.00    +0.000 OA
ATOM     10  N   UNL     1      15.845  11.794  34.615  0.00  0.00    +0.000 N 
ATOM     11  C   UNL     1      16.379  11.632  35.831  0.00  0.00    +0.000 A 
ENDROOT
BRANCH   1  15
ATOM     12  C   UNL     1      19.654   9.436  39.129  0.00  0.00    +0.000 A 
ATOM     13  C   UNL     1      18.281   9.573  39.257  0.00  0.00    +0.000 A 
ATOM     14  C   UNL     1      17.559   9.975  38.175  0.00  0.00    +0.000 A 
ATOM     15  C   UNL     1      18.180  10.240  36.972  0.00  0.00    +0.000 A 
ATOM     16  C   UNL     1      19.530  10.093  36.885  0.00  0.00    +0.000 A 
ATOM     17  C   UNL     1      20.311   9.690  37.948  0.00  0.00    +0.000 A 
BRANCH  12  19
ATOM     18  C   UNL     1      19.892   8.060  41.143  0.00  0.00    +0.000 C 
ATOM     19  O   UNL     1      20.361   9.025  40.250  0.00  0.00    +0.000 OA
ENDBRANCH  12  19
BRANCH  17  20
ATOM     20  O   UNL     1      21.695   9.543  37.847  0.00  0.00    +0.000 OA
ATOM     21  C   UNL     1      22.446  10.039  36.780  0.00  0.00    +0.000 C 
ENDBRANCH  17  20
ENDBRANCH   1  15
TORSDOF 3
ENDMDL
MODEL 6
REMARK VINA RESULT:      -6.6      2.709      7.588
REMARK  Name = 
REMARK  3 active torsions:
REMARK  status: ('A' for Active; 'I' for Inactive)
REMARK    1  A    between atoms: O_2  and  C_3
REMARK    2  A    between atoms: C_6  and  C_7
REMARK    3  A    between atoms: C_19  and  O_20
REMARK                            x       y       z     vdW  Elec       q    Type
REMARK                         _______ _______ _______ _____ _____    ______ ____
ROOT
ATOM      1  C   UNL     1      15.966  10.886  37.426  0.00  0.00    +0.000 A 
ATOM      2  C   UNL     1      15.233  10.696  38.579  0.00  0.00    +0.000 A 
ATOM      3  C   UNL     1      16.073  10.053  39.486  0.00  0.00    +0.000 A 
ATOM      4  C   UNL     1      15.890   9.618  40.780  0.00  0.00    +0.000 A 
ATOM      5  C   UNL     1      16.881   8.990  41.513  0.00  0.00    +0.000 A 
ATOM      6  C   UNL     1      16.655   8.526  42.918  0.00  0.00    +0.000 C 
ATOM      7  N   UNL     1      18.066   8.816  40.897  0.00  0.00    +0.000 NA
ATOM      8  C   UNL     1      18.250   9.239  39.632  0.00  0.00    +0.000 A 
ATOM      9  O   UNL     1      19.395   9.033  39.137  0.00  0.00    +0.000 OA
ATOM     10  N   UNL     1      17.279   9.852  38.921  0.00  0.00    +0.000 N 
ATOM     11  C   UNL     1      17.215  10.353  37.682  0.00  0.00    +0.000 A 
ENDROOT
BRANCH   1  15
ATOM     12  C   UNL     1      14.740  12.710  33.835  0.00  0.00    +0.000 A 
ATOM     13  C   UNL     1      14.175  13.117  35.033  0.00  0.00    +0.000 A 
ATOM     14  C   UNL     1      14.583  12.516  36.186  0.00  0.00    +0.000 A 
ATOM     15  C   UNL     1      15.539  11.523  36.163  0.00  0.00    +0.000 A 
ATOM     16  C   UNL     1      16.070  11.151  34.967  0.00  0.00    +0.000 A 
ATOM     17  C   UNL     1      15.696  11.724  33.769  0.00  0.00    +0.000 A 
BRANCH  12  19
ATOM     18  C   UNL     1      13.525  14.500  32.683  0.00  0.00    +0.000 C 
ATOM     19  O   UNL     1      14.303  13.341  32.678  0.00  0.00    +0.000 OA
ENDBRANCH  12  19
BRANCH  17  20
ATOM     20  O   UNL     1      16.247  11.334  32.548  0.00  0.00    +0.000 OA
ATOM     21  C   UNL     1      15.596  10.495  31.642  0.00  0.00    +0.000 C 
ENDBRANCH  17  20
ENDBRANCH   1  15
TORSDOF 3
ENDMDL
MODEL 7
REMARK VINA RESULT:      -6.6      1.735      2.358
REMARK  Name = 
REMARK  3 active torsions:
REMARK  status: ('A' for Active; 'I' for Inactive)
REMARK    1  A    between atoms: O_2  and  C_3
REMARK    2  A    between atoms: C_6  and  C_7
REMARK    3  A    between atoms: C_19  and  O_20
REMARK                            x       y       z     vdW  Elec       q    Type
REMARK                         _______ _______ _______ _____ _____    ______ ____
ROOT
ATOM      1  C   UNL     1      17.028  10.431  37.213  0.00  0.00    +0.000 A 
ATOM      2  C   UNL     1      17.474   9.906  36.019  0.00  0.00    +0.000 A 
ATOM      3  C   UNL     1      16.749  10.535  35.008  0.00  0.00    +0.000 A 
ATOM      4  C   UNL     1      16.765  10.416  33.637  0.00  0.00    +0.000 A 
ATOM      5  C   UNL     1      15.941  11.154  32.805  0.00  0.00    +0.000 A 
ATOM      6  C   UNL     1      15.978  11.005  31.317  0.00  0.00    +0.000 C 
ATOM      7  N   UNL     1      15.099  12.018  33.405  0.00  0.00    +0.000 NA
ATOM      8  C   UNL     1      15.080  12.138  34.746  0.00  0.00    +0.000 A 
ATOM      9  O   UNL     1      14.258  12.974  35.218  0.00  0.00    +0.000 OA
ATOM     10  N   UNL     1      15.886  11.415  35.553  0.00  0.00    +0.000 N 
ATOM     11  C   UNL     1      16.054  11.353  36.879  0.00  0.00    +0.000 A 
ENDROOT
BRANCH   1  15
ATOM     12  C   UNL     1      18.283   9.491  41.121  0.00  0.00    +0.000 A 
ATOM     13  C   UNL     1      16.931   9.485  40.819  0.00  0.00    +0.000 A 
ATOM     14  C   UNL     1      16.541   9.792  39.550  0.00  0.00    +0.000 A 
ATOM     15  C   UNL     1      17.474  10.102  38.583  0.00  0.00    +0.000 A 
ATOM     16  C   UNL     1      18.793  10.097  38.917  0.00  0.00    +0.000 A 
ATOM     17  C   UNL     1      19.244   9.795  40.185  0.00  0.00    +0.000 A 
BRANCH  12  19
ATOM     18  C   UNL     1      18.553   7.888  42.955  0.00  0.00    +0.000 C 
ATOM     19  O   UNL     1      18.648   9.176  42.422  0.00  0.00    +0.000 OA
ENDBRANCH  12  19
BRANCH  17  20
ATOM     20  O   UNL     1      20.599   9.794  40.517  0.00  0.00    +0.000 OA
ATOM     21  C   UNL     1      21.475   8.762  40.174  0.00  0.00    +0.000 C 
ENDBRANCH  17  20
ENDBRANCH   1  15
TORSDOF 3
ENDMDL
MODEL 8
REMARK VINA RESULT:      -6.4     20.007     22.180
REMARK  Name = 
REMARK  3 active torsions:
REMARK  status: ('A' for Active; 'I' for Inactive)
REMARK    1  A    between atoms: O_2  and  C_3
REMARK    2  A    between atoms: C_6  and  C_7
REMARK    3  A    between atoms: C_19  and  O_20
REMARK                            x       y       z     vdW  Elec       q    Type
REMARK                         _______ _______ _______ _____ _____    ______ ____
ROOT
ATOM      1  C   UNL     1      33.257  -0.854  34.532  0.00  0.00    +0.000 A 
ATOM      2  C   UNL     1      33.184   0.187  33.631  0.00  0.00    +0.000 A 
ATOM      3  C   UNL     1      33.505   1.348  34.332  0.00  0.00    +0.000 A 
ATOM      4  C   UNL     1      33.593   2.669  33.956  0.00  0.00    +0.000 A 
ATOM      5  C   UNL     1      33.936   3.683  34.833  0.00  0.00    +0.000 A 
ATOM      6  C   UNL     1      34.025   5.112  34.398  0.00  0.00    +0.000 C 
ATOM      7  N   UNL     1      34.188   3.317  36.105  0.00  0.00    +0.000 NA
ATOM      8  C   UNL     1      34.102   2.026  36.477  0.00  0.00    +0.000 A 
ATOM      9  O   UNL     1      34.356   1.779  37.691  0.00  0.00    +0.000 OA
ATOM     10  N   UNL     1      33.767   1.041  35.617  0.00  0.00    +0.000 N 
ATOM     11  C   UNL     1      33.618  -0.283  35.738  0.00  0.00    +0.000 A 
ENDROOT
BRANCH   1  15
ATOM     12  C   UNL     1      32.541  -4.950  33.871  0.00  0.00    +0.000 A 
ATOM     13  C   UNL     1      31.927  -4.315  34.938  0.00  0.00    +0.000 A 
ATOM     14  C   UNL     1      32.170  -2.989  35.139  0.00  0.00    +0.000 A 
ATOM     15  C   UNL     1      33.009  -2.291  34.296  0.00  0.00    +0.000 A 
ATOM     16  C   UNL     1      33.593  -2.950  33.258  0.00  0.00    +0.000 A 
ATOM     17  C   UNL     1      33.385  -4.291  33.008  0.00  0.00    +0.000 A 
BRANCH  12  19
ATOM     18  C   UNL     1      31.113  -6.781  33.088  0.00  0.00    +0.000 C 
ATOM     19  O   UNL     1      32.275  -6.301  33.695  0.00  0.00    +0.000 OA
ENDBRANCH  12  19
BRANCH  17  20
ATOM     20  O   UNL     1      33.989  -4.956  31.942  0.00  0.00    +0.000 OA
ATOM     21  C   UNL     1      33.404  -5.081  30.681  0.00  0.00    +0.000 C 
ENDBRANCH  17  20
ENDBRANCH   1  15
TORSDOF 3
ENDMDL
MODEL 9
REMARK VINA RESULT:      -6.4      3.218      7.306
REMARK  Name = 
REMARK  3 active torsions:
REMARK  status: ('A' for Active; 'I' for Inactive)
REMARK    1  A    between atoms: O_2  and  C_3
REMARK    2  A    between atoms: C_6  and  C_7
REMARK    3  A    between atoms: C_19  and  O_20
REMARK                            x       y       z     vdW  Elec       q    Type
REMARK                         _______ _______ _______ _____ _____    ______ ____
ROOT
ATOM      1  C   UNL     1      17.782  10.501  37.910  0.00  0.00    +0.000 A 
ATOM      2  C   UNL     1      18.908  10.595  37.119  0.00  0.00    +0.000 A 
ATOM      3  C   UNL     1      19.960  10.049  37.852  0.00  0.00    +0.000 A 
ATOM      4  C   UNL     1      21.297   9.875  37.575  0.00  0.00    +0.000 A 
ATOM      5  C   UNL     1      22.184   9.297  38.466  0.00  0.00    +0.000 A 
ATOM      6  C   UNL     1      23.633   9.120  38.140  0.00  0.00    +0.000 C 
ATOM      7  N   UNL     1      21.675   8.898  39.648  0.00  0.00    +0.000 NA
ATOM      8  C   UNL     1      20.367   9.066  39.923  0.00  0.00    +0.000 A 
ATOM      9  O   UNL     1      19.980   8.662  41.057  0.00  0.00    +0.000 OA
ATOM     10  N   UNL     1      19.507   9.631  39.050  0.00  0.00    +0.000 N 
ATOM     11  C   UNL     1      18.197   9.903  39.085  0.00  0.00    +0.000 A 
ENDROOT
BRANCH   1  15
ATOM     12  C   UNL     1      13.851  11.734  37.040  0.00  0.00    +0.000 A 
ATOM     13  C   UNL     1      14.136  11.189  38.282  0.00  0.00    +0.000 A 
ATOM     14  C   UNL     1      15.413  10.794  38.547  0.00  0.00    +0.000 A 
ATOM     15  C   UNL     1      16.405  10.935  37.600  0.00  0.00    +0.000 A 
ATOM     16  C   UNL     1      16.086  11.476  36.392  0.00  0.00    +0.000 A 
ATOM     17  C   UNL     1      14.811  11.892  36.069  0.00  0.00    +0.000 A 
BRANCH  12  19
ATOM     18  C   UNL     1      11.432  11.373  37.192  0.00  0.00    +0.000 C 
ATOM     19  O   UNL     1      12.542  12.126  36.801  0.00  0.00    +0.000 OA
ENDBRANCH  12  19
BRANCH  17  20
ATOM     20  O   UNL     1      14.496  12.444  34.827  0.00  0.00    +0.000 OA
ATOM     21  C   UNL     1      15.080  12.028  33.629  0.00  0.00    +0.000 C 
ENDBRANCH  17  20
ENDBRANCH   1  15
TORSDOF 3
ENDMDL
MODEL 10
REMARK VINA RESULT:      -6.3      1.865      2.699
REMARK  Name = 
REMARK  3 active torsions:
REMARK  status: ('A' for Active; 'I' for Inactive)
REMARK    1  A    between atoms: O_2  and  C_3
REMARK    2  A    between atoms: C_6  and  C_7
REMARK    3  A    between atoms: C_19  and  O_20
REMARK                            x       y       z     vdW  Elec       q    Type
REMARK                         _______ _______ _______ _____ _____    ______ ____
ROOT
ATOM      1  C   UNL     1      17.484  10.764  36.439  0.00  0.00    +0.000 A 
ATOM      2  C   UNL     1      17.682  10.227  35.184  0.00  0.00    +0.000 A 
ATOM      3  C   UNL     1      16.749  10.826  34.340  0.00  0.00    +0.000 A 
ATOM      4  C   UNL     1      16.480  10.683  32.997  0.00  0.00    +0.000 A 
ATOM      5  C   UNL     1      15.487  11.393  32.346  0.00  0.00    +0.000 A 
ATOM      6  C   UNL     1      15.215  11.219  30.885  0.00  0.00    +0.000 C 
ATOM      7  N   UNL     1      14.771  12.253  33.097  0.00  0.00    +0.000 NA
ATOM      8  C   UNL     1      15.030  12.395  34.410  0.00  0.00    +0.000 A 
ATOM      9  O   UNL     1      14.307  13.225  35.034  0.00  0.00    +0.000 OA
ATOM     10  N   UNL     1      16.001  11.700  35.041  0.00  0.00    +0.000 N 
ATOM     11  C   UNL     1      16.443  11.663  36.303  0.00  0.00    +0.000 A 
ENDROOT
BRANCH   1  15
ATOM     12  C   UNL     1      19.569   9.929  40.000  0.00  0.00    +0.000 A 
ATOM     13  C   UNL     1      19.859  11.087  39.296  0.00  0.00    +0.000 A 
ATOM     14  C   UNL     1      19.176  11.342  38.145  0.00  0.00    +0.000 A 
ATOM     15  C   UNL     1      18.213  10.467  37.689  0.00  0.00    +0.000 A 
ATOM     16  C   UNL     1      17.956   9.341  38.409  0.00  0.00    +0.000 A 
ATOM     17  C   UNL     1      18.616   9.031  39.580  0.00  0.00    +0.000 A 
BRANCH  12  19
ATOM     18  C   UNL     1      20.922  10.708  41.890  0.00  0.00    +0.000 C 
ATOM     19  O   UNL     1      20.282   9.698  41.168  0.00  0.00    +0.000 OA
ENDBRANCH  12  19
BRANCH  17  20
ATOM     20  O   UNL     1      18.345   7.874  40.309  0.00  0.00    +0.000 OA
ATOM     21  C   UNL     1      17.143   7.655  40.985  0.00  0.00    +0.000 C 
ENDBRANCH  17  20
ENDBRANCH   1  15
TORSDOF 3
ENDMDL
