MODEL 1
REMARK VINA RESULT:      -7.2      0.000      0.000
REMARK  Name = 
REMARK  0 active torsions:
REMARK  status: ('A' for Active; 'I' for Inactive)
REMARK                            x       y       z     vdW  Elec       q    Type
REMARK                         _______ _______ _______ _____ _____    ______ ____
ROOT
ATOM      1  C   UNL     1      33.865   1.739  39.445  0.00  0.00    +0.000 C 
ATOM      2  C   UNL     1      33.995   2.521  38.181  0.00  0.00    +0.000 A 
ATOM      3  N   UNL     1      34.161   3.856  38.180  0.00  0.00    +0.000 NA
ATOM      4  C   UNL     1      34.277   4.552  37.019  0.00  0.00    +0.000 A 
ATOM      5  C   UNL     1      34.219   3.845  35.872  0.00  0.00    +0.000 A 
ATOM      6  C   UNL     1      34.053   2.488  35.795  0.00  0.00    +0.000 A 
ATOM      7  C   UNL     1      33.936   1.796  37.006  0.00  0.00    +0.000 A 
ATOM      8  N   UNL     1      33.794   0.506  36.716  0.00  0.00    +0.000 NA
ATOM      9  C   UNL     1      33.808   0.286  35.391  0.00  0.00    +0.000 A 
ATOM     10  C   UNL     1      33.702  -0.869  34.618  0.00  0.00    +0.000 A 
ATOM     11  C   UNL     1      33.760  -0.783  33.238  0.00  0.00    +0.000 A 
ATOM     12  C   UNL     1      33.926   0.470  32.639  0.00  0.00    +0.000 A 
ATOM     13  C   UNL     1      34.027   1.587  33.438  0.00  0.00    +0.000 A 
ATOM     14  C   UNL     1      33.971   1.528  34.813  0.00  0.00    +0.000 A 
ATOM     15  C   UNL     1      34.341   4.631  34.468  0.00  0.00    +0.000 C 
ATOM     16  O   UNL     1      33.019   4.005  33.905  0.00  0.00    +0.000 OA
ATOM     17  C   UNL     1      33.493   5.973  34.995  0.00  0.00    +0.000 C 
ATOM     18  C   UNL     1      34.569   6.656  35.801  0.00  0.00    +0.000 C 
ATOM     19  C   UNL     1      35.932   6.448  35.182  0.00  0.00    +0.000 C 
ATOM     20  C   UNL     1      34.323   8.133  35.891  0.00  0.00    +0.000 C 
ATOM     21  C   UNL     1      34.478   6.015  37.179  0.00  0.00    +0.000 C 
ENDROOT
TORSDOF 0
ENDMDL
MODEL 2
REMARK VINA RESULT:      -7.1     19.282     20.737
REMARK  Name = 
REMARK  0 active torsions:
REMARK  status: ('A' for Active; 'I' for Inactive)
REMARK                            x       y       z     vdW  Elec       q    Type
REMARK                         _______ _______ _______ _____ _____    ______ ____
ROOT
ATOM      1  C   UNL     1      20.079 -11.941  26.168  0.00  0.00    +0.000 C 
ATOM      2  C   UNL     1      20.717 -10.730  25.573  0.00  0.00    +0.000 A 
ATOM      3  N   UNL     1      21.771 -10.814  24.741  0.00  0.00    +0.000 NA
ATOM      4  C   UNL     1      22.339  -9.701  24.209  0.00  0.00    +0.000 A 
ATOM      5  C   UNL     1      21.801  -8.512  24.553  0.00  0.00    +0.000 A 
ATOM      6  C   UNL     1      20.732  -8.350  25.391  0.00  0.00    +0.000 A 
ATOM      7  C   UNL     1      20.165  -9.513  25.926  0.00  0.00    +0.000 A 
ATOM      8  N   UNL     1      19.146  -9.143  26.697  0.00  0.00    +0.000 NA
ATOM      9  C   UNL     1      18.991  -7.809  26.716  0.00  0.00    +0.000 A 
ATOM     10  C   UNL     1      18.084  -6.967  27.356  0.00  0.00    +0.000 A 
ATOM     11  C   UNL     1      18.169  -5.598  27.175  0.00  0.00    +0.000 A 
ATOM     12  C   UNL     1      19.171  -5.080  26.347  0.00  0.00    +0.000 A 
ATOM     13  C   UNL     1      20.047  -5.946  25.734  0.00  0.00    +0.000 A 
ATOM     14  C   UNL     1      19.984  -7.311  25.897  0.00  0.00    +0.000 A 
ATOM     15  C   UNL     1      22.451  -7.162  23.953  0.00  0.00    +0.000 C 
ATOM     16  O   UNL     1      22.621  -6.514  25.370  0.00  0.00    +0.000 OA
ATOM     17  C   UNL     1      24.022  -7.734  24.015  0.00  0.00    +0.000 C 
ATOM     18  C   UNL     1      24.020  -8.620  22.794  0.00  0.00    +0.000 C 
ATOM     19  C   UNL     1      23.153  -8.041  21.700  0.00  0.00    +0.000 C 
ATOM     20  C   UNL     1      25.406  -8.786  22.244  0.00  0.00    +0.000 C 
ATOM     21  C   UNL     1      23.479  -9.953  23.290  0.00  0.00    +0.000 C 
ENDROOT
TORSDOF 0
ENDMDL
MODEL 3
REMARK VINA RESULT:      -6.9     29.780     31.942
REMARK  Name = 
REMARK  0 active torsions:
REMARK  status: ('A' for Active; 'I' for Inactive)
REMARK                            x       y       z     vdW  Elec       q    Type
REMARK                         _______ _______ _______ _____ _____    ______ ____
ROOT
ATOM      1  C   UNL     1      34.856  19.757  12.102  0.00  0.00    +0.000 C 
ATOM      2  C   UNL     1      33.881  20.086  11.020  0.00  0.00    +0.000 A 
ATOM      3  N   UNL     1      34.084  19.723   9.741  0.00  0.00    +0.000 NA
ATOM      4  C   UNL     1      33.185  20.031   8.770  0.00  0.00    +0.000 A 
ATOM      5  C   UNL     1      32.085  20.716   9.146  0.00  0.00    +0.000 A 
ATOM      6  C   UNL     1      31.812  21.118  10.425  0.00  0.00    +0.000 A 
ATOM      7  C   UNL     1      32.755  20.788  11.407  0.00  0.00    +0.000 A 
ATOM      8  N   UNL     1      32.303  21.254  12.567  0.00  0.00    +0.000 NA
ATOM      9  C   UNL     1      31.120  21.875  12.431  0.00  0.00    +0.000 A 
ATOM     10  C   UNL     1      30.268  22.506  13.335  0.00  0.00    +0.000 A 
ATOM     11  C   UNL     1      29.082  23.064  12.892  0.00  0.00    +0.000 A 
ATOM     12  C   UNL     1      28.757  22.984  11.533  0.00  0.00    +0.000 A 
ATOM     13  C   UNL     1      29.626  22.352  10.672  0.00  0.00    +0.000 A 
ATOM     14  C   UNL     1      30.811  21.790  11.089  0.00  0.00    +0.000 A 
ATOM     15  C   UNL     1      30.996  21.113   8.023  0.00  0.00    +0.000 C 
ATOM     16  O   UNL     1      31.016  22.630   8.421  0.00  0.00    +0.000 OA
ATOM     17  C   UNL     1      32.134  21.401   6.832  0.00  0.00    +0.000 C 
ATOM     18  C   UNL     1      32.452  19.981   6.434  0.00  0.00    +0.000 C 
ATOM     19  C   UNL     1      31.228  19.099   6.531  0.00  0.00    +0.000 C 
ATOM     20  C   UNL     1      32.958  19.914   5.023  0.00  0.00    +0.000 C 
ATOM     21  C   UNL     1      33.534  19.544   7.411  0.00  0.00    +0.000 C 
ENDROOT
TORSDOF 0
ENDMDL
MODEL 4
REMARK VINA RESULT:      -6.8     19.341     21.557
REMARK  Name = 
REMARK  0 active torsions:
REMARK  status: ('A' for Active; 'I' for Inactive)
REMARK                            x       y       z     vdW  Elec       q    Type
REMARK                         _______ _______ _______ _____ _____    ______ ____
ROOT
ATOM      1  C   UNL     1      26.436  22.671  29.930  0.00  0.00    +0.000 C 
ATOM      2  C   UNL     1      27.912  22.655  29.712  0.00  0.00    +0.000 A 
ATOM      3  N   UNL     1      28.785  22.585  30.734  0.00  0.00    +0.000 NA
ATOM      4  C   UNL     1      30.125  22.572  30.516  0.00  0.00    +0.000 A 
ATOM      5  C   UNL     1      30.540  22.633  29.233  0.00  0.00    +0.000 A 
ATOM      6  C   UNL     1      29.712  22.705  28.145  0.00  0.00    +0.000 A 
ATOM      7  C   UNL     1      28.335  22.718  28.398  0.00  0.00    +0.000 A 
ATOM      8  N   UNL     1      27.714  22.781  27.223  0.00  0.00    +0.000 NA
ATOM      9  C   UNL     1      28.582  22.813  26.199  0.00  0.00    +0.000 A 
ATOM     10  C   UNL     1      28.419  22.873  24.816  0.00  0.00    +0.000 A 
ATOM     11  C   UNL     1      29.529  22.884  23.991  0.00  0.00    +0.000 A 
ATOM     12  C   UNL     1      30.805  22.835  24.563  0.00  0.00    +0.000 A 
ATOM     13  C   UNL     1      30.923  22.777  25.933  0.00  0.00    +0.000 A 
ATOM     14  C   UNL     1      29.835  22.764  26.776  0.00  0.00    +0.000 A 
ATOM     15  C   UNL     1      32.124  22.631  28.927  0.00  0.00    +0.000 C 
ATOM     16  O   UNL     1      32.043  23.930  28.053  0.00  0.00    +0.000 OA
ATOM     17  C   UNL     1      32.518  23.547  30.270  0.00  0.00    +0.000 C 
ATOM     18  C   UNL     1      32.430  22.486  31.338  0.00  0.00    +0.000 C 
ATOM     19  C   UNL     1      32.878  21.142  30.812  0.00  0.00    +0.000 C 
ATOM     20  C   UNL     1      33.292  22.831  32.516  0.00  0.00    +0.000 C 
ATOM     21  C   UNL     1      30.962  22.468  31.738  0.00  0.00    +0.000 C 
ENDROOT
TORSDOF 0
ENDMDL
MODEL 5
REMARK VINA RESULT:      -6.7     19.553     22.104
REMARK  Name = 
REMARK  0 active torsions:
REMARK  status: ('A' for Active; 'I' for Inactive)
REMARK                            x       y       z     vdW  Elec       q    Type
REMARK                         _______ _______ _______ _____ _____    ______ ____
ROOT
ATOM      1  C   UNL     1      25.027   4.852  12.561  0.00  0.00    +0.000 C 
ATOM      2  C   UNL     1      24.743   4.443  13.968  0.00  0.00    +0.000 A 
ATOM      3  N   UNL     1      23.768   3.569  14.275  0.00  0.00    +0.000 NA
ATOM      4  C   UNL     1      23.525   3.209  15.562  0.00  0.00    +0.000 A 
ATOM      5  C   UNL     1      24.301   3.767  16.514  0.00  0.00    +0.000 A 
ATOM      6  C   UNL     1      25.309   4.662  16.277  0.00  0.00    +0.000 A 
ATOM      7  C   UNL     1      25.540   5.016  14.942  0.00  0.00    +0.000 A 
ATOM      8  N   UNL     1      26.553   5.877  14.926  0.00  0.00    +0.000 NA
ATOM      9  C   UNL     1      27.019   6.124  16.161  0.00  0.00    +0.000 A 
ATOM     10  C   UNL     1      28.047   6.931  16.645  0.00  0.00    +0.000 A 
ATOM     11  C   UNL     1      28.305   6.979  18.004  0.00  0.00    +0.000 A 
ATOM     12  C   UNL     1      27.523   6.211  18.874  0.00  0.00    +0.000 A 
ATOM     13  C   UNL     1      26.517   5.427  18.355  0.00  0.00    +0.000 A 
ATOM     14  C   UNL     1      26.241   5.363  17.008  0.00  0.00    +0.000 A 
ATOM     15  C   UNL     1      24.040   3.377  18.058  0.00  0.00    +0.000 C 
ATOM     16  O   UNL     1      23.918   4.875  18.503  0.00  0.00    +0.000 OA
ATOM     17  C   UNL     1      22.378   3.282  17.889  0.00  0.00    +0.000 C 
ATOM     18  C   UNL     1      22.265   1.931  17.229  0.00  0.00    +0.000 C 
ATOM     19  C   UNL     1      23.328   0.984  17.735  0.00  0.00    +0.000 C 
ATOM     20  C   UNL     1      20.927   1.308  17.496  0.00  0.00    +0.000 C 
ATOM     21  C   UNL     1      22.434   2.218  15.743  0.00  0.00    +0.000 C 
ENDROOT
TORSDOF 0
ENDMDL
MODEL 6
REMARK VINA RESULT:      -6.5     29.445     31.368
REMARK  Name = 
REMARK  0 active torsions:
REMARK  status: ('A' for Active; 'I' for Inactive)
REMARK                            x       y       z     vdW  Elec       q    Type
REMARK                         _______ _______ _______ _____ _____    ______ ____
ROOT
ATOM      1  C   UNL     1      34.949  19.916  12.540  0.00  0.00    +0.000 C 
ATOM      2  C   UNL     1      33.712  20.377  11.844  0.00  0.00    +0.000 A 
ATOM      3  N   UNL     1      32.723  21.017  12.492  0.00  0.00    +0.000 NA
ATOM      4  C   UNL     1      31.604  21.430  11.841  0.00  0.00    +0.000 A 
ATOM      5  C   UNL     1      31.531  21.169  10.520  0.00  0.00    +0.000 A 
ATOM      6  C   UNL     1      32.497  20.525   9.794  0.00  0.00    +0.000 A 
ATOM      7  C   UNL     1      33.639  20.110  10.489  0.00  0.00    +0.000 A 
ATOM      8  N   UNL     1      34.448  19.521   9.613  0.00  0.00    +0.000 NA
ATOM      9  C   UNL     1      33.925  19.512   8.376  0.00  0.00    +0.000 A 
ATOM     10  C   UNL     1      34.385  19.027   7.153  0.00  0.00    +0.000 A 
ATOM     11  C   UNL     1      33.608  19.174   6.017  0.00  0.00    +0.000 A 
ATOM     12  C   UNL     1      32.366  19.811   6.117  0.00  0.00    +0.000 A 
ATOM     13  C   UNL     1      31.949  20.275   7.344  0.00  0.00    +0.000 A 
ATOM     14  C   UNL     1      32.702  20.142   8.488  0.00  0.00    +0.000 A 
ATOM     15  C   UNL     1      30.216  21.631   9.708  0.00  0.00    +0.000 C 
ATOM     16  O   UNL     1      29.971  20.198   9.122  0.00  0.00    +0.000 OA
ATOM     17  C   UNL     1      29.164  21.307  10.967  0.00  0.00    +0.000 C 
ATOM     18  C   UNL     1      29.412  22.521  11.827  0.00  0.00    +0.000 C 
ATOM     19  C   UNL     1      29.698  23.741  10.981  0.00  0.00    +0.000 C 
ATOM     20  C   UNL     1      28.223  22.826  12.689  0.00  0.00    +0.000 C 
ATOM     21  C   UNL     1      30.611  22.142  12.685  0.00  0.00    +0.000 C 
ENDROOT
TORSDOF 0
ENDMDL
MODEL 7
REMARK VINA RESULT:      -6.5     21.236     24.520
REMARK  Name = 
REMARK  0 active torsions:
REMARK  status: ('A' for Active; 'I' for Inactive)
REMARK                            x       y       z     vdW  Elec       q    Type
REMARK                         _______ _______ _______ _____ _____    ______ ____
ROOT
ATOM      1  C   UNL     1      28.051  22.167  30.651  0.00  0.00    +0.000 C 
ATOM      2  C   UNL     1      27.465  22.855  29.463  0.00  0.00    +0.000 A 
ATOM      3  N   UNL     1      27.813  22.529  28.205  0.00  0.00    +0.000 NA
ATOM      4  C   UNL     1      27.269  23.166  27.136  0.00  0.00    +0.000 A 
ATOM      5  C   UNL     1      26.368  24.137  27.393  0.00  0.00    +0.000 A 
ATOM      6  C   UNL     1      25.965  24.521  28.643  0.00  0.00    +0.000 A 
ATOM      7  C   UNL     1      26.542  23.849  29.728  0.00  0.00    +0.000 A 
ATOM      8  N   UNL     1      26.017  24.359  30.838  0.00  0.00    +0.000 NA
ATOM      9  C   UNL     1      25.127  25.328  30.572  0.00  0.00    +0.000 A 
ATOM     10  C   UNL     1      24.331  26.136  31.382  0.00  0.00    +0.000 A 
ATOM     11  C   UNL     1      23.482  27.066  30.808  0.00  0.00    +0.000 A 
ATOM     12  C   UNL     1      23.439  27.179  29.414  0.00  0.00    +0.000 A 
ATOM     13  C   UNL     1      24.241  26.363  28.649  0.00  0.00    +0.000 A 
ATOM     14  C   UNL     1      25.093  25.430  29.197  0.00  0.00    +0.000 A 
ATOM     15  C   UNL     1      25.703  24.928  26.153  0.00  0.00    +0.000 C 
ATOM     16  O   UNL     1      26.088  26.332  26.734  0.00  0.00    +0.000 OA
ATOM     17  C   UNL     1      27.098  24.918  25.229  0.00  0.00    +0.000 C 
ATOM     18  C   UNL     1      27.056  23.499  24.720  0.00  0.00    +0.000 C 
ATOM     19  C   UNL     1      25.634  23.043  24.486  0.00  0.00    +0.000 C 
ATOM     20  C   UNL     1      27.802  23.366  23.425  0.00  0.00    +0.000 C 
ATOM     21  C   UNL     1      27.733  22.682  25.811  0.00  0.00    +0.000 C 
ENDROOT
TORSDOF 0
ENDMDL
MODEL 8
REMARK VINA RESULT:      -6.5     21.698     24.693
REMARK  Name = 
REMARK  0 active torsions:
REMARK  status: ('A' for Active; 'I' for Inactive)
REMARK                            x       y       z     vdW  Elec       q    Type
REMARK                         _______ _______ _______ _____ _____    ______ ____
ROOT
ATOM      1  C   UNL     1      23.696  26.431  26.121  0.00  0.00    +0.000 C 
ATOM      2  C   UNL     1      24.994  25.750  25.834  0.00  0.00    +0.000 A 
ATOM      3  N   UNL     1      25.617  25.870  24.648  0.00  0.00    +0.000 NA
ATOM      4  C   UNL     1      26.797  25.243  24.405  0.00  0.00    +0.000 A 
ATOM      5  C   UNL     1      27.313  24.497  25.404  0.00  0.00    +0.000 A 
ATOM      6  C   UNL     1      26.738  24.330  26.635  0.00  0.00    +0.000 A 
ATOM      7  C   UNL     1      25.522  24.987  26.859  0.00  0.00    +0.000 A 
ATOM      8  N   UNL     1      25.140  24.707  28.101  0.00  0.00    +0.000 NA
ATOM      9  C   UNL     1      26.018  23.906  28.727  0.00  0.00    +0.000 A 
ATOM     10  C   UNL     1      26.059  23.357  30.007  0.00  0.00    +0.000 A 
ATOM     11  C   UNL     1      27.123  22.555  30.379  0.00  0.00    +0.000 A 
ATOM     12  C   UNL     1      28.146  22.308  29.458  0.00  0.00    +0.000 A 
ATOM     13  C   UNL     1      28.068  22.869  28.203  0.00  0.00    +0.000 A 
ATOM     14  C   UNL     1      27.020  23.670  27.809  0.00  0.00    +0.000 A 
ATOM     15  C   UNL     1      28.709  23.726  25.156  0.00  0.00    +0.000 C 
ATOM     16  O   UNL     1      28.118  22.341  25.596  0.00  0.00    +0.000 OA
ATOM     17  C   UNL     1      28.379  23.369  23.555  0.00  0.00    +0.000 C 
ATOM     18  C   UNL     1      28.676  24.708  22.929  0.00  0.00    +0.000 C 
ATOM     19  C   UNL     1      29.813  25.405  23.640  0.00  0.00    +0.000 C 
ATOM     20  C   UNL     1      29.057  24.558  21.486  0.00  0.00    +0.000 C 
ATOM     21  C   UNL     1      27.375  25.487  23.059  0.00  0.00    +0.000 C 
ENDROOT
TORSDOF 0
ENDMDL
MODEL 9
REMARK VINA RESULT:      -6.5     21.951     24.409
REMARK  Name = 
REMARK  0 active torsions:
REMARK  status: ('A' for Active; 'I' for Inactive)
REMARK                            x       y       z     vdW  Elec       q    Type
REMARK                         _______ _______ _______ _____ _____    ______ ____
ROOT
ATOM      1  C   UNL     1      26.653  22.641  29.964  0.00  0.00    +0.000 C 
ATOM      2  C   UNL     1      26.493  23.411  28.695  0.00  0.00    +0.000 A 
ATOM      3  N   UNL     1      25.448  24.232  28.484  0.00  0.00    +0.000 NA
ATOM      4  C   UNL     1      25.319  24.924  27.323  0.00  0.00    +0.000 A 
ATOM      5  C   UNL     1      26.282  24.751  26.394  0.00  0.00    +0.000 A 
ATOM      6  C   UNL     1      27.371  23.935  26.538  0.00  0.00    +0.000 A 
ATOM      7  C   UNL     1      27.480  23.233  27.744  0.00  0.00    +0.000 A 
ATOM      8  N   UNL     1      28.598  22.514  27.688  0.00  0.00    +0.000 NA
ATOM      9  C   UNL     1      29.247  22.687  26.525  0.00  0.00    +0.000 A 
ATOM     10  C   UNL     1      30.434  22.167  26.012  0.00  0.00    +0.000 A 
ATOM     11  C   UNL     1      30.865  22.544  24.753  0.00  0.00    +0.000 A 
ATOM     12  C   UNL     1      30.096  23.447  24.011  0.00  0.00    +0.000 A 
ATOM     13  C   UNL     1      28.929  23.937  24.553  0.00  0.00    +0.000 A 
ATOM     14  C   UNL     1      28.479  23.578  25.804  0.00  0.00    +0.000 A 
ATOM     15  C   UNL     1      26.163  25.545  24.994  0.00  0.00    +0.000 C 
ATOM     16  O   UNL     1      26.318  24.238  24.142  0.00  0.00    +0.000 OA
ATOM     17  C   UNL     1      24.498  25.415  24.910  0.00  0.00    +0.000 C 
ATOM     18  C   UNL     1      24.108  26.495  25.887  0.00  0.00    +0.000 C 
ATOM     19  C   UNL     1      25.077  27.654  25.838  0.00  0.00    +0.000 C 
ATOM     20  C   UNL     1      22.738  27.028  25.587  0.00  0.00    +0.000 C 
ATOM     21  C   UNL     1      24.127  25.807  27.245  0.00  0.00    +0.000 C 
ENDROOT
TORSDOF 0
ENDMDL
MODEL 10
REMARK VINA RESULT:      -6.4     13.711     16.145
REMARK  Name = 
REMARK  0 active torsions:
REMARK  status: ('A' for Active; 'I' for Inactive)
REMARK                            x       y       z     vdW  Elec       q    Type
REMARK                         _______ _______ _______ _____ _____    ______ ____
ROOT
ATOM      1  C   UNL     1      23.881   9.285  35.773  0.00  0.00    +0.000 C 
ATOM      2  C   UNL     1      22.884  10.033  36.595  0.00  0.00    +0.000 A 
ATOM      3  N   UNL     1      21.619   9.601  36.751  0.00  0.00    +0.000 NA
ATOM      4  C   UNL     1      20.726  10.295  37.503  0.00  0.00    +0.000 A 
ATOM      5  C   UNL     1      21.163  11.433  38.082  0.00  0.00    +0.000 A 
ATOM      6  C   UNL     1      22.432  11.932  37.968  0.00  0.00    +0.000 A 
ATOM      7  C   UNL     1      23.333  11.198  37.188  0.00  0.00    +0.000 A 
ATOM      8  N   UNL     1      24.498  11.839  37.212  0.00  0.00    +0.000 NA
ATOM      9  C   UNL     1      24.439  12.955  37.957  0.00  0.00    +0.000 A 
ATOM     10  C   UNL     1      25.379  13.932  38.282  0.00  0.00    +0.000 A 
ATOM     11  C   UNL     1      25.020  14.990  39.098  0.00  0.00    +0.000 A 
ATOM     12  C   UNL     1      23.711  15.061  39.587  0.00  0.00    +0.000 A 
ATOM     13  C   UNL     1      22.813  14.077  39.242  0.00  0.00    +0.000 A 
ATOM     14  C   UNL     1      23.145  13.014  38.432  0.00  0.00    +0.000 A 
ATOM     15  C   UNL     1      20.132  12.296  38.975  0.00  0.00    +0.000 C 
ATOM     16  O   UNL     1      20.417  13.616  38.179  0.00  0.00    +0.000 OA
ATOM     17  C   UNL     1      18.813  11.979  37.995  0.00  0.00    +0.000 C 
ATOM     18  C   UNL     1      18.486  10.579  38.452  0.00  0.00    +0.000 C 
ATOM     19  C   UNL     1      18.769  10.404  39.926  0.00  0.00    +0.000 C 
ATOM     20  C   UNL     1      17.040  10.258  38.218  0.00  0.00    +0.000 C 
ATOM     21  C   UNL     1      19.376   9.684  37.602  0.00  0.00    +0.000 C 
ENDROOT
TORSDOF 0
ENDMDL
