MODEL 1
REMARK VINA RESULT:      -7.9      0.000      0.000
REMARK  Name = 
REMARK  9 active torsions:
REMARK  status: ('A' for Active; 'I' for Inactive)
REMARK    1  A    between atoms: C_2  and  O_3
REMARK    2  A    between atoms: O_3  and  C_4
REMARK    3  A    between atoms: C_4  and  C_6
REMARK    4  A    between atoms: C_7  and  C_8
REMARK    5  A    between atoms: C_10  and  C_11
REMARK    6  A    between atoms: C_16  and  O_17
REMARK    7  A    between atoms: O_17  and  C_18
REMARK    8  A    between atoms: C_18  and  C_19
REMARK    9  A    between atoms: C_25  and  C_26
REMARK                            x       y       z     vdW  Elec       q    Type
REMARK                         _______ _______ _______ _____ _____    ______ ____
ROOT
ATOM      1  C   UNL     1      36.557  -1.812  15.509  0.00  0.00    +0.000 A 
ATOM      2  C   UNL     1      35.815  -2.876  15.042  0.00  0.00    +0.000 A 
ATOM      3  C   UNL     1      34.574  -3.204  15.582  0.00  0.00    +0.000 A 
ATOM      4  C   UNL     1      34.077  -2.453  16.603  0.00  0.00    +0.000 A 
ATOM      5  C   UNL     1      34.782  -1.396  17.089  0.00  0.00    +0.000 A 
ATOM      6  C   UNL     1      36.028  -1.069  16.545  0.00  0.00    +0.000 A 
ENDROOT
BRANCH   1   8
ATOM      7  C   UNL     1      39.083  -1.887  15.425  0.00  0.00    +0.000 A 
ATOM      8  C   UNL     1      37.863  -1.472  14.936  0.00  0.00    +0.000 A 
ATOM      9  C   UNL     1      38.128  -0.692  13.829  0.00  0.00    +0.000 A 
ATOM     10  N   UNL     1      39.462  -0.624  13.634  0.00  0.00    +0.000 N 
ATOM     11  C   UNL     1      40.226   0.005  12.700  0.00  0.00    +0.000 A 
ATOM     12  C   UNL     1      41.596  -0.085  12.721  0.00  0.00    +0.000 A 
ATOM     13  C   UNL     1      42.211  -0.823  13.705  0.00  0.00    +0.000 A 
ATOM     14  C   UNL     1      41.425  -1.453  14.644  0.00  0.00    +0.000 A 
ATOM     15  C   UNL     1      40.036  -1.339  14.589  0.00  0.00    +0.000 A 
BRANCH   7  16
ATOM     16  C   UNL     1      39.335  -2.743  16.598  0.00  0.00    +0.000 C 
ATOM     17  O   UNL     1      39.841  -3.872  16.386  0.00  0.00    +0.000 OA
BRANCH  16  18
ATOM     18  O   UNL     1      39.039  -2.347  17.869  0.00  0.00    +0.000 OA
BRANCH  18  20
ATOM     19  C   UNL     1      37.513  -2.181  19.671  0.00  0.00    +0.000 C 
ATOM     20  C   UNL     1      38.306  -3.157  18.796  0.00  0.00    +0.000 C 
ENDBRANCH  18  20
ENDBRANCH  16  18
ENDBRANCH   7  16
BRANCH   9  21
ATOM     21  C   UNL     1      37.145  -0.040  12.992  0.00  0.00    +0.000 C 
ATOM     22  O   UNL     1      36.607   1.020  13.361  0.00  0.00    +0.000 OA
ENDBRANCH   9  21
ENDBRANCH   1   8
BRANCH   3  23
ATOM     23  C   UNL     1      33.853  -4.366  15.010  0.00  0.00    +0.000 C 
ATOM     24  C   UNL     1      34.651  -5.639  15.089  0.00  0.00    +0.000 C 
ATOM     25  C   UNL     1      32.457  -4.509  15.547  0.00  0.00    +0.000 C 
ENDBRANCH   3  23
BRANCH   6  26
ATOM     26  O   UNL     1      36.720   0.017  17.066  0.00  0.00    +0.000 OA
BRANCH  26  27
ATOM     27  C   UNL     1      36.157   1.175  17.589  0.00  0.00    +0.000 C 
BRANCH  27  28
ATOM     28  C   UNL     1      35.897   2.232  16.581  0.00  0.00    +0.000 A 
ATOM     29  C   UNL     1      36.930   3.079  16.161  0.00  0.00    +0.000 A 
ATOM     30  C   UNL     1      36.719   4.063  15.230  0.00  0.00    +0.000 A 
ATOM     31  C   UNL     1      35.478   4.259  14.665  0.00  0.00    +0.000 A 
ATOM     32  C   UNL     1      34.445   3.435  15.063  0.00  0.00    +0.000 A 
ATOM     33  C   UNL     1      34.672   2.458  15.993  0.00  0.00    +0.000 A 
ENDBRANCH  27  28
ENDBRANCH  26  27
ENDBRANCH   6  26
TORSDOF 9
ENDMDL
MODEL 2
REMARK VINA RESULT:      -7.2      2.034      6.861
REMARK  Name = 
REMARK  9 active torsions:
REMARK  status: ('A' for Active; 'I' for Inactive)
REMARK    1  A    between atoms: C_2  and  O_3
REMARK    2  A    between atoms: O_3  and  C_4
REMARK    3  A    between atoms: C_4  and  C_6
REMARK    4  A    between atoms: C_7  and  C_8
REMARK    5  A    between atoms: C_10  and  C_11
REMARK    6  A    between atoms: C_16  and  O_17
REMARK    7  A    between atoms: O_17  and  C_18
REMARK    8  A    between atoms: C_18  and  C_19
REMARK    9  A    between atoms: C_25  and  C_26
REMARK                            x       y       z     vdW  Elec       q    Type
REMARK                         _______ _______ _______ _____ _____    ______ ____
ROOT
ATOM      1  C   UNL     1      39.341  -1.717  14.734  0.00  0.00    +0.000 A 
ATOM      2  C   UNL     1      40.669  -1.351  14.710  0.00  0.00    +0.000 A 
ATOM      3  C   UNL     1      41.487  -1.609  13.612  0.00  0.00    +0.000 A 
ATOM      4  C   UNL     1      40.960  -2.243  12.530  0.00  0.00    +0.000 A 
ATOM      5  C   UNL     1      39.653  -2.620  12.519  0.00  0.00    +0.000 A 
ATOM      6  C   UNL     1      38.834  -2.359  13.622  0.00  0.00    +0.000 A 
ENDROOT
BRANCH   1   8
ATOM      7  C   UNL     1      37.650  -0.356  16.032  0.00  0.00    +0.000 A 
ATOM      8  C   UNL     1      38.486  -1.443  15.893  0.00  0.00    +0.000 A 
ATOM      9  C   UNL     1      38.349  -2.192  17.044  0.00  0.00    +0.000 A 
ATOM     10  N   UNL     1      37.462  -1.596  17.868  0.00  0.00    +0.000 N 
ATOM     11  C   UNL     1      36.984  -1.922  19.100  0.00  0.00    +0.000 A 
ATOM     12  C   UNL     1      36.065  -1.129  19.741  0.00  0.00    +0.000 A 
ATOM     13  C   UNL     1      35.616   0.018  19.130  0.00  0.00    +0.000 A 
ATOM     14  C   UNL     1      36.109   0.336  17.883  0.00  0.00    +0.000 A 
ATOM     15  C   UNL     1      37.043  -0.496  17.263  0.00  0.00    +0.000 A 
BRANCH   7  16
ATOM     16  C   UNL     1      37.438   0.740  15.069  0.00  0.00    +0.000 C 
ATOM     17  O   UNL     1      36.661   0.517  14.109  0.00  0.00    +0.000 OA
BRANCH  16  18
ATOM     18  O   UNL     1      38.049   1.953  15.195  0.00  0.00    +0.000 OA
BRANCH  18  20
ATOM     19  C   UNL     1      39.850   2.080  13.663  0.00  0.00    +0.000 C 
ATOM     20  C   UNL     1      38.520   2.717  14.077  0.00  0.00    +0.000 C 
ENDBRANCH  18  20
ENDBRANCH  16  18
ENDBRANCH   7  16
BRANCH   9  21
ATOM     21  C   UNL     1      39.039  -3.428  17.342  0.00  0.00    +0.000 C 
ATOM     22  O   UNL     1      38.485  -4.524  17.138  0.00  0.00    +0.000 OA
ENDBRANCH   9  21
ENDBRANCH   1   8
BRANCH   3  23
ATOM     23  C   UNL     1      42.902  -1.175  13.683  0.00  0.00    +0.000 C 
ATOM     24  C   UNL     1      43.822  -2.067  12.897  0.00  0.00    +0.000 C 
ATOM     25  C   UNL     1      43.081   0.284  13.369  0.00  0.00    +0.000 C 
ENDBRANCH   3  23
BRANCH   6  26
ATOM     26  O   UNL     1      37.504  -2.758  13.577  0.00  0.00    +0.000 OA
BRANCH  26  27
ATOM     27  C   UNL     1      37.005  -3.996  13.963  0.00  0.00    +0.000 C 
BRANCH  27  28
ATOM     28  C   UNL     1      35.656  -3.941  14.580  0.00  0.00    +0.000 A 
ATOM     29  C   UNL     1      34.655  -4.832  14.174  0.00  0.00    +0.000 A 
ATOM     30  C   UNL     1      33.401  -4.804  14.728  0.00  0.00    +0.000 A 
ATOM     31  C   UNL     1      33.073  -3.898  15.711  0.00  0.00    +0.000 A 
ATOM     32  C   UNL     1      34.045  -3.010  16.127  0.00  0.00    +0.000 A 
ATOM     33  C   UNL     1      35.291  -3.050  15.565  0.00  0.00    +0.000 A 
ENDBRANCH  27  28
ENDBRANCH  26  27
ENDBRANCH   6  26
TORSDOF 9
ENDMDL
MODEL 3
REMARK VINA RESULT:      -7.1      1.486      4.709
REMARK  Name = 
REMARK  9 active torsions:
REMARK  status: ('A' for Active; 'I' for Inactive)
REMARK    1  A    between atoms: C_2  and  O_3
REMARK    2  A    between atoms: O_3  and  C_4
REMARK    3  A    between atoms: C_4  and  C_6
REMARK    4  A    between atoms: C_7  and  C_8
REMARK    5  A    between atoms: C_10  and  C_11
REMARK    6  A    between atoms: C_16  and  O_17
REMARK    7  A    between atoms: O_17  and  C_18
REMARK    8  A    between atoms: C_18  and  C_19
REMARK    9  A    between atoms: C_25  and  C_26
REMARK                            x       y       z     vdW  Elec       q    Type
REMARK                         _______ _______ _______ _____ _____    ______ ____
ROOT
ATOM      1  C   UNL     1      36.398  -2.335  15.441  0.00  0.00    +0.000 A 
ATOM      2  C   UNL     1      35.250  -2.986  15.042  0.00  0.00    +0.000 A 
ATOM      3  C   UNL     1      35.140  -4.374  15.072  0.00  0.00    +0.000 A 
ATOM      4  C   UNL     1      36.196  -5.113  15.507  0.00  0.00    +0.000 A 
ATOM      5  C   UNL     1      37.345  -4.505  15.908  0.00  0.00    +0.000 A 
ATOM      6  C   UNL     1      37.454  -3.111  15.878  0.00  0.00    +0.000 A 
ENDROOT
BRANCH   1   8
ATOM      7  C   UNL     1      36.055  -0.014  16.385  0.00  0.00    +0.000 A 
ATOM      8  C   UNL     1      36.509  -0.874  15.408  0.00  0.00    +0.000 A 
ATOM      9  C   UNL     1      37.069  -0.087  14.422  0.00  0.00    +0.000 A 
ATOM     10  N   UNL     1      36.970   1.213  14.772  0.00  0.00    +0.000 N 
ATOM     11  C   UNL     1      37.360   2.364  14.160  0.00  0.00    +0.000 A 
ATOM     12  C   UNL     1      37.138   3.590  14.738  0.00  0.00    +0.000 A 
ATOM     13  C   UNL     1      36.508   3.658  15.959  0.00  0.00    +0.000 A 
ATOM     14  C   UNL     1      36.119   2.485  16.566  0.00  0.00    +0.000 A 
ATOM     15  C   UNL     1      36.363   1.258  15.947  0.00  0.00    +0.000 A 
BRANCH   7  16
ATOM     16  C   UNL     1      35.379  -0.367  17.646  0.00  0.00    +0.000 C 
ATOM     17  O   UNL     1      34.168  -0.693  17.576  0.00  0.00    +0.000 OA
BRANCH  16  18
ATOM     18  O   UNL     1      36.020  -0.348  18.850  0.00  0.00    +0.000 OA
BRANCH  18  20
ATOM     19  C   UNL     1      37.362  -2.149  19.596  0.00  0.00    +0.000 C 
ATOM     20  C   UNL     1      37.391  -0.730  19.019  0.00  0.00    +0.000 C 
ENDBRANCH  18  20
ENDBRANCH  16  18
ENDBRANCH   7  16
BRANCH   9  21
ATOM     21  C   UNL     1      37.676  -0.561  13.197  0.00  0.00    +0.000 C 
ATOM     22  O   UNL     1      37.242  -0.185  12.093  0.00  0.00    +0.000 OA
ENDBRANCH   9  21
ENDBRANCH   1   8
BRANCH   3  23
ATOM     23  C   UNL     1      33.863  -4.978  14.622  0.00  0.00    +0.000 C 
ATOM     24  C   UNL     1      33.920  -6.480  14.568  0.00  0.00    +0.000 C 
ATOM     25  C   UNL     1      32.673  -4.458  15.378  0.00  0.00    +0.000 C 
ENDBRANCH   3  23
BRANCH   6  26
ATOM     26  O   UNL     1      38.642  -2.524  16.295  0.00  0.00    +0.000 OA
BRANCH  26  27
ATOM     27  C   UNL     1      39.925  -2.938  15.958  0.00  0.00    +0.000 C 
BRANCH  27  28
ATOM     28  C   UNL     1      40.475  -2.281  14.746  0.00  0.00    +0.000 A 
ATOM     29  C   UNL     1      40.890  -0.945  14.793  0.00  0.00    +0.000 A 
ATOM     30  C   UNL     1      41.404  -0.312  13.690  0.00  0.00    +0.000 A 
ATOM     31  C   UNL     1      41.536  -0.969  12.486  0.00  0.00    +0.000 A 
ATOM     32  C   UNL     1      41.134  -2.287  12.417  0.00  0.00    +0.000 A 
ATOM     33  C   UNL     1      40.623  -2.904  13.526  0.00  0.00    +0.000 A 
ENDBRANCH  27  28
ENDBRANCH  26  27
ENDBRANCH   6  26
TORSDOF 9
ENDMDL
MODEL 4
REMARK VINA RESULT:      -7.0      3.353      6.595
REMARK  Name = 
REMARK  9 active torsions:
REMARK  status: ('A' for Active; 'I' for Inactive)
REMARK    1  A    between atoms: C_2  and  O_3
REMARK    2  A    between atoms: O_3  and  C_4
REMARK    3  A    between atoms: C_4  and  C_6
REMARK    4  A    between atoms: C_7  and  C_8
REMARK    5  A    between atoms: C_10  and  C_11
REMARK    6  A    between atoms: C_16  and  O_17
REMARK    7  A    between atoms: O_17  and  C_18
REMARK    8  A    between atoms: C_18  and  C_19
REMARK    9  A    between atoms: C_25  and  C_26
REMARK                            x       y       z     vdW  Elec       q    Type
REMARK                         _______ _______ _______ _____ _____    ______ ____
ROOT
ATOM      1  C   UNL     1      37.521   2.846  14.277  0.00  0.00    +0.000 A 
ATOM      2  C   UNL     1      37.293   2.963  12.922  0.00  0.00    +0.000 A 
ATOM      3  C   UNL     1      37.839   3.999  12.169  0.00  0.00    +0.000 A 
ATOM      4  C   UNL     1      38.620   4.927  12.787  0.00  0.00    +0.000 A 
ATOM      5  C   UNL     1      38.866   4.843  14.122  0.00  0.00    +0.000 A 
ATOM      6  C   UNL     1      38.317   3.801  14.877  0.00  0.00    +0.000 A 
ENDROOT
BRANCH   1   8
ATOM      7  C   UNL     1      37.466   0.483  15.175  0.00  0.00    +0.000 A 
ATOM      8  C   UNL     1      36.943   1.753  15.065  0.00  0.00    +0.000 A 
ATOM      9  C   UNL     1      35.794   1.772  15.829  0.00  0.00    +0.000 A 
ATOM     10  N   UNL     1      35.609   0.561  16.396  0.00  0.00    +0.000 N 
ATOM     11  C   UNL     1      34.647   0.068  17.222  0.00  0.00    +0.000 A 
ATOM     12  C   UNL     1      34.688  -1.231  17.668  0.00  0.00    +0.000 A 
ATOM     13  C   UNL     1      35.719  -2.050  17.274  0.00  0.00    +0.000 A 
ATOM     14  C   UNL     1      36.685  -1.537  16.437  0.00  0.00    +0.000 A 
ATOM     15  C   UNL     1      36.609  -0.212  16.005  0.00  0.00    +0.000 A 
BRANCH   7  16
ATOM     16  C   UNL     1      38.690  -0.040  14.543  0.00  0.00    +0.000 C 
ATOM     17  O   UNL     1      38.551  -0.949  13.688  0.00  0.00    +0.000 OA
BRANCH  16  18
ATOM     18  O   UNL     1      39.933   0.426  14.859  0.00  0.00    +0.000 OA
BRANCH  18  20
ATOM     19  C   UNL     1      40.961   1.773  13.206  0.00  0.00    +0.000 C 
ATOM     20  C   UNL     1      41.031   0.428  13.938  0.00  0.00    +0.000 C 
ENDBRANCH  18  20
ENDBRANCH  16  18
ENDBRANCH   7  16
BRANCH   9  21
ATOM     21  C   UNL     1      34.911   2.904  16.011  0.00  0.00    +0.000 C 
ATOM     22  O   UNL     1      33.853   2.988  15.362  0.00  0.00    +0.000 OA
ENDBRANCH   9  21
ENDBRANCH   1   8
BRANCH   3  23
ATOM     23  C   UNL     1      37.536   4.037  10.719  0.00  0.00    +0.000 C 
ATOM     24  C   UNL     1      37.314   2.668  10.136  0.00  0.00    +0.000 C 
ATOM     25  C   UNL     1      36.442   5.010  10.377  0.00  0.00    +0.000 C 
ENDBRANCH   3  23
BRANCH   6  26
ATOM     26  O   UNL     1      38.588   3.747  16.238  0.00  0.00    +0.000 OA
BRANCH  26  27
ATOM     27  C   UNL     1      38.223   4.695  17.186  0.00  0.00    +0.000 C 
BRANCH  27  28
ATOM     28  C   UNL     1      39.368   5.416  17.795  0.00  0.00    +0.000 A 
ATOM     29  C   UNL     1      39.345   5.764  19.151  0.00  0.00    +0.000 A 
ATOM     30  C   UNL     1      40.389   6.430  19.740  0.00  0.00    +0.000 A 
ATOM     31  C   UNL     1      41.510   6.782  19.021  0.00  0.00    +0.000 A 
ATOM     32  C   UNL     1      41.555   6.448  17.683  0.00  0.00    +0.000 A 
ATOM     33  C   UNL     1      40.505   5.785  17.109  0.00  0.00    +0.000 A 
ENDBRANCH  27  28
ENDBRANCH  26  27
ENDBRANCH   6  26
TORSDOF 9
ENDMDL
MODEL 5
REMARK VINA RESULT:      -6.8      3.560      7.246
REMARK  Name = 
REMARK  9 active torsions:
REMARK  status: ('A' for Active; 'I' for Inactive)
REMARK    1  A    between atoms: C_2  and  O_3
REMARK    2  A    between atoms: O_3  and  C_4
REMARK    3  A    between atoms: C_4  and  C_6
REMARK    4  A    between atoms: C_7  and  C_8
REMARK    5  A    between atoms: C_10  and  C_11
REMARK    6  A    between atoms: C_16  and  O_17
REMARK    7  A    between atoms: O_17  and  C_18
REMARK    8  A    between atoms: C_18  and  C_19
REMARK    9  A    between atoms: C_25  and  C_26
REMARK                            x       y       z     vdW  Elec       q    Type
REMARK                         _______ _______ _______ _____ _____    ______ ____
ROOT
ATOM      1  C   UNL     1      37.007   4.117  14.791  0.00  0.00    +0.000 A 
ATOM      2  C   UNL     1      36.053   4.544  13.893  0.00  0.00    +0.000 A 
ATOM      3  C   UNL     1      35.793   5.896  13.678  0.00  0.00    +0.000 A 
ATOM      4  C   UNL     1      36.502   6.824  14.377  0.00  0.00    +0.000 A 
ATOM      5  C   UNL     1      37.451   6.439  15.272  0.00  0.00    +0.000 A 
ATOM      6  C   UNL     1      37.710   5.082  15.485  0.00  0.00    +0.000 A 
ENDROOT
BRANCH   1   8
ATOM      7  C   UNL     1      38.240   1.950  14.366  0.00  0.00    +0.000 A 
ATOM      8  C   UNL     1      37.275   2.692  15.012  0.00  0.00    +0.000 A 
ATOM      9  C   UNL     1      36.636   1.834  15.883  0.00  0.00    +0.000 A 
ATOM     10  N   UNL     1      37.182   0.603  15.785  0.00  0.00    +0.000 N 
ATOM     11  C   UNL     1      36.920  -0.575  16.414  0.00  0.00    +0.000 A 
ATOM     12  C   UNL     1      37.636  -1.711  16.127  0.00  0.00    +0.000 A 
ATOM     13  C   UNL     1      38.638  -1.661  15.187  0.00  0.00    +0.000 A 
ATOM     14  C   UNL     1      38.891  -0.463  14.558  0.00  0.00    +0.000 A 
ATOM     15  C   UNL     1      38.143   0.671  14.876  0.00  0.00    +0.000 A 
BRANCH   7  16
ATOM     16  C   UNL     1      39.189   2.414  13.339  0.00  0.00    +0.000 C 
ATOM     17  O   UNL     1      40.368   2.639  13.707  0.00  0.00    +0.000 OA
BRANCH  16  18
ATOM     18  O   UNL     1      38.826   2.599  12.037  0.00  0.00    +0.000 OA
BRANCH  18  20
ATOM     19  C   UNL     1      38.743   4.905  11.508  0.00  0.00    +0.000 C 
ATOM     20  C   UNL     1      39.432   3.576  11.182  0.00  0.00    +0.000 C 
ENDBRANCH  18  20
ENDBRANCH  16  18
ENDBRANCH   7  16
BRANCH   9  21
ATOM     21  C   UNL     1      35.550   2.177  16.774  0.00  0.00    +0.000 C 
ATOM     22  O   UNL     1      34.387   2.277  16.340  0.00  0.00    +0.000 OA
ENDBRANCH   9  21
ENDBRANCH   1   8
BRANCH   3  23
ATOM     23  C   UNL     1      34.748   6.253  12.691  0.00  0.00    +0.000 C 
ATOM     24  C   UNL     1      33.631   7.060  13.295  0.00  0.00    +0.000 C 
ATOM     25  C   UNL     1      35.312   6.868  11.441  0.00  0.00    +0.000 C 
ENDBRANCH   3  23
BRANCH   6  26
ATOM     26  O   UNL     1      38.686   4.724  16.406  0.00  0.00    +0.000 OA
BRANCH  26  27
ATOM     27  C   UNL     1      38.656   4.975  17.773  0.00  0.00    +0.000 C 
BRANCH  27  28
ATOM     28  C   UNL     1      39.840   5.711  18.281  0.00  0.00    +0.000 A 
ATOM     29  C   UNL     1      40.891   6.042  17.418  0.00  0.00    +0.000 A 
ATOM     30  C   UNL     1      41.997   6.723  17.859  0.00  0.00    +0.000 A 
ATOM     31  C   UNL     1      42.119   7.113  19.174  0.00  0.00    +0.000 A 
ATOM     32  C   UNL     1      41.094   6.797  20.043  0.00  0.00    +0.000 A 
ATOM     33  C   UNL     1      39.998   6.117  19.588  0.00  0.00    +0.000 A 
ENDBRANCH  27  28
ENDBRANCH  26  27
ENDBRANCH   6  26
TORSDOF 9
ENDMDL
MODEL 6
REMARK VINA RESULT:      -6.7      2.900      6.458
REMARK  Name = 
REMARK  9 active torsions:
REMARK  status: ('A' for Active; 'I' for Inactive)
REMARK    1  A    between atoms: C_2  and  O_3
REMARK    2  A    between atoms: O_3  and  C_4
REMARK    3  A    between atoms: C_4  and  C_6
REMARK    4  A    between atoms: C_7  and  C_8
REMARK    5  A    between atoms: C_10  and  C_11
REMARK    6  A    between atoms: C_16  and  O_17
REMARK    7  A    between atoms: O_17  and  C_18
REMARK    8  A    between atoms: C_18  and  C_19
REMARK    9  A    between atoms: C_25  and  C_26
REMARK                            x       y       z     vdW  Elec       q    Type
REMARK                         _______ _______ _______ _____ _____    ______ ____
ROOT
ATOM      1  C   UNL     1      38.400   3.750  15.116  0.00  0.00    +0.000 A 
ATOM      2  C   UNL     1      39.346   4.681  15.489  0.00  0.00    +0.000 A 
ATOM      3  C   UNL     1      39.353   5.261  16.755  0.00  0.00    +0.000 A 
ATOM      4  C   UNL     1      38.397   4.900  17.653  0.00  0.00    +0.000 A 
ATOM      5  C   UNL     1      37.447   3.985  17.320  0.00  0.00    +0.000 A 
ATOM      6  C   UNL     1      37.442   3.404  16.048  0.00  0.00    +0.000 A 
ENDROOT
BRANCH   1   8
ATOM      7  C   UNL     1      38.977   1.937  13.450  0.00  0.00    +0.000 A 
ATOM      8  C   UNL     1      38.399   3.144  13.781  0.00  0.00    +0.000 A 
ATOM      9  C   UNL     1      37.837   3.641  12.623  0.00  0.00    +0.000 A 
ATOM     10  N   UNL     1      38.056   2.778  11.609  0.00  0.00    +0.000 N 
ATOM     11  C   UNL     1      37.716   2.799  10.291  0.00  0.00    +0.000 A 
ATOM     12  C   UNL     1      38.066   1.773   9.448  0.00  0.00    +0.000 A 
ATOM     13  C   UNL     1      38.775   0.703   9.942  0.00  0.00    +0.000 A 
ATOM     14  C   UNL     1      39.113   0.697  11.277  0.00  0.00    +0.000 A 
ATOM     15  C   UNL     1      38.739   1.757  12.102  0.00  0.00    +0.000 A 
BRANCH   7  16
ATOM     16  C   UNL     1      39.703   1.016  14.342  0.00  0.00    +0.000 C 
ATOM     17  O   UNL     1      40.938   0.892  14.156  0.00  0.00    +0.000 OA
BRANCH  16  18
ATOM     18  O   UNL     1      39.082   0.317  15.335  0.00  0.00    +0.000 OA
BRANCH  18  20
ATOM     19  C   UNL     1      38.245  -1.620  14.262  0.00  0.00    +0.000 C 
ATOM     20  C   UNL     1      39.105  -1.113  15.424  0.00  0.00    +0.000 C 
ENDBRANCH  18  20
ENDBRANCH  16  18
ENDBRANCH   7  16
BRANCH   9  21
ATOM     21  C   UNL     1      37.120   4.891  12.493  0.00  0.00    +0.000 C 
ATOM     22  O   UNL     1      35.960   5.000  12.929  0.00  0.00    +0.000 OA
ENDBRANCH   9  21
ENDBRANCH   1   8
BRANCH   3  23
ATOM     23  C   UNL     1      40.413   6.252  17.059  0.00  0.00    +0.000 C 
ATOM     24  C   UNL     1      40.893   6.169  18.482  0.00  0.00    +0.000 C 
ATOM     25  C   UNL     1      41.531   6.236  16.055  0.00  0.00    +0.000 C 
ENDBRANCH   3  23
BRANCH   6  26
ATOM     26  O   UNL     1      36.458   2.473  15.742  0.00  0.00    +0.000 OA
BRANCH  26  27
ATOM     27  C   UNL     1      35.471   2.009  16.603  0.00  0.00    +0.000 C 
BRANCH  27  28
ATOM     28  C   UNL     1      35.660   0.604  17.042  0.00  0.00    +0.000 A 
ATOM     29  C   UNL     1      36.252   0.323  18.280  0.00  0.00    +0.000 A 
ATOM     30  C   UNL     1      36.439  -0.965  18.711  0.00  0.00    +0.000 A 
ATOM     31  C   UNL     1      36.047  -2.040  17.945  0.00  0.00    +0.000 A 
ATOM     32  C   UNL     1      35.460  -1.787  16.722  0.00  0.00    +0.000 A 
ATOM     33  C   UNL     1      35.281  -0.496  16.305  0.00  0.00    +0.000 A 
ENDBRANCH  27  28
ENDBRANCH  26  27
ENDBRANCH   6  26
TORSDOF 9
ENDMDL
MODEL 7
REMARK VINA RESULT:      -6.6      3.516      6.821
REMARK  Name = 
REMARK  9 active torsions:
REMARK  status: ('A' for Active; 'I' for Inactive)
REMARK    1  A    between atoms: C_2  and  O_3
REMARK    2  A    between atoms: O_3  and  C_4
REMARK    3  A    between atoms: C_4  and  C_6
REMARK    4  A    between atoms: C_7  and  C_8
REMARK    5  A    between atoms: C_10  and  C_11
REMARK    6  A    between atoms: C_16  and  O_17
REMARK    7  A    between atoms: O_17  and  C_18
REMARK    8  A    between atoms: C_18  and  C_19
REMARK    9  A    between atoms: C_25  and  C_26
REMARK                            x       y       z     vdW  Elec       q    Type
REMARK                         _______ _______ _______ _____ _____    ______ ____
ROOT
ATOM      1  C   UNL     1      37.625   4.385  14.395  0.00  0.00    +0.000 A 
ATOM      2  C   UNL     1      36.454   4.717  13.749  0.00  0.00    +0.000 A 
ATOM      3  C   UNL     1      35.907   5.995  13.821  0.00  0.00    +0.000 A 
ATOM      4  C   UNL     1      36.546   6.948  14.553  0.00  0.00    +0.000 A 
ATOM      5  C   UNL     1      37.704   6.656  15.205  0.00  0.00    +0.000 A 
ATOM      6  C   UNL     1      38.252   5.372  15.130  0.00  0.00    +0.000 A 
ENDROOT
BRANCH   1   8
ATOM      7  C   UNL     1      37.797   1.953  15.067  0.00  0.00    +0.000 A 
ATOM      8  C   UNL     1      38.196   3.037  14.315  0.00  0.00    +0.000 A 
ATOM      9  C   UNL     1      39.216   2.594  13.498  0.00  0.00    +0.000 A 
ATOM     10  N   UNL     1      39.444   1.284  13.731  0.00  0.00    +0.000 N 
ATOM     11  C   UNL     1      40.324   0.393  13.200  0.00  0.00    +0.000 A 
ATOM     12  C   UNL     1      40.356  -0.915  13.619  0.00  0.00    +0.000 A 
ATOM     13  C   UNL     1      39.481  -1.335  14.594  0.00  0.00    +0.000 A 
ATOM     14  C   UNL     1      38.596  -0.421  15.122  0.00  0.00    +0.000 A 
ATOM     15  C   UNL     1      38.594   0.899  14.671  0.00  0.00    +0.000 A 
BRANCH   7  16
ATOM     16  C   UNL     1      36.735   1.913  16.089  0.00  0.00    +0.000 C 
ATOM     17  O   UNL     1      36.947   2.533  17.160  0.00  0.00    +0.000 OA
BRANCH  16  18
ATOM     18  O   UNL     1      35.565   1.238  15.902  0.00  0.00    +0.000 OA
BRANCH  18  20
ATOM     19  C   UNL     1      34.998  -0.869  16.820  0.00  0.00    +0.000 C 
ATOM     20  C   UNL     1      34.818   0.645  16.972  0.00  0.00    +0.000 C 
ENDBRANCH  18  20
ENDBRANCH  16  18
ENDBRANCH   7  16
BRANCH   9  21
ATOM     21  C   UNL     1      39.942   3.391  12.534  0.00  0.00    +0.000 C 
ATOM     22  O   UNL     1      39.505   3.532  11.377  0.00  0.00    +0.000 OA
ENDBRANCH   9  21
ENDBRANCH   1   8
BRANCH   3  23
ATOM     23  C   UNL     1      34.644   6.252  13.090  0.00  0.00    +0.000 C 
ATOM     24  C   UNL     1      33.657   7.049  13.899  0.00  0.00    +0.000 C 
ATOM     25  C   UNL     1      34.870   6.813  11.714  0.00  0.00    +0.000 C 
ENDBRANCH   3  23
BRANCH   6  26
ATOM     26  O   UNL     1      39.435   5.109  15.808  0.00  0.00    +0.000 OA
BRANCH  26  27
ATOM     27  C   UNL     1      40.482   6.002  16.009  0.00  0.00    +0.000 C 
BRANCH  27  28
ATOM     28  C   UNL     1      40.849   6.195  17.434  0.00  0.00    +0.000 A 
ATOM     29  C   UNL     1      39.878   6.084  18.437  0.00  0.00    +0.000 A 
ATOM     30  C   UNL     1      40.189   6.256  19.761  0.00  0.00    +0.000 A 
ATOM     31  C   UNL     1      41.475   6.543  20.162  0.00  0.00    +0.000 A 
ATOM     32  C   UNL     1      42.449   6.655  19.191  0.00  0.00    +0.000 A 
ATOM     33  C   UNL     1      42.123   6.482  17.874  0.00  0.00    +0.000 A 
ENDBRANCH  27  28
ENDBRANCH  26  27
ENDBRANCH   6  26
TORSDOF 9
ENDMDL
MODEL 8
REMARK VINA RESULT:      -6.5      2.748      6.615
REMARK  Name = 
REMARK  9 active torsions:
REMARK  status: ('A' for Active; 'I' for Inactive)
REMARK    1  A    between atoms: C_2  and  O_3
REMARK    2  A    between atoms: O_3  and  C_4
REMARK    3  A    between atoms: C_4  and  C_6
REMARK    4  A    between atoms: C_7  and  C_8
REMARK    5  A    between atoms: C_10  and  C_11
REMARK    6  A    between atoms: C_16  and  O_17
REMARK    7  A    between atoms: O_17  and  C_18
REMARK    8  A    between atoms: C_18  and  C_19
REMARK    9  A    between atoms: C_25  and  C_26
REMARK                            x       y       z     vdW  Elec       q    Type
REMARK                         _______ _______ _______ _____ _____    ______ ____
ROOT
ATOM      1  C   UNL     1      39.772  -0.385  13.729  0.00  0.00    +0.000 A 
ATOM      2  C   UNL     1      40.962  -0.741  14.327  0.00  0.00    +0.000 A 
ATOM      3  C   UNL     1      42.118  -0.976  13.587  0.00  0.00    +0.000 A 
ATOM      4  C   UNL     1      42.074  -0.853  12.233  0.00  0.00    +0.000 A 
ATOM      5  C   UNL     1      40.917  -0.504  11.609  0.00  0.00    +0.000 A 
ATOM      6  C   UNL     1      39.757  -0.268  12.353  0.00  0.00    +0.000 A 
ENDROOT
BRANCH   1   8
ATOM      7  C   UNL     1      37.689  -1.107  14.968  0.00  0.00    +0.000 A 
ATOM      8  C   UNL     1      38.558  -0.139  14.513  0.00  0.00    +0.000 A 
ATOM      9  C   UNL     1      38.053   1.072  14.939  0.00  0.00    +0.000 A 
ATOM     10  N   UNL     1      36.915   0.868  15.634  0.00  0.00    +0.000 N 
ATOM     11  C   UNL     1      36.048   1.714  16.254  0.00  0.00    +0.000 A 
ATOM     12  C   UNL     1      34.936   1.243  16.909  0.00  0.00    +0.000 A 
ATOM     13  C   UNL     1      34.691  -0.110  16.939  0.00  0.00    +0.000 A 
ATOM     14  C   UNL     1      35.576  -0.954  16.307  0.00  0.00    +0.000 A 
ATOM     15  C   UNL     1      36.695  -0.438  15.653  0.00  0.00    +0.000 A 
BRANCH   7  16
ATOM     16  C   UNL     1      37.790  -2.565  14.773  0.00  0.00    +0.000 C 
ATOM     17  O   UNL     1      37.485  -3.014  13.641  0.00  0.00    +0.000 OA
BRANCH  16  18
ATOM     18  O   UNL     1      38.192  -3.410  15.765  0.00  0.00    +0.000 OA
BRANCH  18  20
ATOM     19  C   UNL     1      38.574  -2.934  18.052  0.00  0.00    +0.000 C 
ATOM     20  C   UNL     1      39.246  -3.099  16.685  0.00  0.00    +0.000 C 
ENDBRANCH  18  20
ENDBRANCH  16  18
ENDBRANCH   7  16
BRANCH   9  21
ATOM     21  C   UNL     1      38.638   2.372  14.692  0.00  0.00    +0.000 C 
ATOM     22  O   UNL     1      38.961   3.109  15.642  0.00  0.00    +0.000 OA
ENDBRANCH   9  21
ENDBRANCH   1   8
BRANCH   3  23
ATOM     23  C   UNL     1      43.348  -1.353  14.324  0.00  0.00    +0.000 C 
ATOM     24  C   UNL     1      44.198  -2.338  13.568  0.00  0.00    +0.000 C 
ATOM     25  C   UNL     1      44.120  -0.162  14.817  0.00  0.00    +0.000 C 
ENDBRANCH   3  23
BRANCH   6  26
ATOM     26  O   UNL     1      38.593   0.086  11.683  0.00  0.00    +0.000 OA
BRANCH  26  27
ATOM     27  C   UNL     1      38.331   1.313  11.084  0.00  0.00    +0.000 C 
BRANCH  27  28
ATOM     28  C   UNL     1      38.133   1.241   9.615  0.00  0.00    +0.000 A 
ATOM     29  C   UNL     1      36.922   1.651   9.044  0.00  0.00    +0.000 A 
ATOM     30  C   UNL     1      36.711   1.597   7.690  0.00  0.00    +0.000 A 
ATOM     31  C   UNL     1      37.686   1.138   6.832  0.00  0.00    +0.000 A 
ATOM     32  C   UNL     1      38.888   0.729   7.373  0.00  0.00    +0.000 A 
ATOM     33  C   UNL     1      39.083   0.788   8.726  0.00  0.00    +0.000 A 
ENDBRANCH  27  28
ENDBRANCH  26  27
ENDBRANCH   6  26
TORSDOF 9
ENDMDL
MODEL 9
REMARK VINA RESULT:      -6.5      3.230      6.865
REMARK  Name = 
REMARK  9 active torsions:
REMARK  status: ('A' for Active; 'I' for Inactive)
REMARK    1  A    between atoms: C_2  and  O_3
REMARK    2  A    between atoms: O_3  and  C_4
REMARK    3  A    between atoms: C_4  and  C_6
REMARK    4  A    between atoms: C_7  and  C_8
REMARK    5  A    between atoms: C_10  and  C_11
REMARK    6  A    between atoms: C_16  and  O_17
REMARK    7  A    between atoms: O_17  and  C_18
REMARK    8  A    between atoms: C_18  and  C_19
REMARK    9  A    between atoms: C_25  and  C_26
REMARK                            x       y       z     vdW  Elec       q    Type
REMARK                         _______ _______ _______ _____ _____    ______ ____
ROOT
ATOM      1  C   UNL     1      38.128   4.248  15.737  0.00  0.00    +0.000 A 
ATOM      2  C   UNL     1      38.961   4.487  16.808  0.00  0.00    +0.000 A 
ATOM      3  C   UNL     1      39.086   5.751  17.379  0.00  0.00    +0.000 A 
ATOM      4  C   UNL     1      38.364   6.784  16.864  0.00  0.00    +0.000 A 
ATOM      5  C   UNL     1      37.532   6.585  15.807  0.00  0.00    +0.000 A 
ATOM      6  C   UNL     1      37.408   5.315  15.235  0.00  0.00    +0.000 A 
ENDROOT
BRANCH   1   8
ATOM      7  C   UNL     1      37.150   1.922  15.573  0.00  0.00    +0.000 A 
ATOM      8  C   UNL     1      38.001   2.915  15.140  0.00  0.00    +0.000 A 
ATOM      9  C   UNL     1      38.688   2.400  14.059  0.00  0.00    +0.000 A 
ATOM     10  N   UNL     1      38.279   1.134  13.827  0.00  0.00    +0.000 N 
ATOM     11  C   UNL     1      38.636   0.207  12.898  0.00  0.00    +0.000 A 
ATOM     12  C   UNL     1      38.057  -1.039  12.874  0.00  0.00    +0.000 A 
ATOM     13  C   UNL     1      37.098  -1.357  13.807  0.00  0.00    +0.000 A 
ATOM     14  C   UNL     1      36.747  -0.408  14.741  0.00  0.00    +0.000 A 
ATOM     15  C   UNL     1      37.358   0.847  14.733  0.00  0.00    +0.000 A 
BRANCH   7  16
ATOM     16  C   UNL     1      36.203   1.982  16.701  0.00  0.00    +0.000 C 
ATOM     17  O   UNL     1      35.073   2.482  16.475  0.00  0.00    +0.000 OA
BRANCH  16  18
ATOM     18  O   UNL     1      36.518   1.522  17.945  0.00  0.00    +0.000 OA
BRANCH  18  20
ATOM     19  C   UNL     1      35.417  -0.224  19.104  0.00  0.00    +0.000 C 
ATOM     20  C   UNL     1      36.646   0.130  18.262  0.00  0.00    +0.000 C 
ENDBRANCH  18  20
ENDBRANCH  16  18
ENDBRANCH   7  16
BRANCH   9  21
ATOM     21  C   UNL     1      39.692   3.090  13.281  0.00  0.00    +0.000 C 
ATOM     22  O   UNL     1      39.361   3.813  12.323  0.00  0.00    +0.000 OA
ENDBRANCH   9  21
ENDBRANCH   1   8
BRANCH   3  23
ATOM     23  C   UNL     1      40.009   5.906  18.528  0.00  0.00    +0.000 C 
ATOM     24  C   UNL     1      41.375   6.381  18.115  0.00  0.00    +0.000 C 
ATOM     25  C   UNL     1      39.415   6.713  19.648  0.00  0.00    +0.000 C 
ENDBRANCH   3  23
BRANCH   6  26
ATOM     26  O   UNL     1      36.549   5.148  14.157  0.00  0.00    +0.000 OA
BRANCH  26  27
ATOM     27  C   UNL     1      35.312   5.759  13.990  0.00  0.00    +0.000 C 
BRANCH  27  28
ATOM     28  C   UNL     1      35.046   6.223  12.606  0.00  0.00    +0.000 A 
ATOM     29  C   UNL     1      33.926   7.016  12.328  0.00  0.00    +0.000 A 
ATOM     30  C   UNL     1      33.656   7.460  11.059  0.00  0.00    +0.000 A 
ATOM     31  C   UNL     1      34.479   7.145  10.001  0.00  0.00    +0.000 A 
ATOM     32  C   UNL     1      35.590   6.364  10.252  0.00  0.00    +0.000 A 
ATOM     33  C   UNL     1      35.845   5.929  11.523  0.00  0.00    +0.000 A 
ENDBRANCH  27  28
ENDBRANCH  26  27
ENDBRANCH   6  26
TORSDOF 9
ENDMDL
MODEL 10
REMARK VINA RESULT:      -6.4      2.716      6.557
REMARK  Name = 
REMARK  9 active torsions:
REMARK  status: ('A' for Active; 'I' for Inactive)
REMARK    1  A    between atoms: C_2  and  O_3
REMARK    2  A    between atoms: O_3  and  C_4
REMARK    3  A    between atoms: C_4  and  C_6
REMARK    4  A    between atoms: C_7  and  C_8
REMARK    5  A    between atoms: C_10  and  C_11
REMARK    6  A    between atoms: C_16  and  O_17
REMARK    7  A    between atoms: O_17  and  C_18
REMARK    8  A    between atoms: C_18  and  C_19
REMARK    9  A    between atoms: C_25  and  C_26
REMARK                            x       y       z     vdW  Elec       q    Type
REMARK                         _______ _______ _______ _____ _____    ______ ____
ROOT
ATOM      1  C   UNL     1      39.224   1.260  13.769  0.00  0.00    +0.000 A 
ATOM      2  C   UNL     1      40.600   1.313  13.718  0.00  0.00    +0.000 A 
ATOM      3  C   UNL     1      41.393   0.210  14.022  0.00  0.00    +0.000 A 
ATOM      4  C   UNL     1      40.793  -0.957  14.383  0.00  0.00    +0.000 A 
ATOM      5  C   UNL     1      39.437  -1.046  14.445  0.00  0.00    +0.000 A 
ATOM      6  C   UNL     1      38.643   0.064  14.138  0.00  0.00    +0.000 A 
ENDROOT
BRANCH   1   8
ATOM      7  C   UNL     1      37.892   3.327  14.361  0.00  0.00    +0.000 A 
ATOM      8  C   UNL     1      38.394   2.426  13.448  0.00  0.00    +0.000 A 
ATOM      9  C   UNL     1      37.961   2.844  12.206  0.00  0.00    +0.000 A 
ATOM     10  N   UNL     1      37.219   3.962  12.339  0.00  0.00    +0.000 N 
ATOM     11  C   UNL     1      36.573   4.754  11.440  0.00  0.00    +0.000 A 
ATOM     12  C   UNL     1      35.869   5.862  11.841  0.00  0.00    +0.000 A 
ATOM     13  C   UNL     1      35.812   6.182  13.177  0.00  0.00    +0.000 A 
ATOM     14  C   UNL     1      36.470   5.371  14.076  0.00  0.00    +0.000 A 
ATOM     15  C   UNL     1      37.175   4.253  13.630  0.00  0.00    +0.000 A 
BRANCH   7  16
ATOM     16  C   UNL     1      38.074   3.317  15.824  0.00  0.00    +0.000 C 
ATOM     17  O   UNL     1      37.288   2.604  16.495  0.00  0.00    +0.000 OA
BRANCH  16  18
ATOM     18  O   UNL     1      39.048   4.043  16.444  0.00  0.00    +0.000 OA
BRANCH  18  20
ATOM     19  C   UNL     1      39.020   5.194  18.513  0.00  0.00    +0.000 C 
ATOM     20  C   UNL     1      38.825   5.345  17.000  0.00  0.00    +0.000 C 
ENDBRANCH  18  20
ENDBRANCH  16  18
ENDBRANCH   7  16
BRANCH   9  21
ATOM     21  C   UNL     1      38.249   2.199  10.943  0.00  0.00    +0.000 C 
ATOM     22  O   UNL     1      37.441   1.391  10.450  0.00  0.00    +0.000 OA
ENDBRANCH   9  21
ENDBRANCH   1   8
BRANCH   3  23
ATOM     23  C   UNL     1      42.864   0.367  13.937  0.00  0.00    +0.000 C 
ATOM     24  C   UNL     1      43.608  -0.788  14.549  0.00  0.00    +0.000 C 
ATOM     25  C   UNL     1      43.335   0.706  12.551  0.00  0.00    +0.000 C 
ENDBRANCH   3  23
BRANCH   6  26
ATOM     26  O   UNL     1      37.261  -0.062  14.212  0.00  0.00    +0.000 OA
BRANCH  26  27
ATOM     27  C   UNL     1      36.562  -1.073  14.861  0.00  0.00    +0.000 C 
BRANCH  27  28
ATOM     28  C   UNL     1      36.282  -0.795  16.292  0.00  0.00    +0.000 A 
ATOM     29  C   UNL     1      37.130  -1.292  17.289  0.00  0.00    +0.000 A 
ATOM     30  C   UNL     1      36.896  -1.050  18.618  0.00  0.00    +0.000 A 
ATOM     31  C   UNL     1      35.815  -0.302  19.029  0.00  0.00    +0.000 A 
ATOM     32  C   UNL     1      34.966   0.199  18.063  0.00  0.00    +0.000 A 
ATOM     33  C   UNL     1      35.212  -0.052  16.741  0.00  0.00    +0.000 A 
ENDBRANCH  27  28
ENDBRANCH  26  27
ENDBRANCH   6  26
TORSDOF 9
ENDMDL
