MODEL 1
REMARK VINA RESULT:      -6.1      0.000      0.000
REMARK  Name = 
REMARK  4 active torsions:
REMARK  status: ('A' for Active; 'I' for Inactive)
REMARK    1  A    between atoms: C_7  and  N_8
REMARK    2  A    between atoms: N_8  and  C_9
REMARK    3  A    between atoms: C_9  and  N_11
REMARK    4  A    between atoms: C_12  and  C_14
REMARK                            x       y       z     vdW  Elec       q    Type
REMARK                         _______ _______ _______ _____ _____    ______ ____
ROOT
ATOM      1  C   UNL     1      31.566  22.272   8.918  0.00  0.00    +0.000 C 
ATOM      2  S   UNL     1      31.072  21.781   7.441  0.00  0.00    +0.000 S 
ENDROOT
BRANCH   1   3
ATOM      3  N   UNL     1      30.563  22.723   9.819  0.00  0.00    +0.000 NA
ATOM      4  C   UNL     1      29.797  21.873  10.633  0.00  0.00    +0.000 C 
ATOM      5  O   UNL     1      29.982  20.631  10.587  0.00  0.00    +0.000 OA
BRANCH   4   6
ATOM      6  C   UNL     1      28.761  22.388  11.557  0.00  0.00    +0.000 A 
ATOM      7  C   UNL     1      29.101  23.031  12.716  0.00  0.00    +0.000 A 
ATOM      8  C   UNL     1      28.125  23.494  13.547  0.00  0.00    +0.000 A 
ATOM      9  C   UNL     1      26.794  23.335  13.255  0.00  0.00    +0.000 A 
ATOM     10  C   UNL     1      26.423  22.691  12.094  0.00  0.00    +0.000 A 
ATOM     11  C   UNL     1      27.427  22.230  11.267  0.00  0.00    +0.000 A 
ENDBRANCH   4   6
ENDBRANCH   1   3
BRANCH   1  12
ATOM     12  N   UNL     1      32.916  22.258   9.304  0.00  0.00    +0.000 NA
BRANCH  12  19
ATOM     13  C   UNL     1      33.040  20.969  12.132  0.00  0.00    +0.000 C 
ATOM     14  C   UNL     1      33.711  20.533  10.892  0.00  0.00    +0.000 A 
ATOM     15  N   UNL     1      34.513  19.461  10.803  0.00  0.00    +0.000 NA
ATOM     16  N   UNL     1      34.964  19.326   9.566  0.00  0.00    +0.000 NA
ATOM     17  C   UNL     1      34.449  20.326   8.840  0.00  0.00    +0.000 A 
ATOM     18  C   UNL     1      34.703  20.543   7.404  0.00  0.00    +0.000 C 
ATOM     19  C   UNL     1      33.651  21.112   9.640  0.00  0.00    +0.000 A 
ENDBRANCH  12  19
ENDBRANCH   1  12
TORSDOF 4
ENDMDL
MODEL 2
REMARK VINA RESULT:      -6.1      0.059      2.129
REMARK  Name = 
REMARK  4 active torsions:
REMARK  status: ('A' for Active; 'I' for Inactive)
REMARK    1  A    between atoms: C_7  and  N_8
REMARK    2  A    between atoms: N_8  and  C_9
REMARK    3  A    between atoms: C_9  and  N_11
REMARK    4  A    between atoms: C_12  and  C_14
REMARK                            x       y       z     vdW  Elec       q    Type
REMARK                         _______ _______ _______ _____ _____    ______ ____
ROOT
ATOM      1  C   UNL     1      31.559  22.295   8.928  0.00  0.00    +0.000 C 
ATOM      2  S   UNL     1      31.081  21.823   7.440  0.00  0.00    +0.000 S 
ENDROOT
BRANCH   1   3
ATOM      3  N   UNL     1      30.546  22.737   9.823  0.00  0.00    +0.000 NA
ATOM      4  C   UNL     1      29.756  21.877  10.603  0.00  0.00    +0.000 C 
ATOM      5  O   UNL     1      29.927  20.634  10.529  0.00  0.00    +0.000 OA
BRANCH   4   6
ATOM      6  C   UNL     1      28.712  22.383  11.523  0.00  0.00    +0.000 A 
ATOM      7  C   UNL     1      27.382  22.213  11.248  0.00  0.00    +0.000 A 
ATOM      8  C   UNL     1      26.444  22.690  12.115  0.00  0.00    +0.000 A 
ATOM      9  C   UNL     1      26.794  23.344  13.269  0.00  0.00    +0.000 A 
ATOM     10  C   UNL     1      28.127  23.529  13.570  0.00  0.00    +0.000 A 
ATOM     11  C   UNL     1      29.060  23.039  12.680  0.00  0.00    +0.000 A 
ENDBRANCH   4   6
ENDBRANCH   1   3
BRANCH   1  12
ATOM     12  N   UNL     1      32.904  22.275   9.329  0.00  0.00    +0.000 NA
BRANCH  12  19
ATOM     13  C   UNL     1      34.714  20.570   7.461  0.00  0.00    +0.000 C 
ATOM     14  C   UNL     1      34.423  20.369   8.893  0.00  0.00    +0.000 A 
ATOM     15  N   UNL     1      34.924  19.368   9.634  0.00  0.00    +0.000 NA
ATOM     16  N   UNL     1      34.483  19.452  10.879  0.00  0.00    +0.000 NA
ATOM     17  C   UNL     1      33.683  20.523  10.950  0.00  0.00    +0.000 A 
ATOM     18  C   UNL     1      32.983  20.974  12.166  0.00  0.00    +0.000 C 
ATOM     19  C   UNL     1      33.617  21.131   9.716  0.00  0.00    +0.000 A 
ENDBRANCH  12  19
ENDBRANCH   1  12
TORSDOF 4
ENDMDL
MODEL 3
REMARK VINA RESULT:      -5.9     33.778     34.971
REMARK  Name = 
REMARK  4 active torsions:
REMARK  status: ('A' for Active; 'I' for Inactive)
REMARK    1  A    between atoms: C_7  and  N_8
REMARK    2  A    between atoms: N_8  and  C_9
REMARK    3  A    between atoms: C_9  and  N_11
REMARK    4  A    between atoms: C_12  and  C_14
REMARK                            x       y       z     vdW  Elec       q    Type
REMARK                         _______ _______ _______ _____ _____    ______ ____
ROOT
ATOM      1  C   UNL     1      20.321  -8.765  25.715  0.00  0.00    +0.000 C 
ATOM      2  S   UNL     1      20.311  -9.532  27.157  0.00  0.00    +0.000 S 
ENDROOT
BRANCH   1   3
ATOM      3  N   UNL     1      21.524  -8.826  24.959  0.00  0.00    +0.000 NA
ATOM      4  C   UNL     1      22.481  -7.799  24.922  0.00  0.00    +0.000 C 
ATOM      5  O   UNL     1      22.295  -6.747  25.584  0.00  0.00    +0.000 OA
BRANCH   4   6
ATOM      6  C   UNL     1      23.721  -7.906  24.119  0.00  0.00    +0.000 A 
ATOM      7  C   UNL     1      24.536  -6.824  23.926  0.00  0.00    +0.000 A 
ATOM      8  C   UNL     1      25.671  -6.954  23.182  0.00  0.00    +0.000 A 
ATOM      9  C   UNL     1      26.028  -8.150  22.613  0.00  0.00    +0.000 A 
ATOM     10  C   UNL     1      25.225  -9.256  22.792  0.00  0.00    +0.000 A 
ATOM     11  C   UNL     1      24.081  -9.103  23.548  0.00  0.00    +0.000 A 
ENDBRANCH   4   6
ENDBRANCH   1   3
BRANCH   1  12
ATOM     12  N   UNL     1      19.204  -8.072  25.222  0.00  0.00    +0.000 NA
BRANCH  12  19
ATOM     13  C   UNL     1      16.493  -9.062  26.379  0.00  0.00    +0.000 C 
ATOM     14  C   UNL     1      17.119  -7.732  26.512  0.00  0.00    +0.000 A 
ATOM     15  N   UNL     1      16.579  -6.707  27.188  0.00  0.00    +0.000 NA
ATOM     16  N   UNL     1      17.373  -5.649  27.128  0.00  0.00    +0.000 NA
ATOM     17  C   UNL     1      18.444  -5.991  26.403  0.00  0.00    +0.000 A 
ATOM     18  C   UNL     1      19.575  -5.098  26.095  0.00  0.00    +0.000 C 
ATOM     19  C   UNL     1      18.324  -7.300  25.994  0.00  0.00    +0.000 A 
ENDBRANCH  12  19
ENDBRANCH   1  12
TORSDOF 4
ENDMDL
MODEL 4
REMARK VINA RESULT:      -5.7      2.004      2.767
REMARK  Name = 
REMARK  4 active torsions:
REMARK  status: ('A' for Active; 'I' for Inactive)
REMARK    1  A    between atoms: C_7  and  N_8
REMARK    2  A    between atoms: N_8  and  C_9
REMARK    3  A    between atoms: C_9  and  N_11
REMARK    4  A    between atoms: C_12  and  C_14
REMARK                            x       y       z     vdW  Elec       q    Type
REMARK                         _______ _______ _______ _____ _____    ______ ____
ROOT
ATOM      1  C   UNL     1      33.219  21.321  10.993  0.00  0.00    +0.000 C 
ATOM      2  S   UNL     1      34.034  20.440  12.100  0.00  0.00    +0.000 S 
ENDROOT
BRANCH   1   3
ATOM      3  N   UNL     1      32.075  22.033  11.447  0.00  0.00    +0.000 NA
ATOM      4  C   UNL     1      30.798  21.465  11.582  0.00  0.00    +0.000 C 
ATOM      5  O   UNL     1      30.618  20.256  11.290  0.00  0.00    +0.000 OA
BRANCH   4   6
ATOM      6  C   UNL     1      29.633  22.245  12.059  0.00  0.00    +0.000 A 
ATOM      7  C   UNL     1      28.455  22.259  11.364  0.00  0.00    +0.000 A 
ATOM      8  C   UNL     1      27.401  22.987  11.830  0.00  0.00    +0.000 A 
ATOM      9  C   UNL     1      27.484  23.717  12.988  0.00  0.00    +0.000 A 
ATOM     10  C   UNL     1      28.660  23.722  13.708  0.00  0.00    +0.000 A 
ATOM     11  C   UNL     1      29.715  22.978  13.220  0.00  0.00    +0.000 A 
ENDBRANCH   4   6
ENDBRANCH   1   3
BRANCH   1  12
ATOM     12  N   UNL     1      33.611  21.389   9.646  0.00  0.00    +0.000 NA
BRANCH  12  19
ATOM     13  C   UNL     1      35.877  19.337   9.072  0.00  0.00    +0.000 C 
ATOM     14  C   UNL     1      34.534  19.418   8.466  0.00  0.00    +0.000 A 
ATOM     15  N   UNL     1      34.075  18.573   7.531  0.00  0.00    +0.000 NA
ATOM     16  N   UNL     1      32.840  18.899   7.183  0.00  0.00    +0.000 NA
ATOM     17  C   UNL     1      32.491  19.973   7.903  0.00  0.00    +0.000 A 
ATOM     18  C   UNL     1      31.188  20.657   7.819  0.00  0.00    +0.000 C 
ATOM     19  C   UNL     1      33.533  20.333   8.726  0.00  0.00    +0.000 A 
ENDBRANCH  12  19
ENDBRANCH   1  12
TORSDOF 4
ENDMDL
MODEL 5
REMARK VINA RESULT:      -5.6     13.051     15.399
REMARK  Name = 
REMARK  4 active torsions:
REMARK  status: ('A' for Active; 'I' for Inactive)
REMARK    1  A    between atoms: C_7  and  N_8
REMARK    2  A    between atoms: N_8  and  C_9
REMARK    3  A    between atoms: C_9  and  N_11
REMARK    4  A    between atoms: C_12  and  C_14
REMARK                            x       y       z     vdW  Elec       q    Type
REMARK                         _______ _______ _______ _____ _____    ______ ____
ROOT
ATOM      1  C   UNL     1      29.561  23.984  25.678  0.00  0.00    +0.000 C 
ATOM      2  S   UNL     1      29.466  22.571  26.490  0.00  0.00    +0.000 S 
ENDROOT
BRANCH   1   3
ATOM      3  N   UNL     1      30.834  24.615  25.623  0.00  0.00    +0.000 NA
ATOM      4  C   UNL     1      31.909  24.149  24.850  0.00  0.00    +0.000 C 
ATOM      5  O   UNL     1      31.774  23.114  24.151  0.00  0.00    +0.000 OA
BRANCH   4   6
ATOM      6  C   UNL     1      33.219  24.840  24.824  0.00  0.00    +0.000 A 
ATOM      7  C   UNL     1      34.364  24.176  24.476  0.00  0.00    +0.000 A 
ATOM      8  C   UNL     1      35.555  24.840  24.462  0.00  0.00    +0.000 A 
ATOM      9  C   UNL     1      35.645  26.168  24.790  0.00  0.00    +0.000 A 
ATOM     10  C   UNL     1      34.507  26.861  25.145  0.00  0.00    +0.000 A 
ATOM     11  C   UNL     1      33.312  26.171  25.154  0.00  0.00    +0.000 A 
ENDBRANCH   4   6
ENDBRANCH   1   3
BRANCH   1  12
ATOM     12  N   UNL     1      28.449  24.570  25.052  0.00  0.00    +0.000 NA
BRANCH  12  19
ATOM     13  C   UNL     1      25.749  23.027  25.132  0.00  0.00    +0.000 C 
ATOM     14  C   UNL     1      26.582  23.364  23.961  0.00  0.00    +0.000 A 
ATOM     15  N   UNL     1      26.277  23.036  22.697  0.00  0.00    +0.000 NA
ATOM     16  N   UNL     1      27.212  23.473  21.869  0.00  0.00    +0.000 NA
ATOM     17  C   UNL     1      28.141  24.096  22.607  0.00  0.00    +0.000 A 
ATOM     18  C   UNL     1      29.358  24.730  22.070  0.00  0.00    +0.000 C 
ATOM     19  C   UNL     1      27.780  24.049  23.935  0.00  0.00    +0.000 A 
ENDBRANCH  12  19
ENDBRANCH   1  12
TORSDOF 4
ENDMDL
MODEL 6
REMARK VINA RESULT:      -5.6     12.040     14.116
REMARK  Name = 
REMARK  4 active torsions:
REMARK  status: ('A' for Active; 'I' for Inactive)
REMARK    1  A    between atoms: C_7  and  N_8
REMARK    2  A    between atoms: N_8  and  C_9
REMARK    3  A    between atoms: C_9  and  N_11
REMARK    4  A    between atoms: C_12  and  C_14
REMARK                            x       y       z     vdW  Elec       q    Type
REMARK                         _______ _______ _______ _____ _____    ______ ____
ROOT
ATOM      1  C   UNL     1      30.015  23.967  23.750  0.00  0.00    +0.000 C 
ATOM      2  S   UNL     1      31.515  23.909  24.391  0.00  0.00    +0.000 S 
ENDROOT
BRANCH   1   3
ATOM      3  N   UNL     1      29.663  25.142  23.031  0.00  0.00    +0.000 NA
ATOM      4  C   UNL     1      29.511  25.195  21.637  0.00  0.00    +0.000 C 
ATOM      5  O   UNL     1      29.691  24.158  20.949  0.00  0.00    +0.000 OA
BRANCH   4   6
ATOM      6  C   UNL     1      29.144  26.443  20.930  0.00  0.00    +0.000 A 
ATOM      7  C   UNL     1      28.088  27.208  21.344  0.00  0.00    +0.000 A 
ATOM      8  C   UNL     1      27.775  28.352  20.672  0.00  0.00    +0.000 A 
ATOM      9  C   UNL     1      28.492  28.767  19.580  0.00  0.00    +0.000 A 
ATOM     10  C   UNL     1      29.561  28.015  19.140  0.00  0.00    +0.000 A 
ATOM     11  C   UNL     1      29.861  26.860  19.834  0.00  0.00    +0.000 A 
ENDBRANCH   4   6
ENDBRANCH   1   3
BRANCH   1  12
ATOM     12  N   UNL     1      29.095  22.915  23.889  0.00  0.00    +0.000 NA
BRANCH  12  19
ATOM     13  C   UNL     1      26.344  23.616  22.618  0.00  0.00    +0.000 C 
ATOM     14  C   UNL     1      26.653  23.300  24.026  0.00  0.00    +0.000 A 
ATOM     15  N   UNL     1      25.743  23.267  25.011  0.00  0.00    +0.000 NA
ATOM     16  N   UNL     1      26.320  22.953  26.160  0.00  0.00    +0.000 NA
ATOM     17  C   UNL     1      27.625  22.780  25.919  0.00  0.00    +0.000 A 
ATOM     18  C   UNL     1      28.630  22.420  26.936  0.00  0.00    +0.000 C 
ATOM     19  C   UNL     1      27.878  22.989  24.582  0.00  0.00    +0.000 A 
ENDBRANCH  12  19
ENDBRANCH   1  12
TORSDOF 4
ENDMDL
MODEL 7
REMARK VINA RESULT:      -5.4     32.442     34.427
REMARK  Name = 
REMARK  4 active torsions:
REMARK  status: ('A' for Active; 'I' for Inactive)
REMARK    1  A    between atoms: C_7  and  N_8
REMARK    2  A    between atoms: N_8  and  C_9
REMARK    3  A    between atoms: C_9  and  N_11
REMARK    4  A    between atoms: C_12  and  C_14
REMARK                            x       y       z     vdW  Elec       q    Type
REMARK                         _______ _______ _______ _____ _____    ______ ____
ROOT
ATOM      1  C   UNL     1      18.498   8.732  39.638  0.00  0.00    +0.000 C 
ATOM      2  S   UNL     1      19.570   9.548  40.560  0.00  0.00    +0.000 S 
ENDROOT
BRANCH   1   3
ATOM      3  N   UNL     1      17.523   9.501  38.945  0.00  0.00    +0.000 NA
ATOM      4  C   UNL     1      17.650   9.913  37.609  0.00  0.00    +0.000 C 
ATOM      5  O   UNL     1      18.677   9.601  36.955  0.00  0.00    +0.000 OA
BRANCH   4   6
ATOM      6  C   UNL     1      16.608  10.714  36.928  0.00  0.00    +0.000 A 
ATOM      7  C   UNL     1      16.635  10.910  35.574  0.00  0.00    +0.000 A 
ATOM      8  C   UNL     1      15.661  11.652  34.976  0.00  0.00    +0.000 A 
ATOM      9  C   UNL     1      14.640  12.217  35.696  0.00  0.00    +0.000 A 
ATOM     10  C   UNL     1      14.588  12.036  37.062  0.00  0.00    +0.000 A 
ATOM     11  C   UNL     1      15.584  11.282  37.648  0.00  0.00    +0.000 A 
ENDBRANCH   4   6
ENDBRANCH   1   3
BRANCH   1  12
ATOM     12  N   UNL     1      18.518   7.333  39.518  0.00  0.00    +0.000 NA
BRANCH  12  19
ATOM     13  C   UNL     1      20.241   4.861  40.289  0.00  0.00    +0.000 C 
ATOM     14  C   UNL     1      18.980   5.329  40.896  0.00  0.00    +0.000 A 
ATOM     15  N   UNL     1      18.364   4.722  41.922  0.00  0.00    +0.000 NA
ATOM     16  N   UNL     1      17.257   5.373  42.244  0.00  0.00    +0.000 NA
ATOM     17  C   UNL     1      17.151   6.419  41.415  0.00  0.00    +0.000 A 
ATOM     18  C   UNL     1      16.056   7.404  41.436  0.00  0.00    +0.000 C 
ATOM     19  C   UNL     1      18.220   6.428  40.547  0.00  0.00    +0.000 A 
ENDBRANCH  12  19
ENDBRANCH   1  12
TORSDOF 4
ENDMDL
MODEL 8
REMARK VINA RESULT:      -5.4     17.426     19.799
REMARK  Name = 
REMARK  4 active torsions:
REMARK  status: ('A' for Active; 'I' for Inactive)
REMARK    1  A    between atoms: C_7  and  N_8
REMARK    2  A    between atoms: N_8  and  C_9
REMARK    3  A    between atoms: C_9  and  N_11
REMARK    4  A    between atoms: C_12  and  C_14
REMARK                            x       y       z     vdW  Elec       q    Type
REMARK                         _______ _______ _______ _____ _____    ______ ____
ROOT
ATOM      1  C   UNL     1      28.336  23.192  27.153  0.00  0.00    +0.000 C 
ATOM      2  S   UNL     1      28.741  24.126  25.877  0.00  0.00    +0.000 S 
ENDROOT
BRANCH   1   3
ATOM      3  N   UNL     1      29.398  22.559  27.855  0.00  0.00    +0.000 NA
ATOM      4  C   UNL     1      30.072  23.134  28.944  0.00  0.00    +0.000 C 
ATOM      5  O   UNL     1      29.744  24.277  29.350  0.00  0.00    +0.000 OA
BRANCH   4   6
ATOM      6  C   UNL     1      31.175  22.437  29.646  0.00  0.00    +0.000 A 
ATOM      7  C   UNL     1      32.380  22.222  29.035  0.00  0.00    +0.000 A 
ATOM      8  C   UNL     1      33.375  21.577  29.708  0.00  0.00    +0.000 A 
ATOM      9  C   UNL     1      33.206  21.131  30.993  0.00  0.00    +0.000 A 
ATOM     10  C   UNL     1      32.002  21.334  31.633  0.00  0.00    +0.000 A 
ATOM     11  C   UNL     1      31.007  21.988  30.935  0.00  0.00    +0.000 A 
ENDBRANCH   4   6
ENDBRANCH   1   3
BRANCH   1  12
ATOM     12  N   UNL     1      27.004  23.007  27.559  0.00  0.00    +0.000 NA
BRANCH  12  19
ATOM     13  C   UNL     1      26.958  21.690  30.377  0.00  0.00    +0.000 C 
ATOM     14  C   UNL     1      26.396  22.990  29.959  0.00  0.00    +0.000 A 
ATOM     15  N   UNL     1      25.752  23.833  30.779  0.00  0.00    +0.000 NA
ATOM     16  N   UNL     1      25.367  24.913  30.118  0.00  0.00    +0.000 NA
ATOM     17  C   UNL     1      25.766  24.769  28.848  0.00  0.00    +0.000 A 
ATOM     18  C   UNL     1      25.536  25.753  27.775  0.00  0.00    +0.000 C 
ATOM     19  C   UNL     1      26.421  23.567  28.705  0.00  0.00    +0.000 A 
ENDBRANCH  12  19
ENDBRANCH   1  12
TORSDOF 4
ENDMDL
MODEL 9
REMARK VINA RESULT:      -5.3     14.004     16.043
REMARK  Name = 
REMARK  4 active torsions:
REMARK  status: ('A' for Active; 'I' for Inactive)
REMARK    1  A    between atoms: C_7  and  N_8
REMARK    2  A    between atoms: N_8  and  C_9
REMARK    3  A    between atoms: C_9  and  N_11
REMARK    4  A    between atoms: C_12  and  C_14
REMARK                            x       y       z     vdW  Elec       q    Type
REMARK                         _______ _______ _______ _____ _____    ______ ____
ROOT
ATOM      1  C   UNL     1      27.475  23.225  26.696  0.00  0.00    +0.000 C 
ATOM      2  S   UNL     1      28.351  23.431  28.058  0.00  0.00    +0.000 S 
ENDROOT
BRANCH   1   3
ATOM      3  N   UNL     1      26.181  23.813  26.663  0.00  0.00    +0.000 NA
ATOM      4  C   UNL     1      25.930  25.139  26.274  0.00  0.00    +0.000 C 
ATOM      5  O   UNL     1      26.884  25.880  25.928  0.00  0.00    +0.000 OA
BRANCH   4   6
ATOM      6  C   UNL     1      24.563  25.710  26.256  0.00  0.00    +0.000 A 
ATOM      7  C   UNL     1      24.030  26.237  25.112  0.00  0.00    +0.000 A 
ATOM      8  C   UNL     1      22.769  26.755  25.128  0.00  0.00    +0.000 A 
ATOM      9  C   UNL     1      22.008  26.767  26.268  0.00  0.00    +0.000 A 
ATOM     10  C   UNL     1      22.520  26.242  27.436  0.00  0.00    +0.000 A 
ATOM     11  C   UNL     1      23.798  25.723  27.399  0.00  0.00    +0.000 A 
ENDBRANCH   4   6
ENDBRANCH   1   3
BRANCH   1  12
ATOM     12  N   UNL     1      27.956  22.503  25.592  0.00  0.00    +0.000 NA
BRANCH  12  19
ATOM     13  C   UNL     1      30.996  22.931  25.093  0.00  0.00    +0.000 C 
ATOM     14  C   UNL     1      29.863  23.260  24.206  0.00  0.00    +0.000 A 
ATOM     15  N   UNL     1      29.990  23.820  22.994  0.00  0.00    +0.000 NA
ATOM     16  N   UNL     1      28.800  23.993  22.441  0.00  0.00    +0.000 NA
ATOM     17  C   UNL     1      27.885  23.539  23.307  0.00  0.00    +0.000 A 
ATOM     18  C   UNL     1      26.429  23.547  23.078  0.00  0.00    +0.000 C 
ATOM     19  C   UNL     1      28.515  23.066  24.436  0.00  0.00    +0.000 A 
ENDBRANCH  12  19
ENDBRANCH   1  12
TORSDOF 4
ENDMDL
MODEL 10
REMARK VINA RESULT:      -5.3     13.095     15.767
REMARK  Name = 
REMARK  4 active torsions:
REMARK  status: ('A' for Active; 'I' for Inactive)
REMARK    1  A    between atoms: C_7  and  N_8
REMARK    2  A    between atoms: N_8  and  C_9
REMARK    3  A    between atoms: C_9  and  N_11
REMARK    4  A    between atoms: C_12  and  C_14
REMARK                            x       y       z     vdW  Elec       q    Type
REMARK                         _______ _______ _______ _____ _____    ______ ____
ROOT
ATOM      1  C   UNL     1      28.711  23.097  25.272  0.00  0.00    +0.000 C 
ATOM      2  S   UNL     1      30.129  22.397  25.680  0.00  0.00    +0.000 S 
ENDROOT
BRANCH   1   3
ATOM      3  N   UNL     1      28.767  24.195  24.371  0.00  0.00    +0.000 NA
ATOM      4  C   UNL     1      28.407  24.119  23.016  0.00  0.00    +0.000 C 
ATOM      5  O   UNL     1      28.008  23.028  22.536  0.00  0.00    +0.000 OA
BRANCH   4   6
ATOM      6  C   UNL     1      28.482  25.291  22.113  0.00  0.00    +0.000 A 
ATOM      7  C   UNL     1      27.624  26.348  22.250  0.00  0.00    +0.000 A 
ATOM      8  C   UNL     1      27.718  27.412  21.404  0.00  0.00    +0.000 A 
ATOM      9  C   UNL     1      28.656  27.458  20.405  0.00  0.00    +0.000 A 
ATOM     10  C   UNL     1      29.533  26.407  20.243  0.00  0.00    +0.000 A 
ATOM     11  C   UNL     1      29.421  25.339  21.111  0.00  0.00    +0.000 A 
ENDBRANCH   4   6
ENDBRANCH   1   3
BRANCH   1  12
ATOM     12  N   UNL     1      27.478  22.651  25.775  0.00  0.00    +0.000 NA
BRANCH  12  19
ATOM     13  C   UNL     1      25.272  24.654  24.886  0.00  0.00    +0.000 C 
ATOM     14  C   UNL     1      25.665  24.266  26.255  0.00  0.00    +0.000 A 
ATOM     15  N   UNL     1      25.096  24.748  27.370  0.00  0.00    +0.000 NA
ATOM     16  N   UNL     1      25.660  24.215  28.442  0.00  0.00    +0.000 NA
ATOM     17  C   UNL     1      26.611  23.373  28.017  0.00  0.00    +0.000 A 
ATOM     18  C   UNL     1      27.480  22.570  28.896  0.00  0.00    +0.000 C 
ATOM     19  C   UNL     1      26.647  23.376  26.641  0.00  0.00    +0.000 A 
ENDBRANCH  12  19
ENDBRANCH   1  12
TORSDOF 4
ENDMDL
