MODEL 1
REMARK VINA RESULT:      -7.3      0.000      0.000
REMARK  Name = 
REMARK  4 active torsions:
REMARK  status: ('A' for Active; 'I' for Inactive)
REMARK    1  A    between atoms: C_2  and  C_3
REMARK    2  A    between atoms: C_6  and  N_7
REMARK    3  A    between atoms: C_8  and  C_10
REMARK    4  A    between atoms: C_14  and  N_15
REMARK                            x       y       z     vdW  Elec       q    Type
REMARK                         _______ _______ _______ _____ _____    ______ ____
ROOT
ATOM      1  N   UNL     1      16.318  10.193  35.174  0.00  0.00    +0.000 NA
ATOM      2  C   UNL     1      17.038  10.881  36.194  0.00  0.00    +0.000 C 
ATOM      3  O   UNL     1      17.300  12.119  35.990  0.00  0.00    +0.000 OA
ENDROOT
BRANCH   2   4
ATOM      4  C   UNL     1      17.483  10.255  37.437  0.00  0.00    +0.000 A 
ATOM      5  C   UNL     1      18.777   9.718  37.469  0.00  0.00    +0.000 A 
ATOM      6  C   UNL     1      19.240   9.151  38.652  0.00  0.00    +0.000 A 
ATOM      7  C   UNL     1      18.451   9.110  39.777  0.00  0.00    +0.000 A 
ATOM      8  C   UNL     1      17.161   9.625  39.787  0.00  0.00    +0.000 A 
ATOM      9  C   UNL     1      16.722  10.190  38.590  0.00  0.00    +0.000 A 
ATOM     10  C   UNL     1      15.366  10.783  38.478  0.00  0.00    +0.000 C 
BRANCH   8  11
ATOM     11  N   UNL     1      16.351   9.547  40.948  0.00  0.00    +0.000 N 
ATOM     12  O   UNL     1      15.188   9.166  40.949  0.00  0.00    +0.000 OA
ATOM     13  O   UNL     1      16.954   9.950  42.129  0.00  0.00    +0.000 OA
ENDBRANCH   8  11
ENDBRANCH   2   4
BRANCH   1  17
ATOM     14  C   UNL     1      15.319  12.443  31.718  0.00  0.00    +0.000 A 
ATOM     15  C   UNL     1      14.721  12.685  32.923  0.00  0.00    +0.000 A 
ATOM     16  C   UNL     1      15.032  11.964  34.061  0.00  0.00    +0.000 A 
ATOM     17  C   UNL     1      15.972  10.956  34.039  0.00  0.00    +0.000 A 
ATOM     18  C   UNL     1      16.577  10.706  32.812  0.00  0.00    +0.000 A 
ATOM     19  C   UNL     1      16.274  11.425  31.665  0.00  0.00    +0.000 A 
BRANCH  14  21
ATOM     20  C   UNL     1      16.252  13.965  30.037  0.00  0.00    +0.000 C 
ATOM     21  C   UNL     1      15.021  13.182  30.450  0.00  0.00    +0.000 C 
ENDBRANCH  14  21
ENDBRANCH   1  17
TORSDOF 4
ENDMDL
MODEL 2
REMARK VINA RESULT:      -7.1      2.758      8.045
REMARK  Name = 
REMARK  4 active torsions:
REMARK  status: ('A' for Active; 'I' for Inactive)
REMARK    1  A    between atoms: C_2  and  C_3
REMARK    2  A    between atoms: C_6  and  N_7
REMARK    3  A    between atoms: C_8  and  C_10
REMARK    4  A    between atoms: C_14  and  N_15
REMARK                            x       y       z     vdW  Elec       q    Type
REMARK                         _______ _______ _______ _____ _____    ______ ____
ROOT
ATOM      1  N   UNL     1      16.288  12.009  36.005  0.00  0.00    +0.000 NA
ATOM      2  C   UNL     1      14.940  12.065  35.546  0.00  0.00    +0.000 C 
ATOM      3  O   UNL     1      14.069  11.399  36.210  0.00  0.00    +0.000 OA
ENDROOT
BRANCH   2   4
ATOM      4  C   UNL     1      14.511  12.828  34.376  0.00  0.00    +0.000 A 
ATOM      5  C   UNL     1      13.685  13.939  34.589  0.00  0.00    +0.000 A 
ATOM      6  C   UNL     1      13.294  14.706  33.496  0.00  0.00    +0.000 A 
ATOM      7  C   UNL     1      13.703  14.389  32.223  0.00  0.00    +0.000 A 
ATOM      8  C   UNL     1      14.517  13.292  31.966  0.00  0.00    +0.000 A 
ATOM      9  C   UNL     1      14.896  12.543  33.078  0.00  0.00    +0.000 A 
ATOM     10  C   UNL     1      15.774  11.354  32.934  0.00  0.00    +0.000 C 
BRANCH   8  11
ATOM     11  N   UNL     1      14.904  12.963  30.642  0.00  0.00    +0.000 N 
ATOM     12  O   UNL     1      15.738  13.586  29.997  0.00  0.00    +0.000 OA
ATOM     13  O   UNL     1      14.261  11.871  30.082  0.00  0.00    +0.000 OA
ENDBRANCH   8  11
ENDBRANCH   2   4
BRANCH   1  17
ATOM     14  C   UNL     1      17.054   9.615  39.423  0.00  0.00    +0.000 A 
ATOM     15  C   UNL     1      15.906  10.348  39.310  0.00  0.00    +0.000 A 
ATOM     16  C   UNL     1      15.636  11.134  38.205  0.00  0.00    +0.000 A 
ATOM     17  C   UNL     1      16.520  11.218  37.150  0.00  0.00    +0.000 A 
ATOM     18  C   UNL     1      17.691  10.477  37.268  0.00  0.00    +0.000 A 
ATOM     19  C   UNL     1      17.970   9.684  38.371  0.00  0.00    +0.000 A 
BRANCH  14  21
ATOM     20  C   UNL     1      18.558   7.845  40.208  0.00  0.00    +0.000 C 
ATOM     21  C   UNL     1      17.407   8.753  40.596  0.00  0.00    +0.000 C 
ENDBRANCH  14  21
ENDBRANCH   1  17
TORSDOF 4
ENDMDL
MODEL 3
REMARK VINA RESULT:      -7.0     21.258     22.725
REMARK  Name = 
REMARK  4 active torsions:
REMARK  status: ('A' for Active; 'I' for Inactive)
REMARK    1  A    between atoms: C_2  and  C_3
REMARK    2  A    between atoms: C_6  and  N_7
REMARK    3  A    between atoms: C_8  and  C_10
REMARK    4  A    between atoms: C_14  and  N_15
REMARK                            x       y       z     vdW  Elec       q    Type
REMARK                         _______ _______ _______ _____ _____    ______ ____
ROOT
ATOM      1  N   UNL     1      22.012  -6.656  23.832  0.00  0.00    +0.000 NA
ATOM      2  C   UNL     1      21.512  -7.164  25.066  0.00  0.00    +0.000 C 
ATOM      3  O   UNL     1      22.246  -8.010  25.689  0.00  0.00    +0.000 OA
ENDROOT
BRANCH   2   4
ATOM      4  C   UNL     1      20.228  -6.776  25.643  0.00  0.00    +0.000 A 
ATOM      5  C   UNL     1      20.101  -5.470  26.134  0.00  0.00    +0.000 A 
ATOM      6  C   UNL     1      18.876  -5.063  26.654  0.00  0.00    +0.000 A 
ATOM      7  C   UNL     1      17.801  -5.918  26.693  0.00  0.00    +0.000 A 
ATOM      8  C   UNL     1      17.885  -7.223  26.222  0.00  0.00    +0.000 A 
ATOM      9  C   UNL     1      19.121  -7.605  25.705  0.00  0.00    +0.000 A 
ATOM     10  C   UNL     1      19.333  -8.970  25.163  0.00  0.00    +0.000 C 
BRANCH   8  11
ATOM     11  N   UNL     1      16.773  -8.100  26.299  0.00  0.00    +0.000 N 
ATOM     12  O   UNL     1      16.673  -9.011  27.110  0.00  0.00    +0.000 OA
ATOM     13  O   UNL     1      15.770  -7.881  25.368  0.00  0.00    +0.000 OA
ENDBRANCH   8  11
ENDBRANCH   2   4
BRANCH   1  17
ATOM     14  C   UNL     1      25.832  -8.080  22.655  0.00  0.00    +0.000 A 
ATOM     15  C   UNL     1      24.684  -8.692  22.237  0.00  0.00    +0.000 A 
ATOM     16  C   UNL     1      23.430  -8.245  22.608  0.00  0.00    +0.000 A 
ATOM     17  C   UNL     1      23.272  -7.146  23.425  0.00  0.00    +0.000 A 
ATOM     18  C   UNL     1      24.440  -6.526  23.856  0.00  0.00    +0.000 A 
ATOM     19  C   UNL     1      25.702  -6.966  23.487  0.00  0.00    +0.000 A 
BRANCH  14  21
ATOM     20  C   UNL     1      28.065  -7.295  22.016  0.00  0.00    +0.000 C 
ATOM     21  C   UNL     1      27.217  -8.521  22.295  0.00  0.00    +0.000 C 
ENDBRANCH  14  21
ENDBRANCH   1  17
TORSDOF 4
ENDMDL
MODEL 4
REMARK VINA RESULT:      -6.9      1.670      2.183
REMARK  Name = 
REMARK  4 active torsions:
REMARK  status: ('A' for Active; 'I' for Inactive)
REMARK    1  A    between atoms: C_2  and  C_3
REMARK    2  A    between atoms: C_6  and  N_7
REMARK    3  A    between atoms: C_8  and  C_10
REMARK    4  A    between atoms: C_14  and  N_15
REMARK                            x       y       z     vdW  Elec       q    Type
REMARK                         _______ _______ _______ _____ _____    ______ ____
ROOT
ATOM      1  N   UNL     1      15.919  10.542  35.473  0.00  0.00    +0.000 NA
ATOM      2  C   UNL     1      16.395  11.297  36.584  0.00  0.00    +0.000 C 
ATOM      3  O   UNL     1      16.578  12.552  36.401  0.00  0.00    +0.000 OA
ENDROOT
BRANCH   2   4
ATOM      4  C   UNL     1      16.682  10.721  37.895  0.00  0.00    +0.000 A 
ATOM      5  C   UNL     1      15.605  10.521  38.769  0.00  0.00    +0.000 A 
ATOM      6  C   UNL     1      15.845   9.938  40.009  0.00  0.00    +0.000 A 
ATOM      7  C   UNL     1      17.112   9.560  40.384  0.00  0.00    +0.000 A 
ATOM      8  C   UNL     1      18.209   9.745  39.551  0.00  0.00    +0.000 A 
ATOM      9  C   UNL     1      17.941  10.329  38.314  0.00  0.00    +0.000 A 
ATOM     10  C   UNL     1      19.028  10.570  37.332  0.00  0.00    +0.000 C 
BRANCH   8  11
ATOM     11  N   UNL     1      19.513   9.377  39.967  0.00  0.00    +0.000 N 
ATOM     12  O   UNL     1      19.987   8.257  39.827  0.00  0.00    +0.000 OA
ATOM     13  O   UNL     1      20.254  10.377  40.577  0.00  0.00    +0.000 OA
ENDBRANCH   8  11
ENDBRANCH   2   4
BRANCH   1  17
ATOM     14  C   UNL     1      15.314  12.674  31.855  0.00  0.00    +0.000 A 
ATOM     15  C   UNL     1      14.527  12.894  32.951  0.00  0.00    +0.000 A 
ATOM     16  C   UNL     1      14.707  12.211  34.139  0.00  0.00    +0.000 A 
ATOM     17  C   UNL     1      15.701  11.266  34.281  0.00  0.00    +0.000 A 
ATOM     18  C   UNL     1      16.498  11.038  33.164  0.00  0.00    +0.000 A 
ATOM     19  C   UNL     1      16.326  11.719  31.968  0.00  0.00    +0.000 A 
BRANCH  14  21
ATOM     20  C   UNL     1      16.533  13.819  30.062  0.00  0.00    +0.000 C 
ATOM     21  C   UNL     1      15.164  13.375  30.539  0.00  0.00    +0.000 C 
ENDBRANCH  14  21
ENDBRANCH   1  17
TORSDOF 4
ENDMDL
MODEL 5
REMARK VINA RESULT:      -6.4      4.848      6.696
REMARK  Name = 
REMARK  4 active torsions:
REMARK  status: ('A' for Active; 'I' for Inactive)
REMARK    1  A    between atoms: C_2  and  C_3
REMARK    2  A    between atoms: C_6  and  N_7
REMARK    3  A    between atoms: C_8  and  C_10
REMARK    4  A    between atoms: C_14  and  N_15
REMARK                            x       y       z     vdW  Elec       q    Type
REMARK                         _______ _______ _______ _____ _____    ______ ____
ROOT
ATOM      1  N   UNL     1      20.111   9.517  37.064  0.00  0.00    +0.000 NA
ATOM      2  C   UNL     1      21.139  10.404  37.500  0.00  0.00    +0.000 C 
ATOM      3  O   UNL     1      20.770  11.484  38.082  0.00  0.00    +0.000 OA
ENDROOT
BRANCH   2   4
ATOM      4  C   UNL     1      22.565  10.147  37.315  0.00  0.00    +0.000 A 
ATOM      5  C   UNL     1      23.165  10.614  36.139  0.00  0.00    +0.000 A 
ATOM      6  C   UNL     1      24.531  10.416  35.955  0.00  0.00    +0.000 A 
ATOM      7  C   UNL     1      25.289   9.773  36.905  0.00  0.00    +0.000 A 
ATOM      8  C   UNL     1      24.733   9.289  38.082  0.00  0.00    +0.000 A 
ATOM      9  C   UNL     1      23.365   9.502  38.242  0.00  0.00    +0.000 A 
ATOM     10  C   UNL     1      22.658   9.040  39.463  0.00  0.00    +0.000 C 
BRANCH   8  11
ATOM     11  N   UNL     1      25.526   8.601  39.036  0.00  0.00    +0.000 N 
ATOM     12  O   UNL     1      25.730   7.394  39.016  0.00  0.00    +0.000 OA
ATOM     13  O   UNL     1      26.070   9.384  40.041  0.00  0.00    +0.000 OA
ENDBRANCH   8  11
ENDBRANCH   2   4
BRANCH   1  17
ATOM     14  C   UNL     1      16.120  10.772  37.770  0.00  0.00    +0.000 A 
ATOM     15  C   UNL     1      16.885  10.236  38.768  0.00  0.00    +0.000 A 
ATOM     16  C   UNL     1      18.187   9.821  38.560  0.00  0.00    +0.000 A 
ATOM     17  C   UNL     1      18.787   9.930  37.324  0.00  0.00    +0.000 A 
ATOM     18  C   UNL     1      18.007  10.470  36.306  0.00  0.00    +0.000 A 
ATOM     19  C   UNL     1      16.701  10.891  36.506  0.00  0.00    +0.000 A 
BRANCH  14  21
ATOM     20  C   UNL     1      14.411  12.293  36.888  0.00  0.00    +0.000 C 
ATOM     21  C   UNL     1      14.704  11.231  37.931  0.00  0.00    +0.000 C 
ENDBRANCH  14  21
ENDBRANCH   1  17
TORSDOF 4
ENDMDL
MODEL 6
REMARK VINA RESULT:      -6.4     19.562     22.196
REMARK  Name = 
REMARK  4 active torsions:
REMARK  status: ('A' for Active; 'I' for Inactive)
REMARK    1  A    between atoms: C_2  and  C_3
REMARK    2  A    between atoms: C_6  and  N_7
REMARK    3  A    between atoms: C_8  and  C_10
REMARK    4  A    between atoms: C_14  and  N_15
REMARK                            x       y       z     vdW  Elec       q    Type
REMARK                         _______ _______ _______ _____ _____    ______ ____
ROOT
ATOM      1  N   UNL     1      29.852  23.636  27.386  0.00  0.00    +0.000 NA
ATOM      2  C   UNL     1      29.477  22.785  26.305  0.00  0.00    +0.000 C 
ATOM      3  O   UNL     1      29.808  21.551  26.393  0.00  0.00    +0.000 OA
ENDROOT
BRANCH   2   4
ATOM      4  C   UNL     1      28.751  23.245  25.123  0.00  0.00    +0.000 A 
ATOM      5  C   UNL     1      27.357  23.114  25.123  0.00  0.00    +0.000 A 
ATOM      6  C   UNL     1      26.638  23.579  24.026  0.00  0.00    +0.000 A 
ATOM      7  C   UNL     1      27.273  24.159  22.954  0.00  0.00    +0.000 A 
ATOM      8  C   UNL     1      28.655  24.303  22.911  0.00  0.00    +0.000 A 
ATOM      9  C   UNL     1      29.350  23.831  24.022  0.00  0.00    +0.000 A 
ATOM     10  C   UNL     1      30.829  23.938  24.099  0.00  0.00    +0.000 C 
BRANCH   8  11
ATOM     11  N   UNL     1      29.294  24.876  21.782  0.00  0.00    +0.000 N 
ATOM     12  O   UNL     1      29.680  24.234  20.814  0.00  0.00    +0.000 OA
ATOM     13  O   UNL     1      29.485  26.247  21.832  0.00  0.00    +0.000 OA
ENDBRANCH   8  11
ENDBRANCH   2   4
BRANCH   1  17
ATOM     14  C   UNL     1      32.022  21.779  30.523  0.00  0.00    +0.000 A 
ATOM     15  C   UNL     1      30.762  22.271  30.722  0.00  0.00    +0.000 A 
ATOM     16  C   UNL     1      30.038  22.879  29.714  0.00  0.00    +0.000 A 
ATOM     17  C   UNL     1      30.553  23.020  28.444  0.00  0.00    +0.000 A 
ATOM     18  C   UNL     1      31.837  22.524  28.241  0.00  0.00    +0.000 A 
ATOM     19  C   UNL     1      32.571  21.911  29.246  0.00  0.00    +0.000 A 
BRANCH  14  21
ATOM     20  C   UNL     1      34.295  21.582  31.421  0.00  0.00    +0.000 C 
ATOM     21  C   UNL     1      32.859  21.119  31.575  0.00  0.00    +0.000 C 
ENDBRANCH  14  21
ENDBRANCH   1  17
TORSDOF 4
ENDMDL
MODEL 7
REMARK VINA RESULT:      -6.3      3.704      5.487
REMARK  Name = 
REMARK  4 active torsions:
REMARK  status: ('A' for Active; 'I' for Inactive)
REMARK    1  A    between atoms: C_2  and  C_3
REMARK    2  A    between atoms: C_6  and  N_7
REMARK    3  A    between atoms: C_8  and  C_10
REMARK    4  A    between atoms: C_14  and  N_15
REMARK                            x       y       z     vdW  Elec       q    Type
REMARK                         _______ _______ _______ _____ _____    ______ ____
ROOT
ATOM      1  N   UNL     1      18.744   9.612  37.080  0.00  0.00    +0.000 NA
ATOM      2  C   UNL     1      19.867  10.407  37.452  0.00  0.00    +0.000 C 
ATOM      3  O   UNL     1      19.658  11.654  37.655  0.00  0.00    +0.000 OA
ENDROOT
BRANCH   2   4
ATOM      4  C   UNL     1      21.220   9.878  37.609  0.00  0.00    +0.000 A 
ATOM      5  C   UNL     1      22.039   9.836  36.473  0.00  0.00    +0.000 A 
ATOM      6  C   UNL     1      23.345   9.372  36.602  0.00  0.00    +0.000 A 
ATOM      7  C   UNL     1      23.835   8.959  37.818  0.00  0.00    +0.000 A 
ATOM      8  C   UNL     1      23.055   8.978  38.968  0.00  0.00    +0.000 A 
ATOM      9  C   UNL     1      21.752   9.448  38.812  0.00  0.00    +0.000 A 
ATOM     10  C   UNL     1      20.825   9.527  39.968  0.00  0.00    +0.000 C 
BRANCH   8  11
ATOM     11  N   UNL     1      23.568   8.518  40.207  0.00  0.00    +0.000 N 
ATOM     12  O   UNL     1      24.159   9.229  41.010  0.00  0.00    +0.000 OA
ATOM     13  O   UNL     1      23.378   7.172  40.475  0.00  0.00    +0.000 OA
ENDBRANCH   8  11
ENDBRANCH   2   4
BRANCH   1  17
ATOM     14  C   UNL     1      15.030  11.649  36.831  0.00  0.00    +0.000 A 
ATOM     15  C   UNL     1      15.869  11.564  35.756  0.00  0.00    +0.000 A 
ATOM     16  C   UNL     1      17.083  10.905  35.815  0.00  0.00    +0.000 A 
ATOM     17  C   UNL     1      17.512  10.293  36.973  0.00  0.00    +0.000 A 
ATOM     18  C   UNL     1      16.662  10.384  38.069  0.00  0.00    +0.000 A 
ATOM     19  C   UNL     1      15.441  11.041  38.019  0.00  0.00    +0.000 A 
BRANCH  14  21
ATOM     20  C   UNL     1      12.659  11.428  37.415  0.00  0.00    +0.000 C 
ATOM     21  C   UNL     1      13.709  12.354  36.833  0.00  0.00    +0.000 C 
ENDBRANCH  14  21
ENDBRANCH   1  17
TORSDOF 4
ENDMDL
MODEL 8
REMARK VINA RESULT:      -6.3     18.647     21.194
REMARK  Name = 
REMARK  4 active torsions:
REMARK  status: ('A' for Active; 'I' for Inactive)
REMARK    1  A    between atoms: C_2  and  C_3
REMARK    2  A    between atoms: C_6  and  N_7
REMARK    3  A    between atoms: C_8  and  C_10
REMARK    4  A    between atoms: C_14  and  N_15
REMARK                            x       y       z     vdW  Elec       q    Type
REMARK                         _______ _______ _______ _____ _____    ______ ____
ROOT
ATOM      1  N   UNL     1      29.943  23.674  27.493  0.00  0.00    +0.000 NA
ATOM      2  C   UNL     1      29.688  22.757  26.432  0.00  0.00    +0.000 C 
ATOM      3  O   UNL     1      29.943  21.521  26.656  0.00  0.00    +0.000 OA
ENDROOT
BRANCH   2   4
ATOM      4  C   UNL     1      29.163  23.150  25.127  0.00  0.00    +0.000 A 
ATOM      5  C   UNL     1      30.081  23.561  24.152  0.00  0.00    +0.000 A 
ATOM      6  C   UNL     1      29.610  23.904  22.888  0.00  0.00    +0.000 A 
ATOM      7  C   UNL     1      28.270  23.847  22.589  0.00  0.00    +0.000 A 
ATOM      8  C   UNL     1      27.326  23.451  23.528  0.00  0.00    +0.000 A 
ATOM      9  C   UNL     1      27.823  23.111  24.785  0.00  0.00    +0.000 A 
ATOM     10  C   UNL     1      26.915  22.662  25.869  0.00  0.00    +0.000 C 
BRANCH   8  11
ATOM     11  N   UNL     1      25.944  23.427  23.210  0.00  0.00    +0.000 N 
ATOM     12  O   UNL     1      25.466  22.795  22.277  0.00  0.00    +0.000 OA
ATOM     13  O   UNL     1      25.126  24.193  24.025  0.00  0.00    +0.000 OA
ENDBRANCH   8  11
ENDBRANCH   2   4
BRANCH   1  17
ATOM     14  C   UNL     1      31.411  21.999  31.104  0.00  0.00    +0.000 A 
ATOM     15  C   UNL     1      32.214  22.142  30.008  0.00  0.00    +0.000 A 
ATOM     16  C   UNL     1      31.757  22.685  28.822  0.00  0.00    +0.000 A 
ATOM     17  C   UNL     1      30.455  23.116  28.684  0.00  0.00    +0.000 A 
ATOM     18  C   UNL     1      29.635  22.966  29.798  0.00  0.00    +0.000 A 
ATOM     19  C   UNL     1      30.086  22.424  30.993  0.00  0.00    +0.000 A 
BRANCH  14  21
ATOM     20  C   UNL     1      30.640  21.308  33.327  0.00  0.00    +0.000 C 
ATOM     21  C   UNL     1      31.845  21.411  32.412  0.00  0.00    +0.000 C 
ENDBRANCH  14  21
ENDBRANCH   1  17
TORSDOF 4
ENDMDL
MODEL 9
REMARK VINA RESULT:      -6.2     18.935     21.155
REMARK  Name = 
REMARK  4 active torsions:
REMARK  status: ('A' for Active; 'I' for Inactive)
REMARK    1  A    between atoms: C_2  and  C_3
REMARK    2  A    between atoms: C_6  and  N_7
REMARK    3  A    between atoms: C_8  and  C_10
REMARK    4  A    between atoms: C_14  and  N_15
REMARK                            x       y       z     vdW  Elec       q    Type
REMARK                         _______ _______ _______ _____ _____    ______ ____
ROOT
ATOM      1  N   UNL     1      34.318  -0.940  34.475  0.00  0.00    +0.000 NA
ATOM      2  C   UNL     1      33.305   0.052  34.623  0.00  0.00    +0.000 C 
ATOM      3  O   UNL     1      32.101  -0.361  34.768  0.00  0.00    +0.000 OA
ENDROOT
BRANCH   2   4
ATOM      4  C   UNL     1      33.568   1.489  34.615  0.00  0.00    +0.000 A 
ATOM      5  C   UNL     1      33.431   2.171  33.399  0.00  0.00    +0.000 A 
ATOM      6  C   UNL     1      33.638   3.546  33.372  0.00  0.00    +0.000 A 
ATOM      7  C   UNL     1      33.974   4.237  34.512  0.00  0.00    +0.000 A 
ATOM      8  C   UNL     1      34.127   3.599  35.737  0.00  0.00    +0.000 A 
ATOM      9  C   UNL     1      33.912   2.222  35.737  0.00  0.00    +0.000 A 
ATOM     10  C   UNL     1      34.035   1.431  36.987  0.00  0.00    +0.000 C 
BRANCH   8  11
ATOM     11  N   UNL     1      34.504   4.324  36.896  0.00  0.00    +0.000 N 
ATOM     12  O   UNL     1      35.664   4.507  37.243  0.00  0.00    +0.000 OA
ATOM     13  O   UNL     1      33.461   4.824  37.658  0.00  0.00    +0.000 OA
ENDBRANCH   8  11
ENDBRANCH   2   4
BRANCH   1  17
ATOM     14  C   UNL     1      33.003  -4.974  34.485  0.00  0.00    +0.000 A 
ATOM     15  C   UNL     1      33.306  -4.321  35.647  0.00  0.00    +0.000 A 
ATOM     16  C   UNL     1      33.735  -3.007  35.666  0.00  0.00    +0.000 A 
ATOM     17  C   UNL     1      33.880  -2.281  34.504  0.00  0.00    +0.000 A 
ATOM     18  C   UNL     1      33.578  -2.947  33.320  0.00  0.00    +0.000 A 
ATOM     19  C   UNL     1      33.144  -4.264  33.291  0.00  0.00    +0.000 A 
BRANCH  14  21
ATOM     20  C   UNL     1      31.029  -6.415  34.302  0.00  0.00    +0.000 C 
ATOM     21  C   UNL     1      32.542  -6.396  34.398  0.00  0.00    +0.000 C 
ENDBRANCH  14  21
ENDBRANCH   1  17
TORSDOF 4
ENDMDL
MODEL 10
REMARK VINA RESULT:      -6.2     18.799     20.021
REMARK  Name = 
REMARK  4 active torsions:
REMARK  status: ('A' for Active; 'I' for Inactive)
REMARK    1  A    between atoms: C_2  and  C_3
REMARK    2  A    between atoms: C_6  and  N_7
REMARK    3  A    between atoms: C_8  and  C_10
REMARK    4  A    between atoms: C_14  and  N_15
REMARK                            x       y       z     vdW  Elec       q    Type
REMARK                         _______ _______ _______ _____ _____    ______ ____
ROOT
ATOM      1  N   UNL     1      30.465  21.746  27.310  0.00  0.00    +0.000 NA
ATOM      2  C   UNL     1      31.110  22.653  28.200  0.00  0.00    +0.000 C 
ATOM      3  O   UNL     1      31.140  23.886  27.854  0.00  0.00    +0.000 OA
ENDROOT
BRANCH   2   4
ATOM      4  C   UNL     1      31.728  22.252  29.461  0.00  0.00    +0.000 A 
ATOM      5  C   UNL     1      33.021  21.715  29.412  0.00  0.00    +0.000 A 
ATOM      6  C   UNL     1      33.648  21.360  30.602  0.00  0.00    +0.000 A 
ATOM      7  C   UNL     1      33.020  21.528  31.813  0.00  0.00    +0.000 A 
ATOM      8  C   UNL     1      31.736  22.052  31.907  0.00  0.00    +0.000 A 
ATOM      9  C   UNL     1      31.132  22.400  30.701  0.00  0.00    +0.000 A 
ATOM     10  C   UNL     1      29.765  22.979  30.671  0.00  0.00    +0.000 C 
BRANCH   8  11
ATOM     11  N   UNL     1      31.093  22.189  33.163  0.00  0.00    +0.000 N 
ATOM     12  O   UNL     1      31.185  23.181  33.876  0.00  0.00    +0.000 OA
ATOM     13  O   UNL     1      30.337  21.103  33.573  0.00  0.00    +0.000 OA
ENDBRANCH   8  11
ENDBRANCH   2   4
BRANCH   1  17
ATOM     14  C   UNL     1      28.778  23.448  23.808  0.00  0.00    +0.000 A 
ATOM     15  C   UNL     1      30.113  23.166  23.892  0.00  0.00    +0.000 A 
ATOM     16  C   UNL     1      30.683  22.611  25.022  0.00  0.00    +0.000 A 
ATOM     17  C   UNL     1      29.926  22.309  26.134  0.00  0.00    +0.000 A 
ATOM     18  C   UNL     1      28.568  22.601  26.052  0.00  0.00    +0.000 A 
ATOM     19  C   UNL     1      27.987  23.156  24.921  0.00  0.00    +0.000 A 
BRANCH  14  21
ATOM     20  C   UNL     1      29.165  24.534  21.644  0.00  0.00    +0.000 C 
ATOM     21  C   UNL     1      28.104  24.056  22.617  0.00  0.00    +0.000 C 
ENDBRANCH  14  21
ENDBRANCH   1  17
TORSDOF 4
ENDMDL
