MODEL 1
REMARK VINA RESULT:      -7.5      0.000      0.000
REMARK  Name = 
REMARK  2 active torsions:
REMARK  status: ('A' for Active; 'I' for Inactive)
REMARK    1  A    between atoms: C_11  and  C_12
REMARK    2  A    between atoms: C_13  and  C_14
REMARK                            x       y       z     vdW  Elec       q    Type
REMARK                         _______ _______ _______ _____ _____    ______ ____
ROOT
ATOM      1  C   UNL     1      15.467  11.710  30.451  0.00  0.00    +0.000 C 
ATOM      2  C   UNL     1      15.517  11.708  31.958  0.00  0.00    +0.000 A 
ATOM      3  S   UNL     1      16.530  10.706  32.936  0.00  0.00    +0.000 S 
ATOM      4  C   UNL     1      16.043  11.252  34.455  0.00  0.00    +0.000 A 
ATOM      5  C   UNL     1      15.122  12.183  34.222  0.00  0.00    +0.000 A 
ATOM      6  C   UNL     1      14.841  12.426  32.875  0.00  0.00    +0.000 A 
ATOM      7  C   UNL     1      13.838  13.433  32.360  0.00  0.00    +0.000 C 
ATOM      8  C   UNL     1      14.482  12.850  35.364  0.00  0.00    +0.000 C 
ATOM      9  O   UNL     1      13.597  13.749  35.224  0.00  0.00    +0.000 OA
ATOM     10  N   UNL     1      14.897  12.448  36.628  0.00  0.00    +0.000 NA
ATOM     11  C   UNL     1      16.373  11.991  36.867  0.00  0.00    +0.000 C 
ATOM     12  N   UNL     1      16.433  10.900  35.705  0.00  0.00    +0.000 NA
ENDROOT
BRANCH  11  13
ATOM     13  C   UNL     1      15.971  10.900  37.988  0.00  0.00    +0.000 C 
ATOM     14  C   UNL     1      16.858  10.394  38.716  0.00  0.00    +0.000 C 
BRANCH  14  15
ATOM     15  C   UNL     1      16.958   9.455  39.767  0.00  0.00    +0.000 A 
ATOM     16  C   UNL     1      15.968   9.505  40.730  0.00  0.00    +0.000 A 
ATOM     17  C   UNL     1      15.921   8.658  41.818  0.00  0.00    +0.000 A 
ATOM     18  C   UNL     1      16.895   7.697  41.991  0.00  0.00    +0.000 A 
ATOM     19  C   UNL     1      17.891   7.634  41.038  0.00  0.00    +0.000 A 
ATOM     20  C   UNL     1      17.919   8.492  39.955  0.00  0.00    +0.000 A 
ENDBRANCH  14  15
ENDBRANCH  11  13
TORSDOF 2
ENDMDL
MODEL 2
REMARK VINA RESULT:      -7.0      1.676      2.725
REMARK  Name = 
REMARK  2 active torsions:
REMARK  status: ('A' for Active; 'I' for Inactive)
REMARK    1  A    between atoms: C_11  and  C_12
REMARK    2  A    between atoms: C_13  and  C_14
REMARK                            x       y       z     vdW  Elec       q    Type
REMARK                         _______ _______ _______ _____ _____    ______ ____
ROOT
ATOM      1  C   UNL     1      15.424  12.011  32.345  0.00  0.00    +0.000 C 
ATOM      2  C   UNL     1      15.967  11.506  33.658  0.00  0.00    +0.000 A 
ATOM      3  S   UNL     1      17.332  10.466  33.858  0.00  0.00    +0.000 S 
ATOM      4  C   UNL     1      17.323  10.346  35.539  0.00  0.00    +0.000 A 
ATOM      5  C   UNL     1      16.295  11.087  35.944  0.00  0.00    +0.000 A 
ATOM      6  C   UNL     1      15.566  11.710  34.928  0.00  0.00    +0.000 A 
ATOM      7  C   UNL     1      14.361  12.599  35.136  0.00  0.00    +0.000 C 
ATOM      8  C   UNL     1      16.006  11.176  37.381  0.00  0.00    +0.000 C 
ATOM      9  O   UNL     1      15.046  11.863  37.847  0.00  0.00    +0.000 OA
ATOM     10  N   UNL     1      16.849  10.463  38.227  0.00  0.00    +0.000 NA
ATOM     11  C   UNL     1      18.356  10.270  37.862  0.00  0.00    +0.000 C 
ATOM     12  N   UNL     1      18.133   9.680  36.398  0.00  0.00    +0.000 NA
ENDROOT
BRANCH  11  13
ATOM     13  C   UNL     1      18.447   8.805  38.534  0.00  0.00    +0.000 C 
ATOM     14  C   UNL     1      17.917   8.594  39.651  0.00  0.00    +0.000 C 
BRANCH  14  15
ATOM     15  C   UNL     1      17.757   7.527  40.563  0.00  0.00    +0.000 A 
ATOM     16  C   UNL     1      18.535   6.407  40.339  0.00  0.00    +0.000 A 
ATOM     17  C   UNL     1      18.498   5.282  41.137  0.00  0.00    +0.000 A 
ATOM     18  C   UNL     1      17.654   5.233  42.227  0.00  0.00    +0.000 A 
ATOM     19  C   UNL     1      16.871   6.344  42.465  0.00  0.00    +0.000 A 
ATOM     20  C   UNL     1      16.922   7.461  41.652  0.00  0.00    +0.000 A 
ENDBRANCH  14  15
ENDBRANCH  11  13
TORSDOF 2
ENDMDL
MODEL 3
REMARK VINA RESULT:      -6.8     19.841     21.871
REMARK  Name = 
REMARK  2 active torsions:
REMARK  status: ('A' for Active; 'I' for Inactive)
REMARK    1  A    between atoms: C_11  and  C_12
REMARK    2  A    between atoms: C_13  and  C_14
REMARK                            x       y       z     vdW  Elec       q    Type
REMARK                         _______ _______ _______ _____ _____    ______ ____
ROOT
ATOM      1  C   UNL     1      34.615   5.293  37.674  0.00  0.00    +0.000 C 
ATOM      2  C   UNL     1      34.347   4.101  36.791  0.00  0.00    +0.000 A 
ATOM      3  S   UNL     1      34.323   2.449  37.297  0.00  0.00    +0.000 S 
ATOM      4  C   UNL     1      33.971   1.729  35.814  0.00  0.00    +0.000 A 
ATOM      5  C   UNL     1      33.874   2.731  34.944  0.00  0.00    +0.000 A 
ATOM      6  C   UNL     1      34.078   4.008  35.474  0.00  0.00    +0.000 A 
ATOM      7  C   UNL     1      34.019   5.299  34.689  0.00  0.00    +0.000 C 
ATOM      8  C   UNL     1      33.586   2.425  33.537  0.00  0.00    +0.000 C 
ATOM      9  O   UNL     1      33.476   3.324  32.648  0.00  0.00    +0.000 OA
ATOM     10  N   UNL     1      33.433   1.081  33.215  0.00  0.00    +0.000 NA
ATOM     11  C   UNL     1      32.820   0.085  34.252  0.00  0.00    +0.000 C 
ATOM     12  N   UNL     1      33.798   0.432  35.463  0.00  0.00    +0.000 NA
ENDROOT
BRANCH  11  13
ATOM     13  C   UNL     1      33.727  -1.158  33.761  0.00  0.00    +0.000 C 
ATOM     14  C   UNL     1      33.358  -2.334  33.996  0.00  0.00    +0.000 C 
BRANCH  14  15
ATOM     15  C   UNL     1      33.811  -3.652  33.765  0.00  0.00    +0.000 A 
ATOM     16  C   UNL     1      33.612  -4.155  32.494  0.00  0.00    +0.000 A 
ATOM     17  C   UNL     1      33.996  -5.424  32.108  0.00  0.00    +0.000 A 
ATOM     18  C   UNL     1      34.615  -6.264  33.009  0.00  0.00    +0.000 A 
ATOM     19  C   UNL     1      34.821  -5.776  34.284  0.00  0.00    +0.000 A 
ATOM     20  C   UNL     1      34.428  -4.503  34.650  0.00  0.00    +0.000 A 
ENDBRANCH  14  15
ENDBRANCH  11  13
TORSDOF 2
ENDMDL
MODEL 4
REMARK VINA RESULT:      -6.5     19.659     22.075
REMARK  Name = 
REMARK  2 active torsions:
REMARK  status: ('A' for Active; 'I' for Inactive)
REMARK    1  A    between atoms: C_11  and  C_12
REMARK    2  A    between atoms: C_13  and  C_14
REMARK                            x       y       z     vdW  Elec       q    Type
REMARK                         _______ _______ _______ _____ _____    ______ ____
ROOT
ATOM      1  C   UNL     1      28.308  29.354  21.005  0.00  0.00    +0.000 C 
ATOM      2  C   UNL     1      28.035  28.000  21.612  0.00  0.00    +0.000 A 
ATOM      3  S   UNL     1      26.889  27.661  22.860  0.00  0.00    +0.000 S 
ATOM      4  C   UNL     1      27.146  26.002  23.003  0.00  0.00    +0.000 A 
ATOM      5  C   UNL     1      28.091  25.708  22.114  0.00  0.00    +0.000 A 
ATOM      6  C   UNL     1      28.568  26.788  21.367  0.00  0.00    +0.000 A 
ATOM      7  C   UNL     1      29.636  26.707  20.299  0.00  0.00    +0.000 C 
ATOM      8  C   UNL     1      28.555  24.319  22.003  0.00  0.00    +0.000 C 
ATOM      9  O   UNL     1      29.450  23.959  21.179  0.00  0.00    +0.000 OA
ATOM     10  N   UNL     1      27.957  23.397  22.855  0.00  0.00    +0.000 NA
ATOM     11  C   UNL     1      26.463  23.567  23.281  0.00  0.00    +0.000 C 
ATOM     12  N   UNL     1      26.575  25.069  23.805  0.00  0.00    +0.000 NA
ENDROOT
BRANCH  11  13
ATOM     13  C   UNL     1      26.695  22.944  24.752  0.00  0.00    +0.000 C 
ATOM     14  C   UNL     1      26.480  23.644  25.770  0.00  0.00    +0.000 C 
BRANCH  14  15
ATOM     15  C   UNL     1      26.546  23.519  27.176  0.00  0.00    +0.000 A 
ATOM     16  C   UNL     1      27.499  22.648  27.670  0.00  0.00    +0.000 A 
ATOM     17  C   UNL     1      27.691  22.414  29.016  0.00  0.00    +0.000 A 
ATOM     18  C   UNL     1      26.912  23.063  29.951  0.00  0.00    +0.000 A 
ATOM     19  C   UNL     1      25.956  23.936  29.474  0.00  0.00    +0.000 A 
ATOM     20  C   UNL     1      25.779  24.156  28.120  0.00  0.00    +0.000 A 
ENDBRANCH  14  15
ENDBRANCH  11  13
TORSDOF 2
ENDMDL
MODEL 5
REMARK VINA RESULT:      -6.4     20.962     23.353
REMARK  Name = 
REMARK  2 active torsions:
REMARK  status: ('A' for Active; 'I' for Inactive)
REMARK    1  A    between atoms: C_11  and  C_12
REMARK    2  A    between atoms: C_13  and  C_14
REMARK                            x       y       z     vdW  Elec       q    Type
REMARK                         _______ _______ _______ _____ _____    ______ ____
ROOT
ATOM      1  C   UNL     1      26.774  29.901  21.204  0.00  0.00    +0.000 C 
ATOM      2  C   UNL     1      27.268  28.508  21.503  0.00  0.00    +0.000 A 
ATOM      3  S   UNL     1      26.848  27.558  22.884  0.00  0.00    +0.000 S 
ATOM      4  C   UNL     1      27.752  26.179  22.534  0.00  0.00    +0.000 A 
ATOM      5  C   UNL     1      28.366  26.437  21.382  0.00  0.00    +0.000 A 
ATOM      6  C   UNL     1      28.103  27.693  20.830  0.00  0.00    +0.000 A 
ATOM      7  C   UNL     1      28.679  28.215  19.532  0.00  0.00    +0.000 C 
ATOM      8  C   UNL     1      29.256  25.419  20.808  0.00  0.00    +0.000 C 
ATOM      9  O   UNL     1      29.875  25.588  19.714  0.00  0.00    +0.000 OA
ATOM     10  N   UNL     1      29.392  24.238  21.530  0.00  0.00    +0.000 NA
ATOM     11  C   UNL     1      28.194  23.680  22.364  0.00  0.00    +0.000 C 
ATOM     12  N   UNL     1      27.897  25.006  23.198  0.00  0.00    +0.000 NA
ENDROOT
BRANCH  11  13
ATOM     13  C   UNL     1      29.140  23.062  23.517  0.00  0.00    +0.000 C 
ATOM     14  C   UNL     1      28.910  23.321  24.723  0.00  0.00    +0.000 C 
BRANCH  14  15
ATOM     15  C   UNL     1      29.447  23.017  25.994  0.00  0.00    +0.000 A 
ATOM     16  C   UNL     1      28.660  23.335  27.084  0.00  0.00    +0.000 A 
ATOM     17  C   UNL     1      29.039  23.102  28.390  0.00  0.00    +0.000 A 
ATOM     18  C   UNL     1      30.260  22.522  28.665  0.00  0.00    +0.000 A 
ATOM     19  C   UNL     1      31.057  22.198  27.586  0.00  0.00    +0.000 A 
ATOM     20  C   UNL     1      30.659  22.440  26.285  0.00  0.00    +0.000 A 
ENDBRANCH  14  15
ENDBRANCH  11  13
TORSDOF 2
ENDMDL
MODEL 6
REMARK VINA RESULT:      -6.2     20.884     23.158
REMARK  Name = 
REMARK  2 active torsions:
REMARK  status: ('A' for Active; 'I' for Inactive)
REMARK    1  A    between atoms: C_11  and  C_12
REMARK    2  A    between atoms: C_13  and  C_14
REMARK                            x       y       z     vdW  Elec       q    Type
REMARK                         _______ _______ _______ _____ _____    ______ ____
ROOT
ATOM      1  C   UNL     1      34.350   2.252  39.175  0.00  0.00    +0.000 C 
ATOM      2  C   UNL     1      34.178   1.332  37.993  0.00  0.00    +0.000 A 
ATOM      3  S   UNL     1      34.185  -0.396  38.044  0.00  0.00    +0.000 S 
ATOM      4  C   UNL     1      33.948  -0.704  36.404  0.00  0.00    +0.000 A 
ATOM      5  C   UNL     1      33.865   0.491  35.824  0.00  0.00    +0.000 A 
ATOM      6  C   UNL     1      33.990   1.585  36.684  0.00  0.00    +0.000 A 
ATOM      7  C   UNL     1      33.930   3.037  36.264  0.00  0.00    +0.000 C 
ATOM      8  C   UNL     1      33.670   0.563  34.370  0.00  0.00    +0.000 C 
ATOM      9  O   UNL     1      33.580   1.663  33.744  0.00  0.00    +0.000 OA
ATOM     10  N   UNL     1      33.586  -0.650  33.696  0.00  0.00    +0.000 NA
ATOM     11  C   UNL     1      32.950  -1.898  34.391  0.00  0.00    +0.000 C 
ATOM     12  N   UNL     1      33.842  -1.865  35.713  0.00  0.00    +0.000 NA
ENDROOT
BRANCH  11  13
ATOM     13  C   UNL     1      33.929  -2.948  33.651  0.00  0.00    +0.000 C 
ATOM     14  C   UNL     1      33.463  -3.754  32.812  0.00  0.00    +0.000 C 
BRANCH  14  15
ATOM     15  C   UNL     1      33.924  -4.791  31.969  0.00  0.00    +0.000 A 
ATOM     16  C   UNL     1      34.878  -5.636  32.503  0.00  0.00    +0.000 A 
ATOM     17  C   UNL     1      35.429  -6.696  31.811  0.00  0.00    +0.000 A 
ATOM     18  C   UNL     1      35.032  -6.959  30.516  0.00  0.00    +0.000 A 
ATOM     19  C   UNL     1      34.080  -6.123  29.969  0.00  0.00    +0.000 A 
ATOM     20  C   UNL     1      33.541  -5.067  30.679  0.00  0.00    +0.000 A 
ENDBRANCH  14  15
ENDBRANCH  11  13
TORSDOF 2
ENDMDL
MODEL 7
REMARK VINA RESULT:      -6.2     23.502     25.211
REMARK  Name = 
REMARK  2 active torsions:
REMARK  status: ('A' for Active; 'I' for Inactive)
REMARK    1  A    between atoms: C_11  and  C_12
REMARK    2  A    between atoms: C_13  and  C_14
REMARK                            x       y       z     vdW  Elec       q    Type
REMARK                         _______ _______ _______ _____ _____    ______ ____
ROOT
ATOM      1  C   UNL     1      19.993  -9.486  27.171  0.00  0.00    +0.000 C 
ATOM      2  C   UNL     1      21.098  -9.013  26.261  0.00  0.00    +0.000 A 
ATOM      3  S   UNL     1      22.551  -9.876  25.896  0.00  0.00    +0.000 S 
ATOM      4  C   UNL     1      23.262  -8.758  24.855  0.00  0.00    +0.000 A 
ATOM      5  C   UNL     1      22.407  -7.740  24.785  0.00  0.00    +0.000 A 
ATOM      6  C   UNL     1      21.243  -7.882  25.544  0.00  0.00    +0.000 A 
ATOM      7  C   UNL     1      20.125  -6.866  25.627  0.00  0.00    +0.000 C 
ATOM      8  C   UNL     1      22.751  -6.579  23.954  0.00  0.00    +0.000 C 
ATOM      9  O   UNL     1      21.989  -5.572  23.834  0.00  0.00    +0.000 OA
ATOM     10  N   UNL     1      23.972  -6.634  23.289  0.00  0.00    +0.000 NA
ATOM     11  C   UNL     1      24.538  -8.002  22.788  0.00  0.00    +0.000 C 
ATOM     12  N   UNL     1      24.435  -8.780  24.176  0.00  0.00    +0.000 NA
ENDROOT
BRANCH  11  13
ATOM     13  C   UNL     1      26.078  -7.582  23.038  0.00  0.00    +0.000 C 
ATOM     14  C   UNL     1      27.003  -8.298  22.586  0.00  0.00    +0.000 C 
BRANCH  14  15
ATOM     15  C   UNL     1      28.416  -8.315  22.565  0.00  0.00    +0.000 A 
ATOM     16  C   UNL     1      29.034  -7.206  22.020  0.00  0.00    +0.000 A 
ATOM     17  C   UNL     1      30.404  -7.067  21.925  0.00  0.00    +0.000 A 
ATOM     18  C   UNL     1      31.235  -8.066  22.389  0.00  0.00    +0.000 A 
ATOM     19  C   UNL     1      30.632  -9.180  22.936  0.00  0.00    +0.000 A 
ATOM     20  C   UNL     1      29.258  -9.300  23.021  0.00  0.00    +0.000 A 
ENDBRANCH  14  15
ENDBRANCH  11  13
TORSDOF 2
ENDMDL
MODEL 8
REMARK VINA RESULT:      -6.1     20.610     23.185
REMARK  Name = 
REMARK  2 active torsions:
REMARK  status: ('A' for Active; 'I' for Inactive)
REMARK    1  A    between atoms: C_11  and  C_12
REMARK    2  A    between atoms: C_13  and  C_14
REMARK                            x       y       z     vdW  Elec       q    Type
REMARK                         _______ _______ _______ _____ _____    ______ ____
ROOT
ATOM      1  C   UNL     1      26.039  23.960  29.382  0.00  0.00    +0.000 C 
ATOM      2  C   UNL     1      27.054  23.730  28.291  0.00  0.00    +0.000 A 
ATOM      3  S   UNL     1      28.749  23.481  28.520  0.00  0.00    +0.000 S 
ATOM      4  C   UNL     1      29.205  23.304  26.906  0.00  0.00    +0.000 A 
ATOM      5  C   UNL     1      28.083  23.433  26.202  0.00  0.00    +0.000 A 
ATOM      6  C   UNL     1      26.927  23.662  26.952  0.00  0.00    +0.000 A 
ATOM      7  C   UNL     1      25.537  23.841  26.382  0.00  0.00    +0.000 C 
ATOM      8  C   UNL     1      28.150  23.342  24.738  0.00  0.00    +0.000 C 
ATOM      9  O   UNL     1      27.126  23.452  23.997  0.00  0.00    +0.000 OA
ATOM     10  N   UNL     1      29.408  23.124  24.188  0.00  0.00    +0.000 NA
ATOM     11  C   UNL     1      30.469  22.271  24.956  0.00  0.00    +0.000 C 
ATOM     12  N   UNL     1      30.411  23.074  26.332  0.00  0.00    +0.000 NA
ENDROOT
BRANCH  11  13
ATOM     13  C   UNL     1      31.721  23.131  24.407  0.00  0.00    +0.000 C 
ATOM     14  C   UNL     1      32.231  24.024  25.124  0.00  0.00    +0.000 C 
BRANCH  14  15
ATOM     15  C   UNL     1      33.279  24.969  25.056  0.00  0.00    +0.000 A 
ATOM     16  C   UNL     1      34.503  24.496  24.623  0.00  0.00    +0.000 A 
ATOM     17  C   UNL     1      35.626  25.289  24.500  0.00  0.00    +0.000 A 
ATOM     18  C   UNL     1      35.564  26.631  24.816  0.00  0.00    +0.000 A 
ATOM     19  C   UNL     1      34.348  27.118  25.249  0.00  0.00    +0.000 A 
ATOM     20  C   UNL     1      33.236  26.306  25.365  0.00  0.00    +0.000 A 
ENDBRANCH  14  15
ENDBRANCH  11  13
TORSDOF 2
ENDMDL
MODEL 9
REMARK VINA RESULT:      -6.1     21.282     22.987
REMARK  Name = 
REMARK  2 active torsions:
REMARK  status: ('A' for Active; 'I' for Inactive)
REMARK    1  A    between atoms: C_11  and  C_12
REMARK    2  A    between atoms: C_13  and  C_14
REMARK                            x       y       z     vdW  Elec       q    Type
REMARK                         _______ _______ _______ _____ _____    ______ ____
ROOT
ATOM      1  C   UNL     1      27.442  29.177  21.512  0.00  0.00    +0.000 C 
ATOM      2  C   UNL     1      27.696  27.829  22.135  0.00  0.00    +0.000 A 
ATOM      3  S   UNL     1      27.138  27.306  23.685  0.00  0.00    +0.000 S 
ATOM      4  C   UNL     1      27.792  25.753  23.687  0.00  0.00    +0.000 A 
ATOM      5  C   UNL     1      28.428  25.632  22.524  0.00  0.00    +0.000 A 
ATOM      6  C   UNL     1      28.374  26.753  21.691  0.00  0.00    +0.000 A 
ATOM      7  C   UNL     1      29.016  26.858  20.325  0.00  0.00    +0.000 C 
ATOM      8  C   UNL     1      29.127  24.376  22.224  0.00  0.00    +0.000 C 
ATOM      9  O   UNL     1      29.754  24.182  21.138  0.00  0.00    +0.000 OA
ATOM     10  N   UNL     1      29.070  23.387  23.201  0.00  0.00    +0.000 NA
ATOM     11  C   UNL     1      27.804  23.244  24.106  0.00  0.00    +0.000 C 
ATOM     12  N   UNL     1      27.744  24.758  24.605  0.00  0.00    +0.000 NA
ENDROOT
BRANCH  11  13
ATOM     13  C   UNL     1      28.645  22.760  25.397  0.00  0.00    +0.000 C 
ATOM     14  C   UNL     1      29.745  23.299  25.666  0.00  0.00    +0.000 C 
BRANCH  14  15
ATOM     15  C   UNL     1      30.764  23.199  26.640  0.00  0.00    +0.000 A 
ATOM     16  C   UNL     1      30.730  22.080  27.450  0.00  0.00    +0.000 A 
ATOM     17  C   UNL     1      31.651  21.834  28.448  0.00  0.00    +0.000 A 
ATOM     18  C   UNL     1      32.676  22.728  28.680  0.00  0.00    +0.000 A 
ATOM     19  C   UNL     1      32.724  23.850  27.879  0.00  0.00    +0.000 A 
ATOM     20  C   UNL     1      31.791  24.078  26.885  0.00  0.00    +0.000 A 
ENDBRANCH  14  15
ENDBRANCH  11  13
TORSDOF 2
ENDMDL
MODEL 10
REMARK VINA RESULT:      -5.9     21.624     23.087
REMARK  Name = 
REMARK  2 active torsions:
REMARK  status: ('A' for Active; 'I' for Inactive)
REMARK    1  A    between atoms: C_11  and  C_12
REMARK    2  A    between atoms: C_13  and  C_14
REMARK                            x       y       z     vdW  Elec       q    Type
REMARK                         _______ _______ _______ _____ _____    ______ ____
ROOT
ATOM      1  C   UNL     1      28.305   7.968  14.737  0.00  0.00    +0.000 C 
ATOM      2  C   UNL     1      27.470   6.927  15.439  0.00  0.00    +0.000 A 
ATOM      3  S   UNL     1      26.272   5.922  14.703  0.00  0.00    +0.000 S 
ATOM      4  C   UNL     1      25.789   5.055  16.065  0.00  0.00    +0.000 A 
ATOM      5  C   UNL     1      26.527   5.523  17.068  0.00  0.00    +0.000 A 
ATOM      6  C   UNL     1      27.432   6.532  16.727  0.00  0.00    +0.000 A 
ATOM      7  C   UNL     1      28.377   7.220  17.687  0.00  0.00    +0.000 C 
ATOM      8  C   UNL     1      26.329   4.971  18.414  0.00  0.00    +0.000 C 
ATOM      9  O   UNL     1      26.995   5.363  19.421  0.00  0.00    +0.000 OA
ATOM     10  N   UNL     1      25.363   3.979  18.541  0.00  0.00    +0.000 NA
ATOM     11  C   UNL     1      25.097   2.982  17.367  0.00  0.00    +0.000 C 
ATOM     12  N   UNL     1      24.869   4.073  16.226  0.00  0.00    +0.000 NA
ENDROOT
BRANCH  11  13
ATOM     13  C   UNL     1      23.518   2.856  17.684  0.00  0.00    +0.000 C 
ATOM     14  C   UNL     1      22.769   2.230  16.897  0.00  0.00    +0.000 C 
BRANCH  14  15
ATOM     15  C   UNL     1      21.403   1.886  16.782  0.00  0.00    +0.000 A 
ATOM     16  C   UNL     1      20.553   2.431  17.725  0.00  0.00    +0.000 A 
ATOM     17  C   UNL     1      19.194   2.194  17.752  0.00  0.00    +0.000 A 
ATOM     18  C   UNL     1      18.614   1.376  16.804  0.00  0.00    +0.000 A 
ATOM     19  C   UNL     1      19.450   0.825  15.855  0.00  0.00    +0.000 A 
ATOM     20  C   UNL     1      20.810   1.075  15.846  0.00  0.00    +0.000 A 
ENDBRANCH  14  15
ENDBRANCH  11  13
TORSDOF 2
ENDMDL
