MODEL 1
REMARK VINA RESULT:      -8.2      0.000      0.000
REMARK  Name = 
REMARK  6 active torsions:
REMARK  status: ('A' for Active; 'I' for Inactive)
REMARK    1  A    between atoms: O_2  and  C_3
REMARK    2  A    between atoms: C_8  and  N_9
REMARK    3  A    between atoms: C_10  and  C_12
REMARK    4  A    between atoms: C_13  and  N_14
REMARK    5  A    between atoms: C_15  and  C_17
REMARK    6  A    between atoms: C_17  and  C_18
REMARK                            x       y       z     vdW  Elec       q    Type
REMARK                         _______ _______ _______ _____ _____    ______ ____
ROOT
ATOM      1  C   UNL     1      39.597   0.059  14.406  0.00  0.00    +0.000 A 
ATOM      2  C   UNL     1      39.901   1.391  14.379  0.00  0.00    +0.000 A 
ATOM      3  S   UNL     1      41.251   1.468  13.336  0.00  0.00    +0.000 S 
ATOM      4  C   UNL     1      41.400  -0.205  12.957  0.00  0.00    +0.000 A 
ATOM      5  C   UNL     1      40.367  -0.757  13.676  0.00  0.00    +0.000 A 
ATOM      6  C   UNL     1      40.395  -2.262  13.424  0.00  0.00    +0.000 C 
ATOM      7  C   UNL     1      41.662  -2.645  14.093  0.00  0.00    +0.000 C 
ATOM      8  C   UNL     1      42.945  -2.194  13.193  0.00  0.00    +0.000 C 
ATOM      9  C   UNL     1      43.401  -1.004  14.237  0.00  0.00    +0.000 C 
ATOM     10  C   UNL     1      42.203  -1.156  12.174  0.00  0.00    +0.000 C 
ENDROOT
BRANCH   1  12
ATOM     11  N   UNL     1      37.111  -0.372  14.756  0.00  0.00    +0.000 NA
ATOM     12  C   UNL     1      38.463  -0.453  15.212  0.00  0.00    +0.000 C 
ATOM     13  O   UNL     1      38.701  -0.971  16.328  0.00  0.00    +0.000 OA
BRANCH  11  19
ATOM     14  C   UNL     1      35.443  -0.032  16.477  0.00  0.00    +0.000 A 
ATOM     15  C   UNL     1      34.448  -0.514  17.298  0.00  0.00    +0.000 A 
ATOM     16  C   UNL     1      34.061  -1.842  17.274  0.00  0.00    +0.000 A 
ATOM     17  C   UNL     1      34.697  -2.686  16.403  0.00  0.00    +0.000 A 
ATOM     18  C   UNL     1      35.707  -2.212  15.564  0.00  0.00    +0.000 A 
ATOM     19  C   UNL     1      36.077  -0.894  15.603  0.00  0.00    +0.000 A 
BRANCH  14  21
ATOM     20  C   UNL     1      34.866   2.308  16.218  0.00  0.00    +0.000 C 
ATOM     21  O   UNL     1      35.802   1.300  16.529  0.00  0.00    +0.000 OA
ENDBRANCH  14  21
ENDBRANCH  11  19
ENDBRANCH   1  12
BRANCH   2  22
ATOM     22  N   UNL     1      39.276   2.490  15.040  0.00  0.00    +0.000 NA
ATOM     23  C   UNL     1      38.308   3.286  14.396  0.00  0.00    +0.000 C 
ATOM     24  O   UNL     1      37.985   3.030  13.222  0.00  0.00    +0.000 OA
BRANCH  23  25
ATOM     25  C   UNL     1      37.695   4.403  15.115  0.00  0.00    +0.000 C 
BRANCH  25  26
ATOM     26  C   UNL     1      38.524   4.894  16.244  0.00  0.00    +0.000 A 
ATOM     27  C   UNL     1      39.638   5.640  15.918  0.00  0.00    +0.000 A 
ATOM     28  C   UNL     1      40.494   6.155  16.880  0.00  0.00    +0.000 A 
ATOM     29  C   UNL     1      40.212   5.908  18.185  0.00  0.00    +0.000 A 
ATOM     30  C   UNL     1      39.107   5.167  18.538  0.00  0.00    +0.000 A 
ATOM     31  C   UNL     1      38.257   4.656  17.556  0.00  0.00    +0.000 A 
ENDBRANCH  25  26
ENDBRANCH  23  25
ENDBRANCH   2  22
TORSDOF 6
ENDMDL
MODEL 2
REMARK VINA RESULT:      -8.2      2.578      6.785
REMARK  Name = 
REMARK  6 active torsions:
REMARK  status: ('A' for Active; 'I' for Inactive)
REMARK    1  A    between atoms: O_2  and  C_3
REMARK    2  A    between atoms: C_8  and  N_9
REMARK    3  A    between atoms: C_10  and  C_12
REMARK    4  A    between atoms: C_13  and  N_14
REMARK    5  A    between atoms: C_15  and  C_17
REMARK    6  A    between atoms: C_17  and  C_18
REMARK                            x       y       z     vdW  Elec       q    Type
REMARK                         _______ _______ _______ _____ _____    ______ ____
ROOT
ATOM      1  C   UNL     1      36.624   1.971  14.430  0.00  0.00    +0.000 A 
ATOM      2  C   UNL     1      35.626   1.848  15.355  0.00  0.00    +0.000 A 
ATOM      3  S   UNL     1      34.744   3.299  15.183  0.00  0.00    +0.000 S 
ATOM      4  C   UNL     1      35.669   4.036  13.931  0.00  0.00    +0.000 A 
ATOM      5  C   UNL     1      36.644   3.094  13.700  0.00  0.00    +0.000 A 
ATOM      6  C   UNL     1      37.547   3.638  12.597  0.00  0.00    +0.000 C 
ATOM      7  C   UNL     1      38.186   4.786  13.284  0.00  0.00    +0.000 C 
ATOM      8  C   UNL     1      37.140   6.030  13.419  0.00  0.00    +0.000 C 
ATOM      9  C   UNL     1      36.974   5.860  15.049  0.00  0.00    +0.000 C 
ATOM     10  C   UNL     1      35.747   5.242  13.093  0.00  0.00    +0.000 C 
ENDROOT
BRANCH   1  12
ATOM     11  N   UNL     1      38.773   0.782  15.106  0.00  0.00    +0.000 NA
ATOM     12  C   UNL     1      37.638   0.905  14.247  0.00  0.00    +0.000 C 
ATOM     13  O   UNL     1      37.491   0.088  13.307  0.00  0.00    +0.000 OA
BRANCH  11  19
ATOM     14  C   UNL     1      40.817  -0.013  14.081  0.00  0.00    +0.000 A 
ATOM     15  C   UNL     1      41.722  -1.020  13.828  0.00  0.00    +0.000 A 
ATOM     16  C   UNL     1      41.548  -2.299  14.325  0.00  0.00    +0.000 A 
ATOM     17  C   UNL     1      40.439  -2.552  15.089  0.00  0.00    +0.000 A 
ATOM     18  C   UNL     1      39.514  -1.541  15.355  0.00  0.00    +0.000 A 
ATOM     19  C   UNL     1      39.703  -0.281  14.853  0.00  0.00    +0.000 A 
BRANCH  14  21
ATOM     20  C   UNL     1      40.819   1.514  12.198  0.00  0.00    +0.000 C 
ATOM     21  O   UNL     1      41.024   1.252  13.569  0.00  0.00    +0.000 OA
ENDBRANCH  14  21
ENDBRANCH  11  19
ENDBRANCH   1  12
BRANCH   2  22
ATOM     22  N   UNL     1      35.344   0.788  16.267  0.00  0.00    +0.000 NA
ATOM     23  C   UNL     1      35.941   0.732  17.542  0.00  0.00    +0.000 C 
ATOM     24  O   UNL     1      36.733   1.625  17.888  0.00  0.00    +0.000 OA
BRANCH  23  25
ATOM     25  C   UNL     1      35.619  -0.376  18.443  0.00  0.00    +0.000 C 
BRANCH  25  26
ATOM     26  C   UNL     1      36.486  -1.563  18.237  0.00  0.00    +0.000 A 
ATOM     27  C   UNL     1      37.622  -1.646  19.017  0.00  0.00    +0.000 A 
ATOM     28  C   UNL     1      38.513  -2.705  18.921  0.00  0.00    +0.000 A 
ATOM     29  C   UNL     1      38.244  -3.686  18.022  0.00  0.00    +0.000 A 
ATOM     30  C   UNL     1      37.119  -3.628  17.232  0.00  0.00    +0.000 A 
ATOM     31  C   UNL     1      36.233  -2.556  17.343  0.00  0.00    +0.000 A 
ENDBRANCH  25  26
ENDBRANCH  23  25
ENDBRANCH   2  22
TORSDOF 6
ENDMDL
MODEL 3
REMARK VINA RESULT:      -7.8      2.905      5.175
REMARK  Name = 
REMARK  6 active torsions:
REMARK  status: ('A' for Active; 'I' for Inactive)
REMARK    1  A    between atoms: O_2  and  C_3
REMARK    2  A    between atoms: C_8  and  N_9
REMARK    3  A    between atoms: C_10  and  C_12
REMARK    4  A    between atoms: C_13  and  N_14
REMARK    5  A    between atoms: C_15  and  C_17
REMARK    6  A    between atoms: C_17  and  C_18
REMARK                            x       y       z     vdW  Elec       q    Type
REMARK                         _______ _______ _______ _____ _____    ______ ____
ROOT
ATOM      1  C   UNL     1      39.898  -0.764  13.852  0.00  0.00    +0.000 A 
ATOM      2  C   UNL     1      40.147  -1.886  14.591  0.00  0.00    +0.000 A 
ATOM      3  S   UNL     1      41.314  -2.720  13.665  0.00  0.00    +0.000 S 
ATOM      4  C   UNL     1      41.460  -1.618  12.350  0.00  0.00    +0.000 A 
ATOM      5  C   UNL     1      40.573  -0.629  12.703  0.00  0.00    +0.000 A 
ATOM      6  C   UNL     1      40.606   0.423  11.597  0.00  0.00    +0.000 C 
ATOM      7  C   UNL     1      40.013  -0.328  10.465  0.00  0.00    +0.000 C 
ATOM      8  C   UNL     1      41.087  -1.395   9.858  0.00  0.00    +0.000 C 
ATOM      9  C   UNL     1      40.275  -2.709  10.430  0.00  0.00    +0.000 C 
ATOM     10  C   UNL     1      42.170  -1.405  11.080  0.00  0.00    +0.000 C 
ENDROOT
BRANCH   1  12
ATOM     11  N   UNL     1      37.543   0.203  13.936  0.00  0.00    +0.000 NA
ATOM     12  C   UNL     1      38.922   0.255  14.307  0.00  0.00    +0.000 C 
ATOM     13  O   UNL     1      39.324   1.191  15.038  0.00  0.00    +0.000 OA
BRANCH  11  19
ATOM     14  C   UNL     1      36.565   2.404  13.699  0.00  0.00    +0.000 A 
ATOM     15  C   UNL     1      35.731   3.404  14.150  0.00  0.00    +0.000 A 
ATOM     16  C   UNL     1      34.993   3.270  15.312  0.00  0.00    +0.000 A 
ATOM     17  C   UNL     1      35.108   2.103  16.021  0.00  0.00    +0.000 A 
ATOM     18  C   UNL     1      35.947   1.081  15.576  0.00  0.00    +0.000 A 
ATOM     19  C   UNL     1      36.670   1.232  14.423  0.00  0.00    +0.000 A 
BRANCH  14  21
ATOM     20  C   UNL     1      37.612   3.865  12.072  0.00  0.00    +0.000 C 
ATOM     21  O   UNL     1      37.285   2.573  12.533  0.00  0.00    +0.000 OA
ENDBRANCH  14  21
ENDBRANCH  11  19
ENDBRANCH   1  12
BRANCH   2  22
ATOM     22  N   UNL     1      39.596  -2.305  15.838  0.00  0.00    +0.000 NA
ATOM     23  C   UNL     1      38.411  -3.066  15.903  0.00  0.00    +0.000 C 
ATOM     24  O   UNL     1      37.827  -3.383  14.852  0.00  0.00    +0.000 OA
BRANCH  23  25
ATOM     25  C   UNL     1      37.885  -3.474  17.206  0.00  0.00    +0.000 C 
BRANCH  25  26
ATOM     26  C   UNL     1      37.057  -2.426  17.853  0.00  0.00    +0.000 A 
ATOM     27  C   UNL     1      35.754  -2.305  17.415  0.00  0.00    +0.000 A 
ATOM     28  C   UNL     1      34.879  -1.365  17.938  0.00  0.00    +0.000 A 
ATOM     29  C   UNL     1      35.336  -0.542  18.917  0.00  0.00    +0.000 A 
ATOM     30  C   UNL     1      36.631  -0.641  19.372  0.00  0.00    +0.000 A 
ATOM     31  C   UNL     1      37.497  -1.593  18.834  0.00  0.00    +0.000 A 
ENDBRANCH  25  26
ENDBRANCH  23  25
ENDBRANCH   2  22
TORSDOF 6
ENDMDL
MODEL 4
REMARK VINA RESULT:      -7.7      2.757      5.838
REMARK  Name = 
REMARK  6 active torsions:
REMARK  status: ('A' for Active; 'I' for Inactive)
REMARK    1  A    between atoms: O_2  and  C_3
REMARK    2  A    between atoms: C_8  and  N_9
REMARK    3  A    between atoms: C_10  and  C_12
REMARK    4  A    between atoms: C_13  and  N_14
REMARK    5  A    between atoms: C_15  and  C_17
REMARK    6  A    between atoms: C_17  and  C_18
REMARK                            x       y       z     vdW  Elec       q    Type
REMARK                         _______ _______ _______ _____ _____    ______ ____
ROOT
ATOM      1  C   UNL     1      39.811  -0.664  14.491  0.00  0.00    +0.000 A 
ATOM      2  C   UNL     1      40.061  -1.948  14.884  0.00  0.00    +0.000 A 
ATOM      3  S   UNL     1      41.713  -2.164  14.510  0.00  0.00    +0.000 S 
ATOM      4  C   UNL     1      42.052  -0.607  13.857  0.00  0.00    +0.000 A 
ATOM      5  C   UNL     1      40.834   0.023  13.965  0.00  0.00    +0.000 A 
ATOM      6  C   UNL     1      41.003   1.433  13.406  0.00  0.00    +0.000 C 
ATOM      7  C   UNL     1      41.236   1.149  11.969  0.00  0.00    +0.000 C 
ATOM      8  C   UNL     1      42.746   0.580  11.734  0.00  0.00    +0.000 C 
ATOM      9  C   UNL     1      42.236  -0.946  11.381  0.00  0.00    +0.000 C 
ATOM     10  C   UNL     1      43.132   0.204  13.276  0.00  0.00    +0.000 C 
ENDROOT
BRANCH   1  12
ATOM     11  N   UNL     1      38.241   1.103  15.439  0.00  0.00    +0.000 NA
ATOM     12  C   UNL     1      38.465  -0.062  14.643  0.00  0.00    +0.000 C 
ATOM     13  O   UNL     1      37.496  -0.597  14.054  0.00  0.00    +0.000 OA
BRANCH  11  19
ATOM     14  C   UNL     1      36.141   1.281  16.630  0.00  0.00    +0.000 A 
ATOM     15  C   UNL     1      34.856   1.764  16.735  0.00  0.00    +0.000 A 
ATOM     16  C   UNL     1      34.301   2.579  15.764  0.00  0.00    +0.000 A 
ATOM     17  C   UNL     1      35.068   2.904  14.676  0.00  0.00    +0.000 A 
ATOM     18  C   UNL     1      36.372   2.423  14.557  0.00  0.00    +0.000 A 
ATOM     19  C   UNL     1      36.904   1.616  15.528  0.00  0.00    +0.000 A 
BRANCH  14  21
ATOM     20  C   UNL     1      35.899   0.152  18.762  0.00  0.00    +0.000 C 
ATOM     21  O   UNL     1      36.662   0.470  17.619  0.00  0.00    +0.000 OA
ENDBRANCH  14  21
ENDBRANCH  11  19
ENDBRANCH   1  12
BRANCH   2  22
ATOM     22  N   UNL     1      39.192  -2.915  15.470  0.00  0.00    +0.000 NA
ATOM     23  C   UNL     1      38.734  -2.791  16.797  0.00  0.00    +0.000 C 
ATOM     24  O   UNL     1      39.093  -1.816  17.480  0.00  0.00    +0.000 OA
BRANCH  23  25
ATOM     25  C   UNL     1      37.842  -3.809  17.354  0.00  0.00    +0.000 C 
BRANCH  25  26
ATOM     26  C   UNL     1      36.566  -3.935  16.607  0.00  0.00    +0.000 A 
ATOM     27  C   UNL     1      35.721  -2.844  16.630  0.00  0.00    +0.000 A 
ATOM     28  C   UNL     1      34.500  -2.836  15.973  0.00  0.00    +0.000 A 
ATOM     29  C   UNL     1      34.138  -3.949  15.286  0.00  0.00    +0.000 A 
ATOM     30  C   UNL     1      34.961  -5.051  15.246  0.00  0.00    +0.000 A 
ATOM     31  C   UNL     1      36.186  -5.042  15.913  0.00  0.00    +0.000 A 
ENDBRANCH  25  26
ENDBRANCH  23  25
ENDBRANCH   2  22
TORSDOF 6
ENDMDL
MODEL 5
REMARK VINA RESULT:      -7.5      3.112      5.703
REMARK  Name = 
REMARK  6 active torsions:
REMARK  status: ('A' for Active; 'I' for Inactive)
REMARK    1  A    between atoms: O_2  and  C_3
REMARK    2  A    between atoms: C_8  and  N_9
REMARK    3  A    between atoms: C_10  and  C_12
REMARK    4  A    between atoms: C_13  and  N_14
REMARK    5  A    between atoms: C_15  and  C_17
REMARK    6  A    between atoms: C_17  and  C_18
REMARK                            x       y       z     vdW  Elec       q    Type
REMARK                         _______ _______ _______ _____ _____    ______ ____
ROOT
ATOM      1  C   UNL     1      37.620  -0.733  15.770  0.00  0.00    +0.000 A 
ATOM      2  C   UNL     1      36.482  -0.234  16.337  0.00  0.00    +0.000 A 
ATOM      3  S   UNL     1      36.336  -1.126  17.786  0.00  0.00    +0.000 S 
ATOM      4  C   UNL     1      37.734  -2.120  17.637  0.00  0.00    +0.000 A 
ATOM      5  C   UNL     1      38.261  -1.700  16.439  0.00  0.00    +0.000 A 
ATOM      6  C   UNL     1      39.522  -2.523  16.187  0.00  0.00    +0.000 C 
ATOM      7  C   UNL     1      38.950  -3.874  15.976  0.00  0.00    +0.000 C 
ATOM      8  C   UNL     1      38.479  -4.526  17.396  0.00  0.00    +0.000 C 
ATOM      9  C   UNL     1      36.873  -4.399  17.049  0.00  0.00    +0.000 C 
ATOM     10  C   UNL     1      38.489  -3.181  18.322  0.00  0.00    +0.000 C 
ENDROOT
BRANCH   1  12
ATOM     11  N   UNL     1      37.735  -0.812  13.226  0.00  0.00    +0.000 NA
ATOM     12  C   UNL     1      38.119  -0.223  14.471  0.00  0.00    +0.000 C 
ATOM     13  O   UNL     1      38.903   0.755  14.468  0.00  0.00    +0.000 OA
BRANCH  11  19
ATOM     14  C   UNL     1      39.425  -0.793  11.494  0.00  0.00    +0.000 A 
ATOM     15  C   UNL     1      39.952  -0.270  10.334  0.00  0.00    +0.000 A 
ATOM     16  C   UNL     1      39.354   0.789   9.673  0.00  0.00    +0.000 A 
ATOM     17  C   UNL     1      38.206   1.317  10.204  0.00  0.00    +0.000 A 
ATOM     18  C   UNL     1      37.661   0.796  11.377  0.00  0.00    +0.000 A 
ATOM     19  C   UNL     1      38.268  -0.252  12.017  0.00  0.00    +0.000 A 
BRANCH  14  21
ATOM     20  C   UNL     1      41.247  -1.652  12.844  0.00  0.00    +0.000 C 
ATOM     21  O   UNL     1      40.050  -1.851  12.125  0.00  0.00    +0.000 OA
ENDBRANCH  14  21
ENDBRANCH  11  19
ENDBRANCH   1  12
BRANCH   2  22
ATOM     22  N   UNL     1      35.595   0.783  15.874  0.00  0.00    +0.000 NA
ATOM     23  C   UNL     1      35.786   2.139  16.209  0.00  0.00    +0.000 C 
ATOM     24  O   UNL     1      36.750   2.464  16.924  0.00  0.00    +0.000 OA
BRANCH  23  25
ATOM     25  C   UNL     1      34.849   3.146  15.710  0.00  0.00    +0.000 C 
BRANCH  25  26
ATOM     26  C   UNL     1      35.370   3.896  14.541  0.00  0.00    +0.000 A 
ATOM     27  C   UNL     1      34.781   5.115  14.272  0.00  0.00    +0.000 A 
ATOM     28  C   UNL     1      35.178   5.912  13.208  0.00  0.00    +0.000 A 
ATOM     29  C   UNL     1      36.182   5.463  12.413  0.00  0.00    +0.000 A 
ATOM     30  C   UNL     1      36.787   4.252  12.658  0.00  0.00    +0.000 A 
ATOM     31  C   UNL     1      36.376   3.463  13.733  0.00  0.00    +0.000 A 
ENDBRANCH  25  26
ENDBRANCH  23  25
ENDBRANCH   2  22
TORSDOF 6
ENDMDL
MODEL 6
REMARK VINA RESULT:      -7.5      1.062      2.115
REMARK  Name = 
REMARK  6 active torsions:
REMARK  status: ('A' for Active; 'I' for Inactive)
REMARK    1  A    between atoms: O_2  and  C_3
REMARK    2  A    between atoms: C_8  and  N_9
REMARK    3  A    between atoms: C_10  and  C_12
REMARK    4  A    between atoms: C_13  and  N_14
REMARK    5  A    between atoms: C_15  and  C_17
REMARK    6  A    between atoms: C_17  and  C_18
REMARK                            x       y       z     vdW  Elec       q    Type
REMARK                         _______ _______ _______ _____ _____    ______ ____
ROOT
ATOM      1  C   UNL     1      39.549   0.199  14.084  0.00  0.00    +0.000 A 
ATOM      2  C   UNL     1      40.006   1.474  14.262  0.00  0.00    +0.000 A 
ATOM      3  S   UNL     1      41.533   1.458  13.498  0.00  0.00    +0.000 S 
ATOM      4  C   UNL     1      41.557  -0.180  12.967  0.00  0.00    +0.000 A 
ATOM      5  C   UNL     1      40.346  -0.648  13.419  0.00  0.00    +0.000 A 
ATOM      6  C   UNL     1      40.247  -2.115  13.010  0.00  0.00    +0.000 C 
ATOM      7  C   UNL     1      41.305  -2.723  13.851  0.00  0.00    +0.000 C 
ATOM      8  C   UNL     1      42.783  -2.374  13.256  0.00  0.00    +0.000 C 
ATOM      9  C   UNL     1      43.162  -1.353  14.493  0.00  0.00    +0.000 C 
ATOM     10  C   UNL     1      42.381  -1.159  12.242  0.00  0.00    +0.000 C 
ENDROOT
BRANCH   1  12
ATOM     11  N   UNL     1      38.061  -0.721  15.936  0.00  0.00    +0.000 NA
ATOM     12  C   UNL     1      38.228  -0.223  14.606  0.00  0.00    +0.000 C 
ATOM     13  O   UNL     1      37.227  -0.141  13.855  0.00  0.00    +0.000 OA
BRANCH  11  19
ATOM     14  C   UNL     1      36.397  -2.442  16.291  0.00  0.00    +0.000 A 
ATOM     15  C   UNL     1      35.138  -2.832  16.690  0.00  0.00    +0.000 A 
ATOM     16  C   UNL     1      34.205  -1.922  17.157  0.00  0.00    +0.000 A 
ATOM     17  C   UNL     1      34.564  -0.601  17.217  0.00  0.00    +0.000 A 
ATOM     18  C   UNL     1      35.836  -0.192  16.816  0.00  0.00    +0.000 A 
ATOM     19  C   UNL     1      36.745  -1.107  16.356  0.00  0.00    +0.000 A 
BRANCH  14  21
ATOM     20  C   UNL     1      37.860  -4.329  16.710  0.00  0.00    +0.000 C 
ATOM     21  O   UNL     1      37.301  -3.378  15.831  0.00  0.00    +0.000 OA
ENDBRANCH  14  21
ENDBRANCH  11  19
ENDBRANCH   1  12
BRANCH   2  22
ATOM     22  N   UNL     1      39.397   2.585  14.916  0.00  0.00    +0.000 NA
ATOM     23  C   UNL     1      38.520   3.454  14.236  0.00  0.00    +0.000 C 
ATOM     24  O   UNL     1      38.265   3.253  13.036  0.00  0.00    +0.000 OA
BRANCH  23  25
ATOM     25  C   UNL     1      37.919   4.581  14.951  0.00  0.00    +0.000 C 
BRANCH  25  26
ATOM     26  C   UNL     1      38.761   5.075  16.070  0.00  0.00    +0.000 A 
ATOM     27  C   UNL     1      38.366   4.727  17.345  0.00  0.00    +0.000 A 
ATOM     28  C   UNL     1      39.066   5.125  18.474  0.00  0.00    +0.000 A 
ATOM     29  C   UNL     1      40.178   5.885  18.300  0.00  0.00    +0.000 A 
ATOM     30  C   UNL     1      40.595   6.246  17.040  0.00  0.00    +0.000 A 
ATOM     31  C   UNL     1      39.878   5.835  15.915  0.00  0.00    +0.000 A 
ENDBRANCH  25  26
ENDBRANCH  23  25
ENDBRANCH   2  22
TORSDOF 6
ENDMDL
MODEL 7
REMARK VINA RESULT:      -7.4      2.215      7.071
REMARK  Name = 
REMARK  6 active torsions:
REMARK  status: ('A' for Active; 'I' for Inactive)
REMARK    1  A    between atoms: O_2  and  C_3
REMARK    2  A    between atoms: C_8  and  N_9
REMARK    3  A    between atoms: C_10  and  C_12
REMARK    4  A    between atoms: C_13  and  N_14
REMARK    5  A    between atoms: C_15  and  C_17
REMARK    6  A    between atoms: C_17  and  C_18
REMARK                            x       y       z     vdW  Elec       q    Type
REMARK                         _______ _______ _______ _____ _____    ______ ____
ROOT
ATOM      1  C   UNL     1      36.785  -0.310  15.041  0.00  0.00    +0.000 A 
ATOM      2  C   UNL     1      36.938  -1.537  14.460  0.00  0.00    +0.000 A 
ATOM      3  S   UNL     1      35.907  -2.542  15.378  0.00  0.00    +0.000 S 
ATOM      4  C   UNL     1      35.300  -1.372  16.487  0.00  0.00    +0.000 A 
ATOM      5  C   UNL     1      35.944  -0.228  16.080  0.00  0.00    +0.000 A 
ATOM      6  C   UNL     1      35.488   0.899  17.002  0.00  0.00    +0.000 C 
ATOM      7  C   UNL     1      36.088   0.481  18.292  0.00  0.00    +0.000 C 
ATOM      8  C   UNL     1      35.250  -0.759  18.940  0.00  0.00    +0.000 C 
ATOM      9  C   UNL     1      36.444  -1.859  18.663  0.00  0.00    +0.000 C 
ATOM     10  C   UNL     1      34.388  -1.211  17.629  0.00  0.00    +0.000 C 
ENDROOT
BRANCH   1  12
ATOM     11  N   UNL     1      38.798   1.251  15.057  0.00  0.00    +0.000 NA
ATOM     12  C   UNL     1      37.521   0.875  14.539  0.00  0.00    +0.000 C 
ATOM     13  O   UNL     1      37.001   1.567  13.631  0.00  0.00    +0.000 OA
BRANCH  11  19
ATOM     14  C   UNL     1      39.215   3.634  15.118  0.00  0.00    +0.000 A 
ATOM     15  C   UNL     1      39.819   4.762  14.608  0.00  0.00    +0.000 A 
ATOM     16  C   UNL     1      40.647   4.710  13.500  0.00  0.00    +0.000 A 
ATOM     17  C   UNL     1      40.858   3.493  12.908  0.00  0.00    +0.000 A 
ATOM     18  C   UNL     1      40.253   2.341  13.414  0.00  0.00    +0.000 A 
ATOM     19  C   UNL     1      39.437   2.414  14.511  0.00  0.00    +0.000 A 
BRANCH  14  21
ATOM     20  C   UNL     1      38.626   4.709  17.209  0.00  0.00    +0.000 C 
ATOM     21  O   UNL     1      38.396   3.725  16.226  0.00  0.00    +0.000 OA
ENDBRANCH  14  21
ENDBRANCH  11  19
ENDBRANCH   1  12
BRANCH   2  22
ATOM     22  N   UNL     1      37.748  -1.936  13.356  0.00  0.00    +0.000 NA
ATOM     23  C   UNL     1      39.101  -2.295  13.523  0.00  0.00    +0.000 C 
ATOM     24  O   UNL     1      39.608  -2.264  14.658  0.00  0.00    +0.000 OA
BRANCH  23  25
ATOM     25  C   UNL     1      39.891  -2.698  12.359  0.00  0.00    +0.000 C 
BRANCH  25  26
ATOM     26  C   UNL     1      40.624  -1.569  11.734  0.00  0.00    +0.000 A 
ATOM     27  C   UNL     1      39.981  -0.902  10.711  0.00  0.00    +0.000 A 
ATOM     28  C   UNL     1      40.558   0.170  10.046  0.00  0.00    +0.000 A 
ATOM     29  C   UNL     1      41.800   0.564  10.427  0.00  0.00    +0.000 A 
ATOM     30  C   UNL     1      42.463  -0.083  11.445  0.00  0.00    +0.000 A 
ATOM     31  C   UNL     1      41.867  -1.159  12.103  0.00  0.00    +0.000 A 
ENDBRANCH  25  26
ENDBRANCH  23  25
ENDBRANCH   2  22
TORSDOF 6
ENDMDL
MODEL 8
REMARK VINA RESULT:      -7.1      2.490      6.804
REMARK  Name = 
REMARK  6 active torsions:
REMARK  status: ('A' for Active; 'I' for Inactive)
REMARK    1  A    between atoms: O_2  and  C_3
REMARK    2  A    between atoms: C_8  and  N_9
REMARK    3  A    between atoms: C_10  and  C_12
REMARK    4  A    between atoms: C_13  and  N_14
REMARK    5  A    between atoms: C_15  and  C_17
REMARK    6  A    between atoms: C_17  and  C_18
REMARK                            x       y       z     vdW  Elec       q    Type
REMARK                         _______ _______ _______ _____ _____    ______ ____
ROOT
ATOM      1  C   UNL     1      37.822  -0.554  15.400  0.00  0.00    +0.000 A 
ATOM      2  C   UNL     1      38.641  -1.637  15.561  0.00  0.00    +0.000 A 
ATOM      3  S   UNL     1      37.741  -2.667  16.583  0.00  0.00    +0.000 S 
ATOM      4  C   UNL     1      36.336  -1.692  16.786  0.00  0.00    +0.000 A 
ATOM      5  C   UNL     1      36.640  -0.586  16.030  0.00  0.00    +0.000 A 
ATOM      6  C   UNL     1      35.456   0.372  16.133  0.00  0.00    +0.000 C 
ATOM      7  C   UNL     1      35.528   0.770  17.559  0.00  0.00    +0.000 C 
ATOM      8  C   UNL     1      34.990  -0.433  18.519  0.00  0.00    +0.000 C 
ATOM      9  C   UNL     1      36.487  -0.779  19.115  0.00  0.00    +0.000 C 
ATOM     10  C   UNL     1      35.021  -1.664  17.446  0.00  0.00    +0.000 C 
ENDROOT
BRANCH   1  12
ATOM     11  N   UNL     1      38.876   1.748  15.121  0.00  0.00    +0.000 NA
ATOM     12  C   UNL     1      38.230   0.600  14.566  0.00  0.00    +0.000 C 
ATOM     13  O   UNL     1      37.998   0.566  13.334  0.00  0.00    +0.000 OA
BRANCH  11  19
ATOM     14  C   UNL     1      38.373   3.891  14.116  0.00  0.00    +0.000 A 
ATOM     15  C   UNL     1      38.700   4.929  13.272  0.00  0.00    +0.000 A 
ATOM     16  C   UNL     1      39.873   4.932  12.538  0.00  0.00    +0.000 A 
ATOM     17  C   UNL     1      40.719   3.862  12.667  0.00  0.00    +0.000 A 
ATOM     18  C   UNL     1      40.401   2.803  13.519  0.00  0.00    +0.000 A 
ATOM     19  C   UNL     1      39.235   2.819  14.237  0.00  0.00    +0.000 A 
BRANCH  14  21
ATOM     20  C   UNL     1      35.952   3.769  14.182  0.00  0.00    +0.000 C 
ATOM     21  O   UNL     1      37.193   3.924  14.833  0.00  0.00    +0.000 OA
ENDBRANCH  14  21
ENDBRANCH  11  19
ENDBRANCH   1  12
BRANCH   2  22
ATOM     22  N   UNL     1      39.938  -1.894  15.027  0.00  0.00    +0.000 NA
ATOM     23  C   UNL     1      40.113  -2.549  13.792  0.00  0.00    +0.000 C 
ATOM     24  O   UNL     1      39.115  -2.914  13.145  0.00  0.00    +0.000 OA
BRANCH  23  25
ATOM     25  C   UNL     1      41.464  -2.791  13.286  0.00  0.00    +0.000 C 
BRANCH  25  26
ATOM     26  C   UNL     1      42.398  -1.671  13.564  0.00  0.00    +0.000 A 
ATOM     27  C   UNL     1      43.390  -1.906  14.494  0.00  0.00    +0.000 A 
ATOM     28  C   UNL     1      44.325  -0.942  14.841  0.00  0.00    +0.000 A 
ATOM     29  C   UNL     1      44.247   0.271  14.235  0.00  0.00    +0.000 A 
ATOM     30  C   UNL     1      43.268   0.531  13.304  0.00  0.00    +0.000 A 
ATOM     31  C   UNL     1      42.336  -0.451  12.966  0.00  0.00    +0.000 A 
ENDBRANCH  25  26
ENDBRANCH  23  25
ENDBRANCH   2  22
TORSDOF 6
ENDMDL
MODEL 9
REMARK VINA RESULT:      -7.1     27.656     31.307
REMARK  Name = 
REMARK  6 active torsions:
REMARK  status: ('A' for Active; 'I' for Inactive)
REMARK    1  A    between atoms: O_2  and  C_3
REMARK    2  A    between atoms: C_8  and  N_9
REMARK    3  A    between atoms: C_10  and  C_12
REMARK    4  A    between atoms: C_13  and  N_14
REMARK    5  A    between atoms: C_15  and  C_17
REMARK    6  A    between atoms: C_17  and  C_18
REMARK                            x       y       z     vdW  Elec       q    Type
REMARK                         _______ _______ _______ _____ _____    ______ ____
ROOT
ATOM      1  C   UNL     1      25.408  15.408  40.759  0.00  0.00    +0.000 A 
ATOM      2  C   UNL     1      25.680  16.432  39.897  0.00  0.00    +0.000 A 
ATOM      3  S   UNL     1      24.787  17.738  40.539  0.00  0.00    +0.000 S 
ATOM      4  C   UNL     1      24.082  16.948  41.897  0.00  0.00    +0.000 A 
ATOM      5  C   UNL     1      24.588  15.675  41.784  0.00  0.00    +0.000 A 
ATOM      6  C   UNL     1      24.025  14.860  42.946  0.00  0.00    +0.000 C 
ATOM      7  C   UNL     1      22.587  14.804  42.590  0.00  0.00    +0.000 C 
ATOM      8  C   UNL     1      21.865  16.236  42.887  0.00  0.00    +0.000 C 
ATOM      9  C   UNL     1      21.675  16.598  41.291  0.00  0.00    +0.000 C 
ATOM     10  C   UNL     1      23.193  17.174  43.046  0.00  0.00    +0.000 C 
ENDROOT
BRANCH   1  12
ATOM     11  N   UNL     1      26.927  13.498  41.490  0.00  0.00    +0.000 NA
ATOM     12  C   UNL     1      25.997  14.062  40.563  0.00  0.00    +0.000 C 
ATOM     13  O   UNL     1      25.668  13.401  39.549  0.00  0.00    +0.000 OA
BRANCH  11  19
ATOM     14  C   UNL     1      26.683  11.092  41.566  0.00  0.00    +0.000 A 
ATOM     15  C   UNL     1      27.164   9.826  41.314  0.00  0.00    +0.000 A 
ATOM     16  C   UNL     1      28.397   9.619  40.720  0.00  0.00    +0.000 A 
ATOM     17  C   UNL     1      29.144  10.715  40.381  0.00  0.00    +0.000 A 
ATOM     18  C   UNL     1      28.669  12.004  40.630  0.00  0.00    +0.000 A 
ATOM     19  C   UNL     1      27.447  12.189  41.219  0.00  0.00    +0.000 A 
BRANCH  14  21
ATOM     20  C   UNL     1      25.056  10.448  43.244  0.00  0.00    +0.000 C 
ATOM     21  O   UNL     1      25.447  11.259  42.160  0.00  0.00    +0.000 OA
ENDBRANCH  14  21
ENDBRANCH  11  19
ENDBRANCH   1  12
BRANCH   2  22
ATOM     22  N   UNL     1      26.502  16.459  38.732  0.00  0.00    +0.000 NA
ATOM     23  C   UNL     1      25.970  16.231  37.447  0.00  0.00    +0.000 C 
ATOM     24  O   UNL     1      24.755  16.001  37.318  0.00  0.00    +0.000 OA
BRANCH  23  25
ATOM     25  C   UNL     1      26.854  16.269  36.281  0.00  0.00    +0.000 C 
BRANCH  25  26
ATOM     26  C   UNL     1      26.165  15.912  35.017  0.00  0.00    +0.000 A 
ATOM     27  C   UNL     1      25.585  16.946  34.311  0.00  0.00    +0.000 A 
ATOM     28  C   UNL     1      24.912  16.743  33.115  0.00  0.00    +0.000 A 
ATOM     29  C   UNL     1      24.829  15.475  32.636  0.00  0.00    +0.000 A 
ATOM     30  C   UNL     1      25.399  14.425  33.320  0.00  0.00    +0.000 A 
ATOM     31  C   UNL     1      26.073  14.648  34.521  0.00  0.00    +0.000 A 
ENDBRANCH  25  26
ENDBRANCH  23  25
ENDBRANCH   2  22
TORSDOF 6
ENDMDL
MODEL 10
REMARK VINA RESULT:      -7.0      2.845      3.343
REMARK  Name = 
REMARK  6 active torsions:
REMARK  status: ('A' for Active; 'I' for Inactive)
REMARK    1  A    between atoms: O_2  and  C_3
REMARK    2  A    between atoms: C_8  and  N_9
REMARK    3  A    between atoms: C_10  and  C_12
REMARK    4  A    between atoms: C_13  and  N_14
REMARK    5  A    between atoms: C_15  and  C_17
REMARK    6  A    between atoms: C_17  and  C_18
REMARK                            x       y       z     vdW  Elec       q    Type
REMARK                         _______ _______ _______ _____ _____    ______ ____
ROOT
ATOM      1  C   UNL     1      39.262  -0.645  13.223  0.00  0.00    +0.000 A 
ATOM      2  C   UNL     1      39.092   0.026  12.045  0.00  0.00    +0.000 A 
ATOM      3  S   UNL     1      40.179  -0.754  10.984  0.00  0.00    +0.000 S 
ATOM      4  C   UNL     1      40.829  -1.923  12.069  0.00  0.00    +0.000 A 
ATOM      5  C   UNL     1      40.153  -1.644  13.233  0.00  0.00    +0.000 A 
ATOM      6  C   UNL     1      40.652  -2.625  14.291  0.00  0.00    +0.000 C 
ATOM      7  C   UNL     1      42.053  -2.174  14.467  0.00  0.00    +0.000 C 
ATOM      8  C   UNL     1      42.971  -2.645  13.204  0.00  0.00    +0.000 C 
ATOM      9  C   UNL     1      43.139  -1.117  12.612  0.00  0.00    +0.000 C 
ATOM     10  C   UNL     1      41.789  -3.034  12.147  0.00  0.00    +0.000 C 
ENDROOT
BRANCH   1  12
ATOM     11  N   UNL     1      37.426  -1.091  14.932  0.00  0.00    +0.000 NA
ATOM     12  C   UNL     1      38.490  -0.278  14.434  0.00  0.00    +0.000 C 
ATOM     13  O   UNL     1      38.782   0.782  15.037  0.00  0.00    +0.000 OA
BRANCH  11  19
ATOM     14  C   UNL     1      37.265  -0.982  17.344  0.00  0.00    +0.000 A 
ATOM     15  C   UNL     1      36.615  -0.574  18.488  0.00  0.00    +0.000 A 
ATOM     16  C   UNL     1      35.439   0.155  18.440  0.00  0.00    +0.000 A 
ATOM     17  C   UNL     1      34.923   0.469  17.210  0.00  0.00    +0.000 A 
ATOM     18  C   UNL     1      35.571   0.064  16.043  0.00  0.00    +0.000 A 
ATOM     19  C   UNL     1      36.734  -0.657  16.111  0.00  0.00    +0.000 A 
BRANCH  14  21
ATOM     20  C   UNL     1      38.417  -3.055  17.845  0.00  0.00    +0.000 C 
ATOM     21  O   UNL     1      38.436  -1.707  17.432  0.00  0.00    +0.000 OA
ENDBRANCH  14  21
ENDBRANCH  11  19
ENDBRANCH   1  12
BRANCH   2  22
ATOM     22  N   UNL     1      38.231   1.118  11.725  0.00  0.00    +0.000 NA
ATOM     23  C   UNL     1      38.637   2.456  11.903  0.00  0.00    +0.000 C 
ATOM     24  O   UNL     1      39.772   2.698  12.349  0.00  0.00    +0.000 OA
BRANCH  23  25
ATOM     25  C   UNL     1      37.719   3.542  11.560  0.00  0.00    +0.000 C 
BRANCH  25  26
ATOM     26  C   UNL     1      36.778   3.877  12.658  0.00  0.00    +0.000 A 
ATOM     27  C   UNL     1      36.169   5.114  12.599  0.00  0.00    +0.000 A 
ATOM     28  C   UNL     1      35.271   5.546  13.564  0.00  0.00    +0.000 A 
ATOM     29  C   UNL     1      34.992   4.709  14.596  0.00  0.00    +0.000 A 
ATOM     30  C   UNL     1      35.585   3.471  14.679  0.00  0.00    +0.000 A 
ATOM     31  C   UNL     1      36.486   3.052  13.700  0.00  0.00    +0.000 A 
ENDBRANCH  25  26
ENDBRANCH  23  25
ENDBRANCH   2  22
TORSDOF 6
ENDMDL
