MODEL 1
REMARK VINA RESULT:      -8.8      0.000      0.000
REMARK  Name = 
REMARK  7 active torsions:
REMARK  status: ('A' for Active; 'I' for Inactive)
REMARK    1  A    between atoms: C_2  and  O_3
REMARK    2  A    between atoms: O_3  and  C_4
REMARK    3  A    between atoms: C_9  and  N_10
REMARK    4  A    between atoms: N_10  and  C_11
REMARK    5  A    between atoms: C_12  and  S_13
REMARK    6  A    between atoms: S_13  and  C_14
REMARK    7  A    between atoms: N_23  and  C_24
REMARK                            x       y       z     vdW  Elec       q    Type
REMARK                         _______ _______ _______ _____ _____    ______ ____
ROOT
ATOM      1  C   UNL     1      36.350   4.307  14.578  0.00  0.00    +0.000 C 
ATOM      2  C   UNL     1      37.628   4.118  14.800  0.00  0.00    +0.000 C 
ATOM      3  C   UNL     1      37.883   2.677  15.044  0.00  0.00    +0.000 C 
ATOM      4  O   UNL     1      39.008   2.185  15.284  0.00  0.00    +0.000 OA
ATOM      5  N   UNL     1      36.644   1.994  14.952  0.00  0.00    +0.000 N 
ATOM      6  C   UNL     1      35.671   2.985  14.662  0.00  0.00    +0.000 C 
ATOM      7  O   UNL     1      34.428   2.837  14.494  0.00  0.00    +0.000 OA
ENDROOT
BRANCH   5   8
ATOM      8  C   UNL     1      36.410   0.593  15.122  0.00  0.00    +0.000 A 
ATOM      9  C   UNL     1      36.846  -0.324  14.222  0.00  0.00    +0.000 A 
ATOM     10  C   UNL     1      36.630  -1.674  14.372  0.00  0.00    +0.000 A 
ATOM     11  C   UNL     1      35.941  -2.080  15.488  0.00  0.00    +0.000 A 
ATOM     12  C   UNL     1      35.484  -1.164  16.427  0.00  0.00    +0.000 A 
ATOM     13  C   UNL     1      34.730  -1.630  17.643  0.00  0.00    +0.000 C 
ATOM     14  C   UNL     1      35.719   0.180  16.244  0.00  0.00    +0.000 A 
ATOM     15  C   UNL     1      35.218   1.150  17.263  0.00  0.00    +0.000 C 
ENDBRANCH   5   8
BRANCH   1  16
ATOM     16  N   UNL     1      35.722   5.539  14.304  0.00  0.00    +0.000 NA
BRANCH  16  22
ATOM     17  C   UNL     1      34.268   6.945  13.005  0.00  0.00    +0.000 A 
ATOM     18  C   UNL     1      33.835   7.468  11.809  0.00  0.00    +0.000 A 
ATOM     19  C   UNL     1      34.441   7.141  10.595  0.00  0.00    +0.000 A 
ATOM     20  C   UNL     1      35.502   6.262  10.634  0.00  0.00    +0.000 A 
ATOM     21  C   UNL     1      35.921   5.748  11.845  0.00  0.00    +0.000 A 
ATOM     22  C   UNL     1      35.344   6.052  13.057  0.00  0.00    +0.000 A 
BRANCH  17  23
ATOM     23  O   UNL     1      33.619   7.317  14.166  0.00  0.00    +0.000 OA
BRANCH  23  25
ATOM     24  C   UNL     1      33.282   8.656  16.078  0.00  0.00    +0.000 C 
ATOM     25  C   UNL     1      33.709   8.651  14.630  0.00  0.00    +0.000 C 
ENDBRANCH  23  25
ENDBRANCH  17  23
ENDBRANCH  16  22
ENDBRANCH   1  16
BRANCH   2  26
ATOM     26  S   UNL     1      38.865   5.409  14.803  0.00  0.00    +0.000 S 
BRANCH  26  27
ATOM     27  C   UNL     1      39.509   5.680  16.422  0.00  0.00    +0.000 A 
ATOM     28  C   UNL     1      40.770   6.184  16.628  0.00  0.00    +0.000 A 
ATOM     29  C   UNL     1      41.291   6.407  17.901  0.00  0.00    +0.000 A 
ATOM     30  C   UNL     1      40.531   6.119  19.001  0.00  0.00    +0.000 A 
ATOM     31  C   UNL     1      41.125   6.372  20.362  0.00  0.00    +0.000 C 
ATOM     32  C   UNL     1      39.268   5.615  18.827  0.00  0.00    +0.000 A 
ATOM     33  C   UNL     1      38.741   5.388  17.549  0.00  0.00    +0.000 A 
ENDBRANCH  26  27
ENDBRANCH   2  26
TORSDOF 7
ENDMDL
MODEL 2
REMARK VINA RESULT:      -8.6      1.486      5.892
REMARK  Name = 
REMARK  7 active torsions:
REMARK  status: ('A' for Active; 'I' for Inactive)
REMARK    1  A    between atoms: C_2  and  O_3
REMARK    2  A    between atoms: O_3  and  C_4
REMARK    3  A    between atoms: C_9  and  N_10
REMARK    4  A    between atoms: N_10  and  C_11
REMARK    5  A    between atoms: C_12  and  S_13
REMARK    6  A    between atoms: S_13  and  C_14
REMARK    7  A    between atoms: N_23  and  C_24
REMARK                            x       y       z     vdW  Elec       q    Type
REMARK                         _______ _______ _______ _____ _____    ______ ____
ROOT
ATOM      1  C   UNL     1      36.789   5.283  14.650  0.00  0.00    +0.000 C 
ATOM      2  C   UNL     1      37.307   4.082  14.560  0.00  0.00    +0.000 C 
ATOM      3  C   UNL     1      38.639   4.065  15.214  0.00  0.00    +0.000 C 
ATOM      4  O   UNL     1      39.379   3.060  15.292  0.00  0.00    +0.000 OA
ATOM      5  N   UNL     1      38.896   5.367  15.714  0.00  0.00    +0.000 N 
ATOM      6  C   UNL     1      37.759   6.147  15.378  0.00  0.00    +0.000 C 
ATOM      7  O   UNL     1      37.546   7.367  15.623  0.00  0.00    +0.000 OA
ENDROOT
BRANCH   5   8
ATOM      8  C   UNL     1      40.062   5.814  16.412  0.00  0.00    +0.000 A 
ATOM      9  C   UNL     1      41.181   6.218  15.759  0.00  0.00    +0.000 A 
ATOM     10  C   UNL     1      42.309   6.651  16.416  0.00  0.00    +0.000 A 
ATOM     11  C   UNL     1      42.271   6.664  17.788  0.00  0.00    +0.000 A 
ATOM     12  C   UNL     1      41.139   6.257  18.483  0.00  0.00    +0.000 A 
ATOM     13  C   UNL     1      41.119   6.278  19.987  0.00  0.00    +0.000 C 
ATOM     14  C   UNL     1      40.028   5.829  17.792  0.00  0.00    +0.000 A 
ATOM     15  C   UNL     1      38.821   5.395  18.557  0.00  0.00    +0.000 C 
ENDBRANCH   5   8
BRANCH   1  16
ATOM     16  N   UNL     1      35.535   5.693  14.152  0.00  0.00    +0.000 NA
BRANCH  16  22
ATOM     17  C   UNL     1      34.210   7.122  12.745  0.00  0.00    +0.000 A 
ATOM     18  C   UNL     1      33.857   7.625  11.515  0.00  0.00    +0.000 A 
ATOM     19  C   UNL     1      34.498   7.230  10.340  0.00  0.00    +0.000 A 
ATOM     20  C   UNL     1      35.512   6.303  10.454  0.00  0.00    +0.000 A 
ATOM     21  C   UNL     1      35.853   5.810  11.698  0.00  0.00    +0.000 A 
ATOM     22  C   UNL     1      35.238   6.181  12.873  0.00  0.00    +0.000 A 
BRANCH  17  23
ATOM     23  O   UNL     1      33.530   7.563  13.863  0.00  0.00    +0.000 OA
BRANCH  23  25
ATOM     24  C   UNL     1      33.311   8.696  15.920  0.00  0.00    +0.000 C 
ATOM     25  C   UNL     1      33.996   8.694  14.575  0.00  0.00    +0.000 C 
ENDBRANCH  23  25
ENDBRANCH  17  23
ENDBRANCH  16  22
ENDBRANCH   1  16
BRANCH   2  26
ATOM     26  S   UNL     1      36.517   2.686  13.772  0.00  0.00    +0.000 S 
BRANCH  26  27
ATOM     27  C   UNL     1      35.979   1.496  14.956  0.00  0.00    +0.000 A 
ATOM     28  C   UNL     1      35.184   1.838  16.021  0.00  0.00    +0.000 A 
ATOM     29  C   UNL     1      34.748   0.908  16.963  0.00  0.00    +0.000 A 
ATOM     30  C   UNL     1      35.118  -0.403  16.838  0.00  0.00    +0.000 A 
ATOM     31  C   UNL     1      34.630  -1.382  17.874  0.00  0.00    +0.000 C 
ATOM     32  C   UNL     1      35.912  -0.775  15.784  0.00  0.00    +0.000 A 
ATOM     33  C   UNL     1      36.353   0.158  14.836  0.00  0.00    +0.000 A 
ENDBRANCH  26  27
ENDBRANCH   2  26
TORSDOF 7
ENDMDL
MODEL 3
REMARK VINA RESULT:      -8.4      2.287      6.136
REMARK  Name = 
REMARK  7 active torsions:
REMARK  status: ('A' for Active; 'I' for Inactive)
REMARK    1  A    between atoms: C_2  and  O_3
REMARK    2  A    between atoms: O_3  and  C_4
REMARK    3  A    between atoms: C_9  and  N_10
REMARK    4  A    between atoms: N_10  and  C_11
REMARK    5  A    between atoms: C_12  and  S_13
REMARK    6  A    between atoms: S_13  and  C_14
REMARK    7  A    between atoms: N_23  and  C_24
REMARK                            x       y       z     vdW  Elec       q    Type
REMARK                         _______ _______ _______ _____ _____    ______ ____
ROOT
ATOM      1  C   UNL     1      37.963   5.637  16.187  0.00  0.00    +0.000 C 
ATOM      2  C   UNL     1      37.265   5.771  15.085  0.00  0.00    +0.000 C 
ATOM      3  C   UNL     1      36.529   4.513  14.807  0.00  0.00    +0.000 C 
ATOM      4  O   UNL     1      35.776   4.333  13.824  0.00  0.00    +0.000 OA
ATOM      5  N   UNL     1      36.838   3.590  15.838  0.00  0.00    +0.000 N 
ATOM      6  C   UNL     1      37.729   4.264  16.713  0.00  0.00    +0.000 C 
ATOM      7  O   UNL     1      38.267   3.830  17.770  0.00  0.00    +0.000 OA
ENDROOT
BRANCH   5   8
ATOM      8  C   UNL     1      36.359   2.249  15.975  0.00  0.00    +0.000 A 
ATOM      9  C   UNL     1      35.258   1.949  16.708  0.00  0.00    +0.000 A 
ATOM     10  C   UNL     1      34.785   0.665  16.848  0.00  0.00    +0.000 A 
ATOM     11  C   UNL     1      35.478  -0.333  16.208  0.00  0.00    +0.000 A 
ATOM     12  C   UNL     1      36.609  -0.055  15.451  0.00  0.00    +0.000 A 
ATOM     13  C   UNL     1      37.355  -1.164  14.758  0.00  0.00    +0.000 C 
ATOM     14  C   UNL     1      37.053   1.242  15.333  0.00  0.00    +0.000 A 
ATOM     15  C   UNL     1      38.271   1.521  14.515  0.00  0.00    +0.000 C 
ENDBRANCH   5   8
BRANCH   1  16
ATOM     16  N   UNL     1      38.789   6.615  16.778  0.00  0.00    +0.000 NA
BRANCH  16  22
ATOM     17  C   UNL     1      39.580   6.902  19.030  0.00  0.00    +0.000 A 
ATOM     18  C   UNL     1      39.483   7.440  20.291  0.00  0.00    +0.000 A 
ATOM     19  C   UNL     1      38.457   8.319  20.645  0.00  0.00    +0.000 A 
ATOM     20  C   UNL     1      37.531   8.633  19.675  0.00  0.00    +0.000 A 
ATOM     21  C   UNL     1      37.645   8.082  18.414  0.00  0.00    +0.000 A 
ATOM     22  C   UNL     1      38.645   7.214  18.037  0.00  0.00    +0.000 A 
BRANCH  17  23
ATOM     23  O   UNL     1      40.624   6.041  18.754  0.00  0.00    +0.000 OA
BRANCH  23  25
ATOM     24  C   UNL     1      42.455   6.515  17.345  0.00  0.00    +0.000 C 
ATOM     25  C   UNL     1      41.957   6.517  18.770  0.00  0.00    +0.000 C 
ENDBRANCH  23  25
ENDBRANCH  17  23
ENDBRANCH  16  22
ENDBRANCH   1  16
BRANCH   2  26
ATOM     26  S   UNL     1      37.214   7.250  14.083  0.00  0.00    +0.000 S 
BRANCH  26  27
ATOM     27  C   UNL     1      36.149   8.468  14.784  0.00  0.00    +0.000 A 
ATOM     28  C   UNL     1      36.633   9.635  15.320  0.00  0.00    +0.000 A 
ATOM     29  C   UNL     1      35.803  10.608  15.874  0.00  0.00    +0.000 A 
ATOM     30  C   UNL     1      34.450  10.409  15.894  0.00  0.00    +0.000 A 
ATOM     31  C   UNL     1      33.582  11.481  16.501  0.00  0.00    +0.000 C 
ATOM     32  C   UNL     1      33.937   9.252  15.365  0.00  0.00    +0.000 A 
ATOM     33  C   UNL     1      34.768   8.272  14.808  0.00  0.00    +0.000 A 
ENDBRANCH  26  27
ENDBRANCH   2  26
TORSDOF 7
ENDMDL
MODEL 4
REMARK VINA RESULT:      -8.1      1.682      2.640
REMARK  Name = 
REMARK  7 active torsions:
REMARK  status: ('A' for Active; 'I' for Inactive)
REMARK    1  A    between atoms: C_2  and  O_3
REMARK    2  A    between atoms: O_3  and  C_4
REMARK    3  A    between atoms: C_9  and  N_10
REMARK    4  A    between atoms: N_10  and  C_11
REMARK    5  A    between atoms: C_12  and  S_13
REMARK    6  A    between atoms: S_13  and  C_14
REMARK    7  A    between atoms: N_23  and  C_24
REMARK                            x       y       z     vdW  Elec       q    Type
REMARK                         _______ _______ _______ _____ _____    ______ ____
ROOT
ATOM      1  C   UNL     1      37.159   4.406  14.008  0.00  0.00    +0.000 C 
ATOM      2  C   UNL     1      37.469   4.717  15.243  0.00  0.00    +0.000 C 
ATOM      3  C   UNL     1      37.484   3.489  16.076  0.00  0.00    +0.000 C 
ATOM      4  O   UNL     1      37.747   3.463  17.298  0.00  0.00    +0.000 OA
ATOM      5  N   UNL     1      37.153   2.392  15.240  0.00  0.00    +0.000 N 
ATOM      6  C   UNL     1      36.946   2.935  13.945  0.00  0.00    +0.000 C 
ATOM      7  O   UNL     1      36.633   2.328  12.883  0.00  0.00    +0.000 OA
ENDROOT
BRANCH   5   8
ATOM      8  C   UNL     1      37.043   1.016  15.617  0.00  0.00    +0.000 A 
ATOM      9  C   UNL     1      38.024   0.117  15.355  0.00  0.00    +0.000 A 
ATOM     10  C   UNL     1      37.932  -1.208  15.711  0.00  0.00    +0.000 A 
ATOM     11  C   UNL     1      36.788  -1.608  16.357  0.00  0.00    +0.000 A 
ATOM     12  C   UNL     1      35.767  -0.709  16.638  0.00  0.00    +0.000 A 
ATOM     13  C   UNL     1      34.521  -1.167  17.346  0.00  0.00    +0.000 C 
ATOM     14  C   UNL     1      35.894   0.611  16.266  0.00  0.00    +0.000 A 
ATOM     15  C   UNL     1      34.785   1.561  16.577  0.00  0.00    +0.000 C 
ENDBRANCH   5   8
BRANCH   1  16
ATOM     16  N   UNL     1      37.047   5.301  12.924  0.00  0.00    +0.000 NA
BRANCH  16  22
ATOM     17  C   UNL     1      35.781   6.197  11.087  0.00  0.00    +0.000 A 
ATOM     18  C   UNL     1      34.684   6.844  10.570  0.00  0.00    +0.000 A 
ATOM     19  C   UNL     1      33.632   7.280  11.377  0.00  0.00    +0.000 A 
ATOM     20  C   UNL     1      33.731   7.038  12.730  0.00  0.00    +0.000 A 
ATOM     21  C   UNL     1      34.842   6.387  13.230  0.00  0.00    +0.000 A 
ATOM     22  C   UNL     1      35.893   5.946  12.458  0.00  0.00    +0.000 A 
BRANCH  17  23
ATOM     23  O   UNL     1      36.781   5.793  10.224  0.00  0.00    +0.000 OA
BRANCH  23  25
ATOM     24  C   UNL     1      37.387   3.577   9.690  0.00  0.00    +0.000 C 
ATOM     25  C   UNL     1      36.536   4.758   9.290  0.00  0.00    +0.000 C 
ENDBRANCH  23  25
ENDBRANCH  17  23
ENDBRANCH  16  22
ENDBRANCH   1  16
BRANCH   2  26
ATOM     26  S   UNL     1      37.821   6.371  15.822  0.00  0.00    +0.000 S 
BRANCH  26  27
ATOM     27  C   UNL     1      38.991   6.357  17.142  0.00  0.00    +0.000 A 
ATOM     28  C   UNL     1      40.338   6.225  16.917  0.00  0.00    +0.000 A 
ATOM     29  C   UNL     1      41.274   6.215  17.950  0.00  0.00    +0.000 A 
ATOM     30  C   UNL     1      40.852   6.340  19.245  0.00  0.00    +0.000 A 
ATOM     31  C   UNL     1      41.891   6.326  20.336  0.00  0.00    +0.000 C 
ATOM     32  C   UNL     1      39.512   6.474  19.500  0.00  0.00    +0.000 A 
ATOM     33  C   UNL     1      38.568   6.483  18.465  0.00  0.00    +0.000 A 
ENDBRANCH  26  27
ENDBRANCH   2  26
TORSDOF 7
ENDMDL
MODEL 5
REMARK VINA RESULT:      -8.1      3.117      7.726
REMARK  Name = 
REMARK  7 active torsions:
REMARK  status: ('A' for Active; 'I' for Inactive)
REMARK    1  A    between atoms: C_2  and  O_3
REMARK    2  A    between atoms: O_3  and  C_4
REMARK    3  A    between atoms: C_9  and  N_10
REMARK    4  A    between atoms: N_10  and  C_11
REMARK    5  A    between atoms: C_12  and  S_13
REMARK    6  A    between atoms: S_13  and  C_14
REMARK    7  A    between atoms: N_23  and  C_24
REMARK                            x       y       z     vdW  Elec       q    Type
REMARK                         _______ _______ _______ _____ _____    ______ ____
ROOT
ATOM      1  C   UNL     1      37.301   1.615  15.248  0.00  0.00    +0.000 C 
ATOM      2  C   UNL     1      38.362   1.908  14.536  0.00  0.00    +0.000 C 
ATOM      3  C   UNL     1      38.942   3.189  15.011  0.00  0.00    +0.000 C 
ATOM      4  O   UNL     1      39.961   3.729  14.528  0.00  0.00    +0.000 OA
ATOM      5  N   UNL     1      38.139   3.660  16.080  0.00  0.00    +0.000 N 
ATOM      6  C   UNL     1      37.109   2.699  16.250  0.00  0.00    +0.000 C 
ATOM      7  O   UNL     1      36.163   2.703  17.088  0.00  0.00    +0.000 OA
ENDROOT
BRANCH   5   8
ATOM      8  C   UNL     1      38.318   4.862  16.836  0.00  0.00    +0.000 A 
ATOM      9  C   UNL     1      38.866   4.856  18.078  0.00  0.00    +0.000 A 
ATOM     10  C   UNL     1      39.045   6.003  18.816  0.00  0.00    +0.000 A 
ATOM     11  C   UNL     1      38.643   7.186  18.247  0.00  0.00    +0.000 A 
ATOM     12  C   UNL     1      38.080   7.222  16.977  0.00  0.00    +0.000 A 
ATOM     13  C   UNL     1      37.646   8.529  16.372  0.00  0.00    +0.000 C 
ATOM     14  C   UNL     1      37.916   6.054  16.267  0.00  0.00    +0.000 A 
ATOM     15  C   UNL     1      37.308   6.113  14.905  0.00  0.00    +0.000 C 
ENDBRANCH   5   8
BRANCH   1  16
ATOM     16  N   UNL     1      36.482   0.477  15.099  0.00  0.00    +0.000 NA
BRANCH  16  22
ATOM     17  C   UNL     1      37.338  -1.335  16.425  0.00  0.00    +0.000 A 
ATOM     18  C   UNL     1      37.741  -2.641  16.581  0.00  0.00    +0.000 A 
ATOM     19  C   UNL     1      37.691  -3.562  15.534  0.00  0.00    +0.000 A 
ATOM     20  C   UNL     1      37.219  -3.114  14.319  0.00  0.00    +0.000 A 
ATOM     21  C   UNL     1      36.819  -1.799  14.183  0.00  0.00    +0.000 A 
ATOM     22  C   UNL     1      36.857  -0.869  15.197  0.00  0.00    +0.000 A 
BRANCH  17  23
ATOM     23  O   UNL     1      37.416  -0.483  17.509  0.00  0.00    +0.000 OA
BRANCH  23  25
ATOM     24  C   UNL     1      35.256  -0.552  18.455  0.00  0.00    +0.000 C 
ATOM     25  C   UNL     1      36.725  -0.794  18.705  0.00  0.00    +0.000 C 
ENDBRANCH  23  25
ENDBRANCH  17  23
ENDBRANCH  16  22
ENDBRANCH   1  16
BRANCH   2  26
ATOM     26  S   UNL     1      39.005   0.906  13.203  0.00  0.00    +0.000 S 
BRANCH  26  27
ATOM     27  C   UNL     1      40.511   0.110  13.662  0.00  0.00    +0.000 A 
ATOM     28  C   UNL     1      41.730   0.722  13.514  0.00  0.00    +0.000 A 
ATOM     29  C   UNL     1      42.928   0.108  13.876  0.00  0.00    +0.000 A 
ATOM     30  C   UNL     1      42.906  -1.156  14.400  0.00  0.00    +0.000 A 
ATOM     31  C   UNL     1      44.219  -1.791  14.780  0.00  0.00    +0.000 C 
ATOM     32  C   UNL     1      41.702  -1.792  14.559  0.00  0.00    +0.000 A 
ATOM     33  C   UNL     1      40.497  -1.178  14.196  0.00  0.00    +0.000 A 
ENDBRANCH  26  27
ENDBRANCH   2  26
TORSDOF 7
ENDMDL
MODEL 6
REMARK VINA RESULT:      -8.0      1.793      7.850
REMARK  Name = 
REMARK  7 active torsions:
REMARK  status: ('A' for Active; 'I' for Inactive)
REMARK    1  A    between atoms: C_2  and  O_3
REMARK    2  A    between atoms: O_3  and  C_4
REMARK    3  A    between atoms: C_9  and  N_10
REMARK    4  A    between atoms: N_10  and  C_11
REMARK    5  A    between atoms: C_12  and  S_13
REMARK    6  A    between atoms: S_13  and  C_14
REMARK    7  A    between atoms: N_23  and  C_24
REMARK                            x       y       z     vdW  Elec       q    Type
REMARK                         _______ _______ _______ _____ _____    ______ ____
ROOT
ATOM      1  C   UNL     1      37.033   3.804  14.796  0.00  0.00    +0.000 C 
ATOM      2  C   UNL     1      36.561   5.027  14.780  0.00  0.00    +0.000 C 
ATOM      3  C   UNL     1      37.597   5.967  15.275  0.00  0.00    +0.000 C 
ATOM      4  O   UNL     1      37.444   7.204  15.376  0.00  0.00    +0.000 OA
ATOM      5  N   UNL     1      38.752   5.210  15.600  0.00  0.00    +0.000 N 
ATOM      6  C   UNL     1      38.429   3.859  15.310  0.00  0.00    +0.000 C 
ATOM      7  O   UNL     1      39.155   2.834  15.444  0.00  0.00    +0.000 OA
ENDROOT
BRANCH   5   8
ATOM      8  C   UNL     1      39.992   5.699  16.119  0.00  0.00    +0.000 A 
ATOM      9  C   UNL     1      41.030   6.032  15.311  0.00  0.00    +0.000 A 
ATOM     10  C   UNL     1      42.228   6.504  15.796  0.00  0.00    +0.000 A 
ATOM     11  C   UNL     1      42.348   6.631  17.158  0.00  0.00    +0.000 A 
ATOM     12  C   UNL     1      41.302   6.298  18.009  0.00  0.00    +0.000 A 
ATOM     13  C   UNL     1      41.456   6.444  19.498  0.00  0.00    +0.000 C 
ATOM     14  C   UNL     1      40.117   5.829  17.488  0.00  0.00    +0.000 A 
ATOM     15  C   UNL     1      39.005   5.476  18.420  0.00  0.00    +0.000 C 
ENDBRANCH   5   8
BRANCH   1  16
ATOM     16  N   UNL     1      36.348   2.638  14.397  0.00  0.00    +0.000 NA
BRANCH  16  22
ATOM     17  C   UNL     1      36.312   0.271  14.811  0.00  0.00    +0.000 A 
ATOM     18  C   UNL     1      35.929  -0.828  15.544  0.00  0.00    +0.000 A 
ATOM     19  C   UNL     1      35.160  -0.714  16.703  0.00  0.00    +0.000 A 
ATOM     20  C   UNL     1      34.790   0.555  17.094  0.00  0.00    +0.000 A 
ATOM     21  C   UNL     1      35.185   1.646  16.345  0.00  0.00    +0.000 A 
ATOM     22  C   UNL     1      35.943   1.563  15.199  0.00  0.00    +0.000 A 
BRANCH  17  23
ATOM     23  O   UNL     1      37.075   0.078  13.676  0.00  0.00    +0.000 OA
BRANCH  23  25
ATOM     24  C   UNL     1      38.620  -1.593  13.057  0.00  0.00    +0.000 C 
ATOM     25  C   UNL     1      38.438  -0.288  13.792  0.00  0.00    +0.000 C 
ENDBRANCH  23  25
ENDBRANCH  17  23
ENDBRANCH  16  22
ENDBRANCH   1  16
BRANCH   2  26
ATOM     26  S   UNL     1      34.919   5.481  14.238  0.00  0.00    +0.000 S 
BRANCH  26  27
ATOM     27  C   UNL     1      34.939   6.141  12.603  0.00  0.00    +0.000 A 
ATOM     28  C   UNL     1      33.995   7.038  12.170  0.00  0.00    +0.000 A 
ATOM     29  C   UNL     1      34.000   7.571  10.883  0.00  0.00    +0.000 A 
ATOM     30  C   UNL     1      34.977   7.197  10.001  0.00  0.00    +0.000 A 
ATOM     31  C   UNL     1      34.952   7.792   8.617  0.00  0.00    +0.000 C 
ATOM     32  C   UNL     1      35.933   6.302  10.406  0.00  0.00    +0.000 A 
ATOM     33  C   UNL     1      35.931   5.763  11.699  0.00  0.00    +0.000 A 
ENDBRANCH  26  27
ENDBRANCH   2  26
TORSDOF 7
ENDMDL
MODEL 7
REMARK VINA RESULT:      -8.0      3.090      8.052
REMARK  Name = 
REMARK  7 active torsions:
REMARK  status: ('A' for Active; 'I' for Inactive)
REMARK    1  A    between atoms: C_2  and  O_3
REMARK    2  A    between atoms: O_3  and  C_4
REMARK    3  A    between atoms: C_9  and  N_10
REMARK    4  A    between atoms: N_10  and  C_11
REMARK    5  A    between atoms: C_12  and  S_13
REMARK    6  A    between atoms: S_13  and  C_14
REMARK    7  A    between atoms: N_23  and  C_24
REMARK                            x       y       z     vdW  Elec       q    Type
REMARK                         _______ _______ _______ _____ _____    ______ ____
ROOT
ATOM      1  C   UNL     1      38.161   1.949  14.455  0.00  0.00    +0.000 C 
ATOM      2  C   UNL     1      37.134   1.755  15.248  0.00  0.00    +0.000 C 
ATOM      3  C   UNL     1      36.833   3.007  15.986  0.00  0.00    +0.000 C 
ATOM      4  O   UNL     1      35.908   3.136  16.817  0.00  0.00    +0.000 OA
ATOM      5  N   UNL     1      37.770   3.990  15.577  0.00  0.00    +0.000 N 
ATOM      6  C   UNL     1      38.609   3.358  14.623  0.00  0.00    +0.000 C 
ATOM      7  O   UNL     1      39.585   3.850  13.990  0.00  0.00    +0.000 OA
ENDROOT
BRANCH   5   8
ATOM      8  C   UNL     1      37.863   5.343  16.032  0.00  0.00    +0.000 A 
ATOM      9  C   UNL     1      37.503   6.392  15.250  0.00  0.00    +0.000 A 
ATOM     10  C   UNL     1      37.586   7.697  15.674  0.00  0.00    +0.000 A 
ATOM     11  C   UNL     1      38.056   7.917  16.945  0.00  0.00    +0.000 A 
ATOM     12  C   UNL     1      38.431   6.863  17.768  0.00  0.00    +0.000 A 
ATOM     13  C   UNL     1      38.945   7.126  19.157  0.00  0.00    +0.000 C 
ATOM     14  C   UNL     1      38.335   5.568  17.310  0.00  0.00    +0.000 A 
ATOM     15  C   UNL     1      38.744   4.448  18.209  0.00  0.00    +0.000 C 
ENDBRANCH   5   8
BRANCH   1  16
ATOM     16  N   UNL     1      38.742   0.997  13.592  0.00  0.00    +0.000 NA
BRANCH  16  22
ATOM     17  C   UNL     1      39.645  -1.209  13.900  0.00  0.00    +0.000 A 
ATOM     18  C   UNL     1      40.685  -2.070  14.161  0.00  0.00    +0.000 A 
ATOM     19  C   UNL     1      41.987  -1.614  14.380  0.00  0.00    +0.000 A 
ATOM     20  C   UNL     1      42.198  -0.254  14.326  0.00  0.00    +0.000 A 
ATOM     21  C   UNL     1      41.140   0.594  14.062  0.00  0.00    +0.000 A 
ATOM     22  C   UNL     1      39.848   0.174  13.842  0.00  0.00    +0.000 A 
BRANCH  17  23
ATOM     23  O   UNL     1      38.385  -1.735  13.692  0.00  0.00    +0.000 OA
BRANCH  23  25
ATOM     24  C   UNL     1      36.979  -3.593  14.057  0.00  0.00    +0.000 C 
ATOM     25  C   UNL     1      38.233  -3.106  13.374  0.00  0.00    +0.000 C 
ENDBRANCH  23  25
ENDBRANCH  17  23
ENDBRANCH  16  22
ENDBRANCH   1  16
BRANCH   2  26
ATOM     26  S   UNL     1      36.240   0.215  15.403  0.00  0.00    +0.000 S 
BRANCH  26  27
ATOM     27  C   UNL     1      36.643  -0.616  16.905  0.00  0.00    +0.000 A 
ATOM     28  C   UNL     1      37.698  -1.491  16.990  0.00  0.00    +0.000 A 
ATOM     29  C   UNL     1      38.031  -2.152  18.171  0.00  0.00    +0.000 A 
ATOM     30  C   UNL     1      37.288  -1.934  19.299  0.00  0.00    +0.000 A 
ATOM     31  C   UNL     1      37.675  -2.666  20.558  0.00  0.00    +0.000 C 
ATOM     32  C   UNL     1      36.229  -1.066  19.243  0.00  0.00    +0.000 A 
ATOM     33  C   UNL     1      35.890  -0.400  18.058  0.00  0.00    +0.000 A 
ENDBRANCH  26  27
ENDBRANCH   2  26
TORSDOF 7
ENDMDL
MODEL 8
REMARK VINA RESULT:      -8.0     23.873     26.815
REMARK  Name = 
REMARK  7 active torsions:
REMARK  status: ('A' for Active; 'I' for Inactive)
REMARK    1  A    between atoms: C_2  and  O_3
REMARK    2  A    between atoms: O_3  and  C_4
REMARK    3  A    between atoms: C_9  and  N_10
REMARK    4  A    between atoms: N_10  and  C_11
REMARK    5  A    between atoms: C_12  and  S_13
REMARK    6  A    between atoms: S_13  and  C_14
REMARK    7  A    between atoms: N_23  and  C_24
REMARK                            x       y       z     vdW  Elec       q    Type
REMARK                         _______ _______ _______ _____ _____    ______ ____
ROOT
ATOM      1  C   UNL     1      29.156  15.444  36.982  0.00  0.00    +0.000 C 
ATOM      2  C   UNL     1      28.122  15.444  37.788  0.00  0.00    +0.000 C 
ATOM      3  C   UNL     1      26.870  15.492  36.992  0.00  0.00    +0.000 C 
ATOM      4  O   UNL     1      25.719  15.502  37.478  0.00  0.00    +0.000 OA
ATOM      5  N   UNL     1      27.229  15.523  35.620  0.00  0.00    +0.000 N 
ATOM      6  C   UNL     1      28.647  15.494  35.584  0.00  0.00    +0.000 C 
ATOM      7  O   UNL     1      29.406  15.506  34.575  0.00  0.00    +0.000 OA
ENDROOT
BRANCH   5   8
ATOM      8  C   UNL     1      26.348  15.579  34.494  0.00  0.00    +0.000 A 
ATOM      9  C   UNL     1      26.020  14.472  33.780  0.00  0.00    +0.000 A 
ATOM     10  C   UNL     1      25.175  14.510  32.696  0.00  0.00    +0.000 A 
ATOM     11  C   UNL     1      24.656  15.732  32.346  0.00  0.00    +0.000 A 
ATOM     12  C   UNL     1      24.974  16.882  33.059  0.00  0.00    +0.000 A 
ATOM     13  C   UNL     1      24.395  18.212  32.657  0.00  0.00    +0.000 C 
ATOM     14  C   UNL     1      25.824  16.806  34.139  0.00  0.00    +0.000 A 
ATOM     15  C   UNL     1      26.153  18.053  34.891  0.00  0.00    +0.000 C 
ENDBRANCH   5   8
BRANCH   1  16
ATOM     16  N   UNL     1      30.513  15.403  37.363  0.00  0.00    +0.000 NA
BRANCH  16  22
ATOM     17  C   UNL     1      31.963  14.181  38.840  0.00  0.00    +0.000 A 
ATOM     18  C   UNL     1      32.767  13.107  39.137  0.00  0.00    +0.000 A 
ATOM     19  C   UNL     1      32.964  12.058  38.237  0.00  0.00    +0.000 A 
ATOM     20  C   UNL     1      32.317  12.136  37.023  0.00  0.00    +0.000 A 
ATOM     21  C   UNL     1      31.514  13.224  36.744  0.00  0.00    +0.000 A 
ATOM     22  C   UNL     1      31.301  14.272  37.611  0.00  0.00    +0.000 A 
BRANCH  17  23
ATOM     23  O   UNL     1      31.815  15.180  39.783  0.00  0.00    +0.000 OA
BRANCH  23  25
ATOM     24  C   UNL     1      31.228  15.647  42.019  0.00  0.00    +0.000 C 
ATOM     25  C   UNL     1      32.225  14.959  41.119  0.00  0.00    +0.000 C 
ENDBRANCH  23  25
ENDBRANCH  17  23
ENDBRANCH  16  22
ENDBRANCH   1  16
BRANCH   2  26
ATOM     26  S   UNL     1      28.218  15.391  39.572  0.00  0.00    +0.000 S 
BRANCH  26  27
ATOM     27  C   UNL     1      27.990  13.751  40.181  0.00  0.00    +0.000 A 
ATOM     28  C   UNL     1      29.049  12.912  40.422  0.00  0.00    +0.000 A 
ATOM     29  C   UNL     1      28.884  11.615  40.906  0.00  0.00    +0.000 A 
ATOM     30  C   UNL     1      27.625  11.143  41.157  0.00  0.00    +0.000 A 
ATOM     31  C   UNL     1      27.483   9.738  41.680  0.00  0.00    +0.000 C 
ATOM     32  C   UNL     1      26.548  11.960  40.926  0.00  0.00    +0.000 A 
ATOM     33  C   UNL     1      26.709  13.263  40.438  0.00  0.00    +0.000 A 
ENDBRANCH  26  27
ENDBRANCH   2  26
TORSDOF 7
ENDMDL
MODEL 9
REMARK VINA RESULT:      -8.0      4.604      8.198
REMARK  Name = 
REMARK  7 active torsions:
REMARK  status: ('A' for Active; 'I' for Inactive)
REMARK    1  A    between atoms: C_2  and  O_3
REMARK    2  A    between atoms: O_3  and  C_4
REMARK    3  A    between atoms: C_9  and  N_10
REMARK    4  A    between atoms: N_10  and  C_11
REMARK    5  A    between atoms: C_12  and  S_13
REMARK    6  A    between atoms: S_13  and  C_14
REMARK    7  A    between atoms: N_23  and  C_24
REMARK                            x       y       z     vdW  Elec       q    Type
REMARK                         _______ _______ _______ _____ _____    ______ ____
ROOT
ATOM      1  C   UNL     1      38.901  -1.545  15.063  0.00  0.00    +0.000 C 
ATOM      2  C   UNL     1      39.040  -0.441  14.370  0.00  0.00    +0.000 C 
ATOM      3  C   UNL     1      40.440  -0.328  13.891  0.00  0.00    +0.000 C 
ATOM      4  O   UNL     1      40.881   0.617  13.201  0.00  0.00    +0.000 OA
ATOM      5  N   UNL     1      41.152  -1.465  14.353  0.00  0.00    +0.000 N 
ATOM      6  C   UNL     1      40.217  -2.240  15.086  0.00  0.00    +0.000 C 
ATOM      7  O   UNL     1      40.405  -3.339  15.681  0.00  0.00    +0.000 OA
ENDROOT
BRANCH   5   8
ATOM      8  C   UNL     1      42.532  -1.772  14.136  0.00  0.00    +0.000 A 
ATOM      9  C   UNL     1      43.520  -1.210  14.876  0.00  0.00    +0.000 A 
ATOM     10  C   UNL     1      44.851  -1.495  14.679  0.00  0.00    +0.000 A 
ATOM     11  C   UNL     1      45.161  -2.390  13.685  0.00  0.00    +0.000 A 
ATOM     12  C   UNL     1      44.170  -2.982  12.912  0.00  0.00    +0.000 A 
ATOM     13  C   UNL     1      44.531  -3.959  11.826  0.00  0.00    +0.000 C 
ATOM     14  C   UNL     1      42.848  -2.672  13.137  0.00  0.00    +0.000 A 
ATOM     15  C   UNL     1      41.797  -3.317  12.295  0.00  0.00    +0.000 C 
ENDBRANCH   5   8
BRANCH   1  16
ATOM     16  N   UNL     1      37.717  -2.002  15.679  0.00  0.00    +0.000 NA
BRANCH  16  22
ATOM     17  C   UNL     1      37.544  -1.692  18.056  0.00  0.00    +0.000 A 
ATOM     18  C   UNL     1      36.921  -1.186  19.172  0.00  0.00    +0.000 A 
ATOM     19  C   UNL     1      35.770  -0.401  19.087  0.00  0.00    +0.000 A 
ATOM     20  C   UNL     1      35.271  -0.146  17.827  0.00  0.00    +0.000 A 
ATOM     21  C   UNL     1      35.912  -0.663  16.719  0.00  0.00    +0.000 A 
ATOM     22  C   UNL     1      37.047  -1.440  16.773  0.00  0.00    +0.000 A 
BRANCH  17  23
ATOM     23  O   UNL     1      38.681  -2.459  18.221  0.00  0.00    +0.000 OA
BRANCH  23  25
ATOM     24  C   UNL     1      39.021  -4.033  19.945  0.00  0.00    +0.000 C 
ATOM     25  C   UNL     1      38.567  -3.838  18.519  0.00  0.00    +0.000 C 
ENDBRANCH  23  25
ENDBRANCH  17  23
ENDBRANCH  16  22
ENDBRANCH   1  16
BRANCH   2  26
ATOM     26  S   UNL     1      37.735   0.738  14.055  0.00  0.00    +0.000 S 
BRANCH  26  27
ATOM     27  C   UNL     1      37.929   2.192  15.034  0.00  0.00    +0.000 A 
ATOM     28  C   UNL     1      39.006   3.030  14.886  0.00  0.00    +0.000 A 
ATOM     29  C   UNL     1      39.170   4.184  15.650  0.00  0.00    +0.000 A 
ATOM     30  C   UNL     1      38.233   4.510  16.591  0.00  0.00    +0.000 A 
ATOM     31  C   UNL     1      38.442   5.764  17.399  0.00  0.00    +0.000 C 
ATOM     32  C   UNL     1      37.146   3.692  16.761  0.00  0.00    +0.000 A 
ATOM     33  C   UNL     1      36.978   2.531  15.996  0.00  0.00    +0.000 A 
ENDBRANCH  26  27
ENDBRANCH   2  26
TORSDOF 7
ENDMDL
MODEL 10
REMARK VINA RESULT:      -7.9      2.062      6.533
REMARK  Name = 
REMARK  7 active torsions:
REMARK  status: ('A' for Active; 'I' for Inactive)
REMARK    1  A    between atoms: C_2  and  O_3
REMARK    2  A    between atoms: O_3  and  C_4
REMARK    3  A    between atoms: C_9  and  N_10
REMARK    4  A    between atoms: N_10  and  C_11
REMARK    5  A    between atoms: C_12  and  S_13
REMARK    6  A    between atoms: S_13  and  C_14
REMARK    7  A    between atoms: N_23  and  C_24
REMARK                            x       y       z     vdW  Elec       q    Type
REMARK                         _______ _______ _______ _____ _____    ______ ____
ROOT
ATOM      1  C   UNL     1      36.992   6.205  14.751  0.00  0.00    +0.000 C 
ATOM      2  C   UNL     1      37.122   4.913  14.933  0.00  0.00    +0.000 C 
ATOM      3  C   UNL     1      38.095   4.660  16.024  0.00  0.00    +0.000 C 
ATOM      4  O   UNL     1      38.428   3.524  16.428  0.00  0.00    +0.000 OA
ATOM      5  N   UNL     1      38.555   5.915  16.498  0.00  0.00    +0.000 N 
ATOM      6  C   UNL     1      37.883   6.896  15.723  0.00  0.00    +0.000 C 
ATOM      7  O   UNL     1      37.981   8.153  15.795  0.00  0.00    +0.000 OA
ENDROOT
BRANCH   5   8
ATOM      8  C   UNL     1      39.506   6.154  17.539  0.00  0.00    +0.000 A 
ATOM      9  C   UNL     1      39.141   6.228  18.844  0.00  0.00    +0.000 A 
ATOM     10  C   UNL     1      40.043   6.457  19.857  0.00  0.00    +0.000 A 
ATOM     11  C   UNL     1      41.360   6.612  19.501  0.00  0.00    +0.000 A 
ATOM     12  C   UNL     1      41.763   6.541  18.173  0.00  0.00    +0.000 A 
ATOM     13  C   UNL     1      43.211   6.716  17.805  0.00  0.00    +0.000 C 
ATOM     14  C   UNL     1      40.831   6.311  17.186  0.00  0.00    +0.000 A 
ATOM     15  C   UNL     1      41.283   6.238  15.765  0.00  0.00    +0.000 C 
ENDBRANCH   5   8
BRANCH   1  16
ATOM     16  N   UNL     1      36.157   6.837  13.807  0.00  0.00    +0.000 NA
BRANCH  16  22
ATOM     17  C   UNL     1      35.642   9.074  13.093  0.00  0.00    +0.000 A 
ATOM     18  C   UNL     1      34.955  10.259  13.214  0.00  0.00    +0.000 A 
ATOM     19  C   UNL     1      33.998  10.463  14.210  0.00  0.00    +0.000 A 
ATOM     20  C   UNL     1      33.761   9.422  15.081  0.00  0.00    +0.000 A 
ATOM     21  C   UNL     1      34.461   8.240  14.943  0.00  0.00    +0.000 A 
ATOM     22  C   UNL     1      35.409   8.010  13.972  0.00  0.00    +0.000 A 
BRANCH  17  23
ATOM     23  O   UNL     1      36.572   8.946  12.080  0.00  0.00    +0.000 OA
BRANCH  23  25
ATOM     24  C   UNL     1      36.320   8.548   9.769  0.00  0.00    +0.000 C 
ATOM     25  C   UNL     1      36.369   9.606  10.845  0.00  0.00    +0.000 C 
ENDBRANCH  23  25
ENDBRANCH  17  23
ENDBRANCH  16  22
ENDBRANCH   1  16
BRANCH   2  26
ATOM     26  S   UNL     1      36.251   3.659  14.003  0.00  0.00    +0.000 S 
BRANCH  26  27
ATOM     27  C   UNL     1      35.840   2.275  15.016  0.00  0.00    +0.000 A 
ATOM     28  C   UNL     1      36.277   1.007  14.726  0.00  0.00    +0.000 A 
ATOM     29  C   UNL     1      35.964  -0.095  15.518  0.00  0.00    +0.000 A 
ATOM     30  C   UNL     1      35.190   0.073  16.633  0.00  0.00    +0.000 A 
ATOM     31  C   UNL     1      34.870  -1.140  17.468  0.00  0.00    +0.000 C 
ATOM     32  C   UNL     1      34.738   1.329  16.949  0.00  0.00    +0.000 A 
ATOM     33  C   UNL     1      35.051   2.439  16.154  0.00  0.00    +0.000 A 
ENDBRANCH  26  27
ENDBRANCH   2  26
TORSDOF 7
ENDMDL
