MODEL 1
REMARK VINA RESULT:      -7.6      0.000      0.000
REMARK  Name = 
REMARK  10 active torsions:
REMARK  status: ('A' for Active; 'I' for Inactive)
REMARK    1  A    between atoms: O_2  and  C_3
REMARK    2  A    between atoms: C_6  and  C_7
REMARK    3  A    between atoms: C_7  and  N_8
REMARK    4  A    between atoms: N_8  and  C_9
REMARK    5  A    between atoms: C_9  and  C_10
REMARK    6  A    between atoms: C_10  and  C_12
REMARK    7  A    between atoms: C_12  and  O_13
REMARK    8  A    between atoms: O_13  and  C_14
REMARK    9  A    between atoms: C_17  and  C_18
REMARK   10  A    between atoms: C_18  and  C_21
REMARK                            x       y       z     vdW  Elec       q    Type
REMARK                         _______ _______ _______ _____ _____    ______ ____
ROOT
ATOM      1  O   UNL     1      37.935   3.211  16.029  0.00  0.00    +0.000 OA
ENDROOT
BRANCH   1   2
ATOM      2  C   UNL     1      38.615   4.275  16.682  0.00  0.00    +0.000 A 
ATOM      3  C   UNL     1      39.394   5.131  16.055  0.00  0.00    +0.000 A 
ATOM      4  C   UNL     1      40.016   6.171  16.735  0.00  0.00    +0.000 A 
ATOM      5  C   UNL     1      39.831   6.348  18.099  0.00  0.00    +0.000 A 
ATOM      6  C   UNL     1      39.014   5.426  18.708  0.00  0.00    +0.000 A 
ATOM      7  C   UNL     1      38.382   4.380  18.076  0.00  0.00    +0.000 A 
BRANCH   5   8
ATOM      8  C   UNL     1      40.379   7.461  18.908  0.00  0.00    +0.000 C 
ATOM      9  C   UNL     1      39.604   7.487  20.224  0.00  0.00    +0.000 C 
ATOM     10  C   UNL     1      40.328   8.777  18.236  0.00  0.00    +0.000 C 
BRANCH   8  11
ATOM     11  C   UNL     1      41.774   7.033  19.322  0.00  0.00    +0.000 A 
ATOM     12  C   UNL     1      41.891   6.485  20.614  0.00  0.00    +0.000 A 
ATOM     13  C   UNL     1      43.097   6.101  21.122  0.00  0.00    +0.000 A 
ATOM     14  C   UNL     1      44.200   6.254  20.357  0.00  0.00    +0.000 A 
ATOM     15  C   UNL     1      44.106   6.776  19.117  0.00  0.00    +0.000 A 
ATOM     16  C   UNL     1      42.883   7.182  18.559  0.00  0.00    +0.000 A 
ENDBRANCH   8  11
ENDBRANCH   5   8
ENDBRANCH   1   2
BRANCH   1  17
ATOM     17  C   UNL     1      37.704   3.384  14.672  0.00  0.00    +0.000 C 
BRANCH  17  18
ATOM     18  C   UNL     1      36.191   2.873  14.318  0.00  0.00    +0.000 C 
ATOM     19  O   UNL     1      35.733   4.404  14.224  0.00  0.00    +0.000 OA
BRANCH  18  20
ATOM     20  C   UNL     1      35.648   2.754  15.867  0.00  0.00    +0.000 C 
BRANCH  20  21
ATOM     21  N   UNL     1      35.256   1.334  15.828  0.00  0.00    +0.000 NA
BRANCH  21  22
ATOM     22  C   UNL     1      35.111   0.935  17.243  0.00  0.00    +0.000 C 
BRANCH  22  26
ATOM     23  C   UNL     1      37.995  -2.106  18.209  0.00  0.00    +0.000 A 
ATOM     24  C   UNL     1      37.209  -1.506  19.194  0.00  0.00    +0.000 A 
ATOM     25  C   UNL     1      36.320  -0.548  18.825  0.00  0.00    +0.000 A 
ATOM     26  C   UNL     1      36.164  -0.141  17.466  0.00  0.00    +0.000 A 
ATOM     27  C   UNL     1      36.928  -0.729  16.530  0.00  0.00    +0.000 A 
ATOM     28  C   UNL     1      37.869  -1.738  16.909  0.00  0.00    +0.000 A 
BRANCH  23  30
ATOM     29  C   UNL     1      38.803  -3.734  19.874  0.00  0.00    +0.000 C 
ATOM     30  O   UNL     1      38.905  -3.090  18.609  0.00  0.00    +0.000 OA
ENDBRANCH  23  30
ENDBRANCH  22  26
ENDBRANCH  21  22
ENDBRANCH  20  21
ENDBRANCH  18  20
ENDBRANCH  17  18
ENDBRANCH   1  17
TORSDOF 10
ENDMDL
MODEL 2
REMARK VINA RESULT:      -7.5      1.800      2.411
REMARK  Name = 
REMARK  10 active torsions:
REMARK  status: ('A' for Active; 'I' for Inactive)
REMARK    1  A    between atoms: O_2  and  C_3
REMARK    2  A    between atoms: C_6  and  C_7
REMARK    3  A    between atoms: C_7  and  N_8
REMARK    4  A    between atoms: N_8  and  C_9
REMARK    5  A    between atoms: C_9  and  C_10
REMARK    6  A    between atoms: C_10  and  C_12
REMARK    7  A    between atoms: C_12  and  O_13
REMARK    8  A    between atoms: O_13  and  C_14
REMARK    9  A    between atoms: C_17  and  C_18
REMARK   10  A    between atoms: C_18  and  C_21
REMARK                            x       y       z     vdW  Elec       q    Type
REMARK                         _______ _______ _______ _____ _____    ______ ____
ROOT
ATOM      1  O   UNL     1      37.878   3.189  16.158  0.00  0.00    +0.000 OA
ENDROOT
BRANCH   1   2
ATOM      2  C   UNL     1      38.576   4.259  16.780  0.00  0.00    +0.000 A 
ATOM      3  C   UNL     1      39.349   5.099  16.125  0.00  0.00    +0.000 A 
ATOM      4  C   UNL     1      39.990   6.147  16.775  0.00  0.00    +0.000 A 
ATOM      5  C   UNL     1      39.830   6.349  18.139  0.00  0.00    +0.000 A 
ATOM      6  C   UNL     1      39.018   5.443  18.778  0.00  0.00    +0.000 A 
ATOM      7  C   UNL     1      38.368   4.390  18.176  0.00  0.00    +0.000 A 
BRANCH   5   8
ATOM      8  C   UNL     1      40.399   7.472  18.917  0.00  0.00    +0.000 C 
ATOM      9  C   UNL     1      39.662   7.513  20.255  0.00  0.00    +0.000 C 
ATOM     10  C   UNL     1      40.326   8.781  18.232  0.00  0.00    +0.000 C 
BRANCH   8  11
ATOM     11  C   UNL     1      41.806   7.052  19.297  0.00  0.00    +0.000 A 
ATOM     12  C   UNL     1      41.954   6.480  20.575  0.00  0.00    +0.000 A 
ATOM     13  C   UNL     1      43.173   6.100  21.053  0.00  0.00    +0.000 A 
ATOM     14  C   UNL     1      44.259   6.279  20.269  0.00  0.00    +0.000 A 
ATOM     15  C   UNL     1      44.136   6.824  19.042  0.00  0.00    +0.000 A 
ATOM     16  C   UNL     1      42.899   7.227  18.515  0.00  0.00    +0.000 A 
ENDBRANCH   8  11
ENDBRANCH   5   8
ENDBRANCH   1   2
BRANCH   1  17
ATOM     17  C   UNL     1      36.531   3.083  16.471  0.00  0.00    +0.000 C 
BRANCH  17  18
ATOM     18  C   UNL     1      35.840   1.970  15.492  0.00  0.00    +0.000 C 
ATOM     19  O   UNL     1      34.464   2.779  15.601  0.00  0.00    +0.000 OA
BRANCH  18  20
ATOM     20  C   UNL     1      35.375   0.919  16.670  0.00  0.00    +0.000 C 
BRANCH  20  21
ATOM     21  N   UNL     1      35.812  -0.322  16.008  0.00  0.00    +0.000 NA
BRANCH  21  22
ATOM     22  C   UNL     1      36.677  -1.001  16.996  0.00  0.00    +0.000 C 
BRANCH  22  26
ATOM     23  C   UNL     1      40.314  -2.216  15.047  0.00  0.00    +0.000 A 
ATOM     24  C   UNL     1      39.705  -3.012  16.018  0.00  0.00    +0.000 A 
ATOM     25  C   UNL     1      38.560  -2.570  16.600  0.00  0.00    +0.000 A 
ATOM     26  C   UNL     1      37.963  -1.323  16.247  0.00  0.00    +0.000 A 
ATOM     27  C   UNL     1      38.561  -0.568  15.310  0.00  0.00    +0.000 A 
ATOM     28  C   UNL     1      39.768  -1.025  14.693  0.00  0.00    +0.000 A 
BRANCH  23  30
ATOM     29  C   UNL     1      41.704  -2.623  13.053  0.00  0.00    +0.000 C 
ATOM     30  O   UNL     1      41.492  -2.689  14.459  0.00  0.00    +0.000 OA
ENDBRANCH  23  30
ENDBRANCH  22  26
ENDBRANCH  21  22
ENDBRANCH  20  21
ENDBRANCH  18  20
ENDBRANCH  17  18
ENDBRANCH   1  17
TORSDOF 10
ENDMDL
MODEL 3
REMARK VINA RESULT:      -7.4      2.605      8.627
REMARK  Name = 
REMARK  10 active torsions:
REMARK  status: ('A' for Active; 'I' for Inactive)
REMARK    1  A    between atoms: O_2  and  C_3
REMARK    2  A    between atoms: C_6  and  C_7
REMARK    3  A    between atoms: C_7  and  N_8
REMARK    4  A    between atoms: N_8  and  C_9
REMARK    5  A    between atoms: C_9  and  C_10
REMARK    6  A    between atoms: C_10  and  C_12
REMARK    7  A    between atoms: C_12  and  O_13
REMARK    8  A    between atoms: O_13  and  C_14
REMARK    9  A    between atoms: C_17  and  C_18
REMARK   10  A    between atoms: C_18  and  C_21
REMARK                            x       y       z     vdW  Elec       q    Type
REMARK                         _______ _______ _______ _____ _____    ______ ____
ROOT
ATOM      1  O   UNL     1      35.954   3.341  13.952  0.00  0.00    +0.000 OA
ENDROOT
BRANCH   1   2
ATOM      2  C   UNL     1      35.801   2.214  14.804  0.00  0.00    +0.000 A 
ATOM      3  C   UNL     1      36.236   1.009  14.499  0.00  0.00    +0.000 A 
ATOM      4  C   UNL     1      36.084  -0.056  15.378  0.00  0.00    +0.000 A 
ATOM      5  C   UNL     1      35.475   0.115  16.614  0.00  0.00    +0.000 A 
ATOM      6  C   UNL     1      35.035   1.388  16.883  0.00  0.00    +0.000 A 
ATOM      7  C   UNL     1      35.159   2.470  16.042  0.00  0.00    +0.000 A 
BRANCH   5   8
ATOM      8  C   UNL     1      35.331  -0.926  17.657  0.00  0.00    +0.000 C 
ATOM      9  C   UNL     1      33.969  -1.586  17.450  0.00  0.00    +0.000 C 
ATOM     10  C   UNL     1      35.470  -0.420  19.039  0.00  0.00    +0.000 C 
BRANCH   8  11
ATOM     11  C   UNL     1      36.317  -2.021  17.298  0.00  0.00    +0.000 A 
ATOM     12  C   UNL     1      37.654  -1.794  17.676  0.00  0.00    +0.000 A 
ATOM     13  C   UNL     1      38.644  -2.681  17.374  0.00  0.00    +0.000 A 
ATOM     14  C   UNL     1      38.321  -3.805  16.697  0.00  0.00    +0.000 A 
ATOM     15  C   UNL     1      37.045  -4.040  16.328  0.00  0.00    +0.000 A 
ATOM     16  C   UNL     1      35.999  -3.151  16.620  0.00  0.00    +0.000 A 
ENDBRANCH   8  11
ENDBRANCH   5   8
ENDBRANCH   1   2
BRANCH   1  17
ATOM     17  C   UNL     1      36.176   4.554  14.589  0.00  0.00    +0.000 C 
BRANCH  17  18
ATOM     18  C   UNL     1      37.461   5.292  13.898  0.00  0.00    +0.000 C 
ATOM     19  O   UNL     1      37.642   4.016  12.950  0.00  0.00    +0.000 OA
BRANCH  18  20
ATOM     20  C   UNL     1      38.604   4.739  14.945  0.00  0.00    +0.000 C 
BRANCH  20  21
ATOM     21  N   UNL     1      37.903   5.078  16.196  0.00  0.00    +0.000 NA
BRANCH  21  22
ATOM     22  C   UNL     1      38.853   4.737  17.275  0.00  0.00    +0.000 C 
BRANCH  22  26
ATOM     23  C   UNL     1      39.092   7.992  20.077  0.00  0.00    +0.000 A 
ATOM     24  C   UNL     1      40.036   6.964  20.069  0.00  0.00    +0.000 A 
ATOM     25  C   UNL     1      39.902   5.962  19.162  0.00  0.00    +0.000 A 
ATOM     26  C   UNL     1      38.831   5.931  18.219  0.00  0.00    +0.000 A 
ATOM     27  C   UNL     1      37.931   6.928  18.239  0.00  0.00    +0.000 A 
ATOM     28  C   UNL     1      38.063   7.987  19.192  0.00  0.00    +0.000 A 
BRANCH  23  30
ATOM     29  C   UNL     1      38.531  10.241  20.913  0.00  0.00    +0.000 C 
ATOM     30  O   UNL     1      39.247   9.015  21.017  0.00  0.00    +0.000 OA
ENDBRANCH  23  30
ENDBRANCH  22  26
ENDBRANCH  21  22
ENDBRANCH  20  21
ENDBRANCH  18  20
ENDBRANCH  17  18
ENDBRANCH   1  17
TORSDOF 10
ENDMDL
MODEL 4
REMARK VINA RESULT:      -7.4      2.210      8.505
REMARK  Name = 
REMARK  10 active torsions:
REMARK  status: ('A' for Active; 'I' for Inactive)
REMARK    1  A    between atoms: O_2  and  C_3
REMARK    2  A    between atoms: C_6  and  C_7
REMARK    3  A    between atoms: C_7  and  N_8
REMARK    4  A    between atoms: N_8  and  C_9
REMARK    5  A    between atoms: C_9  and  C_10
REMARK    6  A    between atoms: C_10  and  C_12
REMARK    7  A    between atoms: C_12  and  O_13
REMARK    8  A    between atoms: O_13  and  C_14
REMARK    9  A    between atoms: C_17  and  C_18
REMARK   10  A    between atoms: C_18  and  C_21
REMARK                            x       y       z     vdW  Elec       q    Type
REMARK                         _______ _______ _______ _____ _____    ______ ____
ROOT
ATOM      1  O   UNL     1      36.609   2.982  13.962  0.00  0.00    +0.000 OA
ENDROOT
BRANCH   1   2
ATOM      2  C   UNL     1      36.229   1.844  14.725  0.00  0.00    +0.000 A 
ATOM      3  C   UNL     1      35.447   1.908  15.782  0.00  0.00    +0.000 A 
ATOM      4  C   UNL     1      35.083   0.763  16.480  0.00  0.00    +0.000 A 
ATOM      5  C   UNL     1      35.526  -0.491  16.081  0.00  0.00    +0.000 A 
ATOM      6  C   UNL     1      36.343  -0.504  14.976  0.00  0.00    +0.000 A 
ATOM      7  C   UNL     1      36.732   0.604  14.258  0.00  0.00    +0.000 A 
BRANCH   5   8
ATOM      8  C   UNL     1      35.140  -1.780  16.699  0.00  0.00    +0.000 C 
ATOM      9  C   UNL     1      35.050  -2.810  15.575  0.00  0.00    +0.000 C 
ATOM     10  C   UNL     1      33.879  -1.726  17.471  0.00  0.00    +0.000 C 
BRANCH   8  11
ATOM     11  C   UNL     1      36.339  -2.236  17.506  0.00  0.00    +0.000 A 
ATOM     12  C   UNL     1      36.512  -1.614  18.758  0.00  0.00    +0.000 A 
ATOM     13  C   UNL     1      37.574  -1.904  19.561  0.00  0.00    +0.000 A 
ATOM     14  C   UNL     1      38.477  -2.815  19.136  0.00  0.00    +0.000 A 
ATOM     15  C   UNL     1      38.327  -3.421  17.940  0.00  0.00    +0.000 A 
ATOM     16  C   UNL     1      37.247  -3.150  17.086  0.00  0.00    +0.000 A 
ENDBRANCH   8  11
ENDBRANCH   5   8
ENDBRANCH   1   2
BRANCH   1  17
ATOM     17  C   UNL     1      35.889   4.142  14.208  0.00  0.00    +0.000 C 
BRANCH  17  18
ATOM     18  C   UNL     1      36.806   5.160  15.100  0.00  0.00    +0.000 C 
ATOM     19  O   UNL     1      36.707   6.232  13.916  0.00  0.00    +0.000 OA
BRANCH  18  20
ATOM     20  C   UNL     1      38.273   4.634  14.570  0.00  0.00    +0.000 C 
BRANCH  20  21
ATOM     21  N   UNL     1      38.965   4.640  15.870  0.00  0.00    +0.000 NA
BRANCH  21  22
ATOM     22  C   UNL     1      39.998   5.690  15.752  0.00  0.00    +0.000 C 
BRANCH  22  26
ATOM     23  C   UNL     1      41.616   6.547  19.645  0.00  0.00    +0.000 A 
ATOM     24  C   UNL     1      42.385   6.683  18.488  0.00  0.00    +0.000 A 
ATOM     25  C   UNL     1      41.818   6.392  17.289  0.00  0.00    +0.000 A 
ATOM     26  C   UNL     1      40.463   5.956  17.177  0.00  0.00    +0.000 A 
ATOM     27  C   UNL     1      39.735   5.831  18.300  0.00  0.00    +0.000 A 
ATOM     28  C   UNL     1      40.326   6.134  19.567  0.00  0.00    +0.000 A 
BRANCH  23  30
ATOM     29  C   UNL     1      43.268   6.055  21.405  0.00  0.00    +0.000 C 
ATOM     30  O   UNL     1      42.217   6.852  20.869  0.00  0.00    +0.000 OA
ENDBRANCH  23  30
ENDBRANCH  22  26
ENDBRANCH  21  22
ENDBRANCH  20  21
ENDBRANCH  18  20
ENDBRANCH  17  18
ENDBRANCH   1  17
TORSDOF 10
ENDMDL
MODEL 5
REMARK VINA RESULT:      -7.3      1.137      2.691
REMARK  Name = 
REMARK  10 active torsions:
REMARK  status: ('A' for Active; 'I' for Inactive)
REMARK    1  A    between atoms: O_2  and  C_3
REMARK    2  A    between atoms: C_6  and  C_7
REMARK    3  A    between atoms: C_7  and  N_8
REMARK    4  A    between atoms: N_8  and  C_9
REMARK    5  A    between atoms: C_9  and  C_10
REMARK    6  A    between atoms: C_10  and  C_12
REMARK    7  A    between atoms: C_12  and  O_13
REMARK    8  A    between atoms: O_13  and  C_14
REMARK    9  A    between atoms: C_17  and  C_18
REMARK   10  A    between atoms: C_18  and  C_21
REMARK                            x       y       z     vdW  Elec       q    Type
REMARK                         _______ _______ _______ _____ _____    ______ ____
ROOT
ATOM      1  O   UNL     1      37.723   3.501  15.779  0.00  0.00    +0.000 OA
ENDROOT
BRANCH   1   2
ATOM      2  C   UNL     1      38.551   4.375  16.534  0.00  0.00    +0.000 A 
ATOM      3  C   UNL     1      39.478   5.140  15.996  0.00  0.00    +0.000 A 
ATOM      4  C   UNL     1      40.245   5.998  16.775  0.00  0.00    +0.000 A 
ATOM      5  C   UNL     1      40.055   6.085  18.147  0.00  0.00    +0.000 A 
ATOM      6  C   UNL     1      39.079   5.264  18.659  0.00  0.00    +0.000 A 
ATOM      7  C   UNL     1      38.300   4.397  17.928  0.00  0.00    +0.000 A 
BRANCH   5   8
ATOM      8  C   UNL     1      40.757   7.016  19.059  0.00  0.00    +0.000 C 
ATOM      9  C   UNL     1      41.777   7.784  18.220  0.00  0.00    +0.000 C 
ATOM     10  C   UNL     1      41.407   6.357  20.212  0.00  0.00    +0.000 C 
BRANCH   8  11
ATOM     11  C   UNL     1      39.742   8.074  19.444  0.00  0.00    +0.000 A 
ATOM     12  C   UNL     1      39.582   9.135  18.532  0.00  0.00    +0.000 A 
ATOM     13  C   UNL     1      38.732  10.172  18.781  0.00  0.00    +0.000 A 
ATOM     14  C   UNL     1      38.028  10.168  19.935  0.00  0.00    +0.000 A 
ATOM     15  C   UNL     1      38.167   9.159  20.819  0.00  0.00    +0.000 A 
ATOM     16  C   UNL     1      39.031   8.075  20.598  0.00  0.00    +0.000 A 
ENDBRANCH   8  11
ENDBRANCH   5   8
ENDBRANCH   1   2
BRANCH   1  17
ATOM     17  C   UNL     1      38.152   3.225  14.489  0.00  0.00    +0.000 C 
BRANCH  17  18
ATOM     18  C   UNL     1      36.887   2.675  13.611  0.00  0.00    +0.000 C 
ATOM     19  O   UNL     1      36.745   4.133  12.966  0.00  0.00    +0.000 OA
BRANCH  18  20
ATOM     20  C   UNL     1      35.713   2.995  14.719  0.00  0.00    +0.000 C 
BRANCH  20  21
ATOM     21  N   UNL     1      35.294   1.605  14.967  0.00  0.00    +0.000 NA
BRANCH  21  22
ATOM     22  C   UNL     1      34.917   1.565  16.395  0.00  0.00    +0.000 C 
BRANCH  22  26
ATOM     23  C   UNL     1      37.209  -1.455  18.428  0.00  0.00    +0.000 A 
ATOM     24  C   UNL     1      36.325  -0.623  19.116  0.00  0.00    +0.000 A 
ATOM     25  C   UNL     1      35.634   0.315  18.418  0.00  0.00    +0.000 A 
ATOM     26  C   UNL     1      35.783   0.471  17.007  0.00  0.00    +0.000 A 
ATOM     27  C   UNL     1      36.637  -0.338  16.359  0.00  0.00    +0.000 A 
ATOM     28  C   UNL     1      37.370  -1.328  17.087  0.00  0.00    +0.000 A 
BRANCH  23  30
ATOM     29  C   UNL     1      38.623  -3.471  18.530  0.00  0.00    +0.000 C 
ATOM     30  O   UNL     1      37.911  -2.414  19.165  0.00  0.00    +0.000 OA
ENDBRANCH  23  30
ENDBRANCH  22  26
ENDBRANCH  21  22
ENDBRANCH  20  21
ENDBRANCH  18  20
ENDBRANCH  17  18
ENDBRANCH   1  17
TORSDOF 10
ENDMDL
MODEL 6
REMARK VINA RESULT:      -7.2      4.134      7.676
REMARK  Name = 
REMARK  10 active torsions:
REMARK  status: ('A' for Active; 'I' for Inactive)
REMARK    1  A    between atoms: O_2  and  C_3
REMARK    2  A    between atoms: C_6  and  C_7
REMARK    3  A    between atoms: C_7  and  N_8
REMARK    4  A    between atoms: N_8  and  C_9
REMARK    5  A    between atoms: C_9  and  C_10
REMARK    6  A    between atoms: C_10  and  C_12
REMARK    7  A    between atoms: C_12  and  O_13
REMARK    8  A    between atoms: O_13  and  C_14
REMARK    9  A    between atoms: C_17  and  C_18
REMARK   10  A    between atoms: C_18  and  C_21
REMARK                            x       y       z     vdW  Elec       q    Type
REMARK                         _______ _______ _______ _____ _____    ______ ____
ROOT
ATOM      1  O   UNL     1      36.136   3.436  14.346  0.00  0.00    +0.000 OA
ENDROOT
BRANCH   1   2
ATOM      2  C   UNL     1      35.882   2.213  15.024  0.00  0.00    +0.000 A 
ATOM      3  C   UNL     1      35.156   2.128  16.119  0.00  0.00    +0.000 A 
ATOM      4  C   UNL     1      34.915   0.904  16.731  0.00  0.00    +0.000 A 
ATOM      5  C   UNL     1      35.426  -0.274  16.204  0.00  0.00    +0.000 A 
ATOM      6  C   UNL     1      36.180  -0.132  15.065  0.00  0.00    +0.000 A 
ATOM      7  C   UNL     1      36.448   1.058  14.428  0.00  0.00    +0.000 A 
BRANCH   5   8
ATOM      8  C   UNL     1      35.169  -1.636  16.726  0.00  0.00    +0.000 C 
ATOM      9  C   UNL     1      35.296  -2.601  15.549  0.00  0.00    +0.000 C 
ATOM     10  C   UNL     1      33.860  -1.788  17.397  0.00  0.00    +0.000 C 
BRANCH   8  11
ATOM     11  C   UNL     1      36.356  -1.982  17.602  0.00  0.00    +0.000 A 
ATOM     12  C   UNL     1      37.219  -2.978  17.106  0.00  0.00    +0.000 A 
ATOM     13  C   UNL     1      38.299  -3.410  17.817  0.00  0.00    +0.000 A 
ATOM     14  C   UNL     1      38.539  -2.859  19.027  0.00  0.00    +0.000 A 
ATOM     15  C   UNL     1      37.724  -1.903  19.518  0.00  0.00    +0.000 A 
ATOM     16  C   UNL     1      36.604  -1.432  18.816  0.00  0.00    +0.000 A 
ENDBRANCH   8  11
ENDBRANCH   5   8
ENDBRANCH   1   2
BRANCH   1  17
ATOM     17  C   UNL     1      36.578   4.486  15.137  0.00  0.00    +0.000 C 
BRANCH  17  18
ATOM     18  C   UNL     1      38.078   4.142  15.692  0.00  0.00    +0.000 C 
ATOM     19  O   UNL     1      38.105   5.575  16.403  0.00  0.00    +0.000 OA
BRANCH  18  20
ATOM     20  C   UNL     1      38.912   4.715  14.394  0.00  0.00    +0.000 C 
BRANCH  20  21
ATOM     21  N   UNL     1      39.856   3.592  14.258  0.00  0.00    +0.000 NA
BRANCH  21  22
ATOM     22  C   UNL     1      39.496   2.938  12.982  0.00  0.00    +0.000 C 
BRANCH  22  26
ATOM     23  C   UNL     1      40.082  -1.312  13.301  0.00  0.00    +0.000 A 
ATOM     24  C   UNL     1      39.608  -0.726  12.126  0.00  0.00    +0.000 A 
ATOM     25  C   UNL     1      39.439   0.622  12.091  0.00  0.00    +0.000 A 
ATOM     26  C   UNL     1      39.735   1.452  13.213  0.00  0.00    +0.000 A 
ATOM     27  C   UNL     1      40.190   0.873  14.337  0.00  0.00    +0.000 A 
ATOM     28  C   UNL     1      40.369  -0.546  14.384  0.00  0.00    +0.000 A 
BRANCH  23  30
ATOM     29  C   UNL     1      41.506  -3.305  13.038  0.00  0.00    +0.000 C 
ATOM     30  O   UNL     1      40.249  -2.700  13.318  0.00  0.00    +0.000 OA
ENDBRANCH  23  30
ENDBRANCH  22  26
ENDBRANCH  21  22
ENDBRANCH  20  21
ENDBRANCH  18  20
ENDBRANCH  17  18
ENDBRANCH   1  17
TORSDOF 10
ENDMDL
MODEL 7
REMARK VINA RESULT:      -7.1     25.693     27.924
REMARK  Name = 
REMARK  10 active torsions:
REMARK  status: ('A' for Active; 'I' for Inactive)
REMARK    1  A    between atoms: O_2  and  C_3
REMARK    2  A    between atoms: C_6  and  C_7
REMARK    3  A    between atoms: C_7  and  N_8
REMARK    4  A    between atoms: N_8  and  C_9
REMARK    5  A    between atoms: C_9  and  C_10
REMARK    6  A    between atoms: C_10  and  C_12
REMARK    7  A    between atoms: C_12  and  O_13
REMARK    8  A    between atoms: O_13  and  C_14
REMARK    9  A    between atoms: C_17  and  C_18
REMARK   10  A    between atoms: C_18  and  C_21
REMARK                            x       y       z     vdW  Elec       q    Type
REMARK                         _______ _______ _______ _____ _____    ______ ____
ROOT
ATOM      1  O   UNL     1      25.702  13.497  40.669  0.00  0.00    +0.000 OA
ENDROOT
BRANCH   1   2
ATOM      2  C   UNL     1      25.636  14.353  39.536  0.00  0.00    +0.000 A 
ATOM      3  C   UNL     1      24.512  14.661  38.924  0.00  0.00    +0.000 A 
ATOM      4  C   UNL     1      24.497  15.525  37.836  0.00  0.00    +0.000 A 
ATOM      5  C   UNL     1      25.668  16.098  37.360  0.00  0.00    +0.000 A 
ATOM      6  C   UNL     1      26.814  15.741  38.029  0.00  0.00    +0.000 A 
ATOM      7  C   UNL     1      26.876  14.888  39.107  0.00  0.00    +0.000 A 
BRANCH   5   8
ATOM      8  C   UNL     1      25.760  17.087  36.262  0.00  0.00    +0.000 C 
ATOM      9  C   UNL     1      27.209  17.567  36.208  0.00  0.00    +0.000 C 
ATOM     10  C   UNL     1      24.829  18.228  36.397  0.00  0.00    +0.000 C 
BRANCH   8  11
ATOM     11  C   UNL     1      25.595  16.304  34.974  0.00  0.00    +0.000 A 
ATOM     12  C   UNL     1      25.050  17.014  33.887  0.00  0.00    +0.000 A 
ATOM     13  C   UNL     1      24.811  16.413  32.687  0.00  0.00    +0.000 A 
ATOM     14  C   UNL     1      25.112  15.103  32.548  0.00  0.00    +0.000 A 
ATOM     15  C   UNL     1      25.636  14.408  33.578  0.00  0.00    +0.000 A 
ATOM     16  C   UNL     1      25.896  14.991  34.828  0.00  0.00    +0.000 A 
ENDBRANCH   8  11
ENDBRANCH   5   8
ENDBRANCH   1   2
BRANCH   1  17
ATOM     17  C   UNL     1      26.710  12.544  40.648  0.00  0.00    +0.000 C 
BRANCH  17  18
ATOM     18  C   UNL     1      26.325  11.336  41.682  0.00  0.00    +0.000 C 
ATOM     19  O   UNL     1      27.529  11.807  42.626  0.00  0.00    +0.000 OA
BRANCH  18  20
ATOM     20  C   UNL     1      27.257  10.169  40.990  0.00  0.00    +0.000 C 
BRANCH  20  21
ATOM     21  N   UNL     1      26.354   9.031  41.229  0.00  0.00    +0.000 NA
BRANCH  21  22
ATOM     22  C   UNL     1      27.084   8.149  42.163  0.00  0.00    +0.000 C 
BRANCH  22  26
ATOM     23  C   UNL     1      24.114   7.586  45.224  0.00  0.00    +0.000 A 
ATOM     24  C   UNL     1      23.792   8.151  43.989  0.00  0.00    +0.000 A 
ATOM     25  C   UNL     1      24.777   8.307  43.066  0.00  0.00    +0.000 A 
ATOM     26  C   UNL     1      26.123   7.908  43.320  0.00  0.00    +0.000 A 
ATOM     27  C   UNL     1      26.417   7.365  44.513  0.00  0.00    +0.000 A 
ATOM     28  C   UNL     1      25.387   7.199  45.492  0.00  0.00    +0.000 A 
BRANCH  23  30
ATOM     29  C   UNL     1      22.645   8.518  46.969  0.00  0.00    +0.000 C 
ATOM     30  O   UNL     1      23.088   7.433  46.160  0.00  0.00    +0.000 OA
ENDBRANCH  23  30
ENDBRANCH  22  26
ENDBRANCH  21  22
ENDBRANCH  20  21
ENDBRANCH  18  20
ENDBRANCH  17  18
ENDBRANCH   1  17
TORSDOF 10
ENDMDL
MODEL 8
REMARK VINA RESULT:      -7.0      2.844      4.083
REMARK  Name = 
REMARK  10 active torsions:
REMARK  status: ('A' for Active; 'I' for Inactive)
REMARK    1  A    between atoms: O_2  and  C_3
REMARK    2  A    between atoms: C_6  and  C_7
REMARK    3  A    between atoms: C_7  and  N_8
REMARK    4  A    between atoms: N_8  and  C_9
REMARK    5  A    between atoms: C_9  and  C_10
REMARK    6  A    between atoms: C_10  and  C_12
REMARK    7  A    between atoms: C_12  and  O_13
REMARK    8  A    between atoms: O_13  and  C_14
REMARK    9  A    between atoms: C_17  and  C_18
REMARK   10  A    between atoms: C_18  and  C_21
REMARK                            x       y       z     vdW  Elec       q    Type
REMARK                         _______ _______ _______ _____ _____    ______ ____
ROOT
ATOM      1  O   UNL     1      37.463   4.327  15.850  0.00  0.00    +0.000 OA
ENDROOT
BRANCH   1   2
ATOM      2  C   UNL     1      38.405   5.030  16.649  0.00  0.00    +0.000 A 
ATOM      3  C   UNL     1      39.171   5.996  16.187  0.00  0.00    +0.000 A 
ATOM      4  C   UNL     1      40.059   6.671  17.016  0.00  0.00    +0.000 A 
ATOM      5  C   UNL     1      40.163   6.355  18.363  0.00  0.00    +0.000 A 
ATOM      6  C   UNL     1      39.347   5.338  18.795  0.00  0.00    +0.000 A 
ATOM      7  C   UNL     1      38.457   4.640  18.010  0.00  0.00    +0.000 A 
BRANCH   5   8
ATOM      8  C   UNL     1      41.013   7.058  19.351  0.00  0.00    +0.000 C 
ATOM      9  C   UNL     1      42.100   7.793  18.569  0.00  0.00    +0.000 C 
ATOM     10  C   UNL     1      41.605   6.172  20.377  0.00  0.00    +0.000 C 
BRANCH   8  11
ATOM     11  C   UNL     1      40.163   8.177  19.919  0.00  0.00    +0.000 A 
ATOM     12  C   UNL     1      40.764   9.450  19.955  0.00  0.00    +0.000 A 
ATOM     13  C   UNL     1      40.121  10.531  20.481  0.00  0.00    +0.000 A 
ATOM     14  C   UNL     1      38.874  10.365  20.975  0.00  0.00    +0.000 A 
ATOM     15  C   UNL     1      38.282   9.154  20.947  0.00  0.00    +0.000 A 
ATOM     16  C   UNL     1      38.911   8.018  20.414  0.00  0.00    +0.000 A 
ENDBRANCH   8  11
ENDBRANCH   5   8
ENDBRANCH   1   2
BRANCH   1  17
ATOM     17  C   UNL     1      37.506   2.944  15.941  0.00  0.00    +0.000 C 
BRANCH  17  18
ATOM     18  C   UNL     1      36.016   2.386  16.317  0.00  0.00    +0.000 C 
ATOM     19  O   UNL     1      36.626   1.760  17.658  0.00  0.00    +0.000 OA
BRANCH  18  20
ATOM     20  C   UNL     1      36.131   0.945  15.531  0.00  0.00    +0.000 C 
BRANCH  20  21
ATOM     21  N   UNL     1      37.537   0.654  15.862  0.00  0.00    +0.000 NA
BRANCH  21  22
ATOM     22  C   UNL     1      37.811  -0.664  15.253  0.00  0.00    +0.000 C 
BRANCH  22  26
ATOM     23  C   UNL     1      41.965  -0.872  14.155  0.00  0.00    +0.000 A 
ATOM     24  C   UNL     1      41.288  -1.981  14.664  0.00  0.00    +0.000 A 
ATOM     25  C   UNL     1      39.977  -1.850  14.997  0.00  0.00    +0.000 A 
ATOM     26  C   UNL     1      39.275  -0.617  14.839  0.00  0.00    +0.000 A 
ATOM     27  C   UNL     1      39.941   0.441  14.347  0.00  0.00    +0.000 A 
ATOM     28  C   UNL     1      41.322   0.313  13.995  0.00  0.00    +0.000 A 
BRANCH  23  30
ATOM     29  C   UNL     1      43.858  -2.297  13.477  0.00  0.00    +0.000 C 
ATOM     30  O   UNL     1      43.313  -1.026  13.818  0.00  0.00    +0.000 OA
ENDBRANCH  23  30
ENDBRANCH  22  26
ENDBRANCH  21  22
ENDBRANCH  20  21
ENDBRANCH  18  20
ENDBRANCH  17  18
ENDBRANCH   1  17
TORSDOF 10
ENDMDL
MODEL 9
REMARK VINA RESULT:      -7.0      5.892      8.980
REMARK  Name = 
REMARK  10 active torsions:
REMARK  status: ('A' for Active; 'I' for Inactive)
REMARK    1  A    between atoms: O_2  and  C_3
REMARK    2  A    between atoms: C_6  and  C_7
REMARK    3  A    between atoms: C_7  and  N_8
REMARK    4  A    between atoms: N_8  and  C_9
REMARK    5  A    between atoms: C_9  and  C_10
REMARK    6  A    between atoms: C_10  and  C_12
REMARK    7  A    between atoms: C_12  and  O_13
REMARK    8  A    between atoms: O_13  and  C_14
REMARK    9  A    between atoms: C_17  and  C_18
REMARK   10  A    between atoms: C_18  and  C_21
REMARK                            x       y       z     vdW  Elec       q    Type
REMARK                         _______ _______ _______ _____ _____    ______ ____
ROOT
ATOM      1  O   UNL     1      40.497  -1.850  12.408  0.00  0.00    +0.000 OA
ENDROOT
BRANCH   1   2
ATOM      2  C   UNL     1      39.650  -2.322  13.447  0.00  0.00    +0.000 A 
ATOM      3  C   UNL     1      38.421  -2.746  13.246  0.00  0.00    +0.000 A 
ATOM      4  C   UNL     1      37.642  -3.223  14.293  0.00  0.00    +0.000 A 
ATOM      5  C   UNL     1      38.137  -3.275  15.588  0.00  0.00    +0.000 A 
ATOM      6  C   UNL     1      39.422  -2.816  15.748  0.00  0.00    +0.000 A 
ATOM      7  C   UNL     1      40.227  -2.332  14.742  0.00  0.00    +0.000 A 
BRANCH   5   8
ATOM      8  C   UNL     1      37.427  -3.834  16.762  0.00  0.00    +0.000 C 
ATOM      9  C   UNL     1      38.482  -4.139  17.824  0.00  0.00    +0.000 C 
ATOM     10  C   UNL     1      36.614  -5.033  16.462  0.00  0.00    +0.000 C 
BRANCH   8  11
ATOM     11  C   UNL     1      36.637  -2.687  17.362  0.00  0.00    +0.000 A 
ATOM     12  C   UNL     1      37.277  -1.971  18.392  0.00  0.00    +0.000 A 
ATOM     13  C   UNL     1      36.658  -0.945  19.042  0.00  0.00    +0.000 A 
ATOM     14  C   UNL     1      35.399  -0.614  18.679  0.00  0.00    +0.000 A 
ATOM     15  C   UNL     1      34.772  -1.288  17.693  0.00  0.00    +0.000 A 
ATOM     16  C   UNL     1      35.376  -2.349  17.001  0.00  0.00    +0.000 A 
ENDBRANCH   8  11
ENDBRANCH   5   8
ENDBRANCH   1   2
BRANCH   1  17
ATOM     17  C   UNL     1      41.686  -1.264  12.816  0.00  0.00    +0.000 C 
BRANCH  17  18
ATOM     18  C   UNL     1      42.610  -0.958  11.501  0.00  0.00    +0.000 C 
ATOM     19  O   UNL     1      42.903   0.501  12.090  0.00  0.00    +0.000 OA
BRANCH  18  20
ATOM     20  C   UNL     1      41.408  -0.381  10.536  0.00  0.00    +0.000 C 
BRANCH  20  21
ATOM     21  N   UNL     1      41.273   0.945  11.162  0.00  0.00    +0.000 NA
BRANCH  21  22
ATOM     22  C   UNL     1      39.945   1.436  10.741  0.00  0.00    +0.000 C 
BRANCH  22  26
ATOM     23  C   UNL     1      37.149   0.717  13.931  0.00  0.00    +0.000 A 
ATOM     24  C   UNL     1      36.812   0.480  12.597  0.00  0.00    +0.000 A 
ATOM     25  C   UNL     1      37.738   0.732  11.636  0.00  0.00    +0.000 A 
ATOM     26  C   UNL     1      39.040   1.227  11.948  0.00  0.00    +0.000 A 
ATOM     27  C   UNL     1      39.349   1.450  13.236  0.00  0.00    +0.000 A 
ATOM     28  C   UNL     1      38.379   1.189  14.256  0.00  0.00    +0.000 A 
BRANCH  23  30
ATOM     29  C   UNL     1      35.484   1.498  15.571  0.00  0.00    +0.000 C 
ATOM     30  O   UNL     1      36.183   0.452  14.906  0.00  0.00    +0.000 OA
ENDBRANCH  23  30
ENDBRANCH  22  26
ENDBRANCH  21  22
ENDBRANCH  20  21
ENDBRANCH  18  20
ENDBRANCH  17  18
ENDBRANCH   1  17
TORSDOF 10
ENDMDL
MODEL 10
REMARK VINA RESULT:      -7.0      5.107      9.780
REMARK  Name = 
REMARK  10 active torsions:
REMARK  status: ('A' for Active; 'I' for Inactive)
REMARK    1  A    between atoms: O_2  and  C_3
REMARK    2  A    between atoms: C_6  and  C_7
REMARK    3  A    between atoms: C_7  and  N_8
REMARK    4  A    between atoms: N_8  and  C_9
REMARK    5  A    between atoms: C_9  and  C_10
REMARK    6  A    between atoms: C_10  and  C_12
REMARK    7  A    between atoms: C_12  and  O_13
REMARK    8  A    between atoms: O_13  and  C_14
REMARK    9  A    between atoms: C_17  and  C_18
REMARK   10  A    between atoms: C_18  and  C_21
REMARK                            x       y       z     vdW  Elec       q    Type
REMARK                         _______ _______ _______ _____ _____    ______ ____
ROOT
ATOM      1  O   UNL     1      41.046  -2.665  12.868  0.00  0.00    +0.000 OA
ENDROOT
BRANCH   1   2
ATOM      2  C   UNL     1      39.966  -2.682  13.791  0.00  0.00    +0.000 A 
ATOM      3  C   UNL     1      40.116  -2.501  15.086  0.00  0.00    +0.000 A 
ATOM      4  C   UNL     1      39.024  -2.500  15.946  0.00  0.00    +0.000 A 
ATOM      5  C   UNL     1      37.735  -2.683  15.467  0.00  0.00    +0.000 A 
ATOM      6  C   UNL     1      37.632  -2.873  14.110  0.00  0.00    +0.000 A 
ATOM      7  C   UNL     1      38.684  -2.886  13.223  0.00  0.00    +0.000 A 
BRANCH   5   8
ATOM      8  C   UNL     1      36.496  -2.624  16.276  0.00  0.00    +0.000 C 
ATOM      9  C   UNL     1      35.662  -1.462  15.740  0.00  0.00    +0.000 C 
ATOM     10  C   UNL     1      36.731  -2.481  17.729  0.00  0.00    +0.000 C 
BRANCH   8  11
ATOM     11  C   UNL     1      35.687  -3.849  15.899  0.00  0.00    +0.000 A 
ATOM     12  C   UNL     1      34.466  -3.602  15.244  0.00  0.00    +0.000 A 
ATOM     13  C   UNL     1      33.625  -4.616  14.889  0.00  0.00    +0.000 A 
ATOM     14  C   UNL     1      33.986  -5.886  15.178  0.00  0.00    +0.000 A 
ATOM     15  C   UNL     1      35.153  -6.141  15.804  0.00  0.00    +0.000 A 
ATOM     16  C   UNL     1      36.044  -5.125  16.183  0.00  0.00    +0.000 A 
ENDBRANCH   8  11
ENDBRANCH   5   8
ENDBRANCH   1   2
BRANCH   1  17
ATOM     17  C   UNL     1      41.989  -1.665  13.058  0.00  0.00    +0.000 C 
BRANCH  17  18
ATOM     18  C   UNL     1      42.731  -1.353  11.635  0.00  0.00    +0.000 C 
ATOM     19  O   UNL     1      42.752   0.199  12.026  0.00  0.00    +0.000 OA
BRANCH  18  20
ATOM     20  C   UNL     1      41.369  -1.159  10.731  0.00  0.00    +0.000 C 
BRANCH  20  21
ATOM     21  N   UNL     1      41.015   0.192  11.199  0.00  0.00    +0.000 NA
BRANCH  21  22
ATOM     22  C   UNL     1      39.544   0.267  11.081  0.00  0.00    +0.000 C 
BRANCH  22  26
ATOM     23  C   UNL     1      37.833   1.389  14.865  0.00  0.00    +0.000 A 
ATOM     24  C   UNL     1      37.033   1.014  13.784  0.00  0.00    +0.000 A 
ATOM     25  C   UNL     1      37.634   0.675  12.614  0.00  0.00    +0.000 A 
ATOM     26  C   UNL     1      39.053   0.689  12.459  0.00  0.00    +0.000 A 
ATOM     27  C   UNL     1      39.809   1.052  13.508  0.00  0.00    +0.000 A 
ATOM     28  C   UNL     1      39.185   1.412  14.744  0.00  0.00    +0.000 A 
BRANCH  23  30
ATOM     29  C   UNL     1      36.585   3.006  16.244  0.00  0.00    +0.000 C 
ATOM     30  O   UNL     1      37.196   1.734  16.061  0.00  0.00    +0.000 OA
ENDBRANCH  23  30
ENDBRANCH  22  26
ENDBRANCH  21  22
ENDBRANCH  20  21
ENDBRANCH  18  20
ENDBRANCH  17  18
ENDBRANCH   1  17
TORSDOF 10
ENDMDL
