MODEL 1
REMARK VINA RESULT:      -7.2      0.000      0.000
REMARK  Name = 
REMARK  2 active torsions:
REMARK  status: ('A' for Active; 'I' for Inactive)
REMARK    1  A    between atoms: O_2  and  C_3
REMARK    2  A    between atoms: C_6  and  C_7
REMARK                            x       y       z     vdW  Elec       q    Type
REMARK                         _______ _______ _______ _____ _____    ______ ____
ROOT
ATOM      1  C   UNL     1      19.104  10.062  38.758  0.00  0.00    +0.000 C 
ATOM      2  C   UNL     1      18.001  10.571  38.216  0.00  0.00    +0.000 C 
ATOM      3  O   UNL     1      17.921  11.326  37.058  0.00  0.00    +0.000 OA
ATOM      4  C   UNL     1      16.621  11.697  36.775  0.00  0.00    +0.000 A 
ATOM      5  C   UNL     1      16.036  12.444  35.745  0.00  0.00    +0.000 A 
ATOM      6  C   UNL     1      14.681  12.679  35.687  0.00  0.00    +0.000 A 
ATOM      7  O   UNL     1      14.105  13.429  34.650  0.00  0.00    +0.000 OA
ATOM      8  C   UNL     1      13.895  12.152  36.688  0.00  0.00    +0.000 A 
ATOM      9  C   UNL     1      14.454  11.414  37.709  0.00  0.00    +0.000 A 
ATOM     10  C   UNL     1      13.629  10.830  38.808  0.00  0.00    +0.000 C 
ATOM     11  C   UNL     1      15.822  11.176  37.768  0.00  0.00    +0.000 A 
ATOM     12  C   UNL     1      16.645  10.441  38.728  0.00  0.00    +0.000 C 
ATOM     13  O   UNL     1      16.262   9.826  39.772  0.00  0.00    +0.000 OA
ENDROOT
BRANCH   1  17
ATOM     14  C   UNL     1      22.847  10.826  36.878  0.00  0.00    +0.000 A 
ATOM     15  C   UNL     1      21.989   9.889  36.330  0.00  0.00    +0.000 A 
ATOM     16  C   UNL     1      20.766   9.642  36.948  0.00  0.00    +0.000 A 
ATOM     17  C   UNL     1      20.378  10.303  38.093  0.00  0.00    +0.000 A 
ATOM     18  C   UNL     1      21.226  11.233  38.639  0.00  0.00    +0.000 A 
ATOM     19  C   UNL     1      22.435  11.469  38.019  0.00  0.00    +0.000 A 
BRANCH  14  21
ATOM     20  C   UNL     1      25.194  10.308  36.679  0.00  0.00    +0.000 C 
ATOM     21  O   UNL     1      24.089  11.098  36.278  0.00  0.00    +0.000 OA
ENDBRANCH  14  21
ENDBRANCH   1  17
TORSDOF 2
ENDMDL
MODEL 2
REMARK VINA RESULT:      -7.1     18.466     21.650
REMARK  Name = 
REMARK  2 active torsions:
REMARK  status: ('A' for Active; 'I' for Inactive)
REMARK    1  A    between atoms: O_2  and  C_3
REMARK    2  A    between atoms: C_6  and  C_7
REMARK                            x       y       z     vdW  Elec       q    Type
REMARK                         _______ _______ _______ _____ _____    ______ ____
ROOT
ATOM      1  C   UNL     1      33.955  -4.322  34.075  0.00  0.00    +0.000 C 
ATOM      2  C   UNL     1      33.883  -2.996  34.146  0.00  0.00    +0.000 C 
ATOM      3  O   UNL     1      33.931  -2.108  33.085  0.00  0.00    +0.000 OA
ATOM      4  C   UNL     1      33.830  -0.797  33.507  0.00  0.00    +0.000 A 
ATOM      5  C   UNL     1      33.827   0.433  32.837  0.00  0.00    +0.000 A 
ATOM      6  C   UNL     1      33.711   1.632  33.503  0.00  0.00    +0.000 A 
ATOM      7  O   UNL     1      33.709   2.859  32.822  0.00  0.00    +0.000 OA
ATOM      8  C   UNL     1      33.594   1.595  34.875  0.00  0.00    +0.000 A 
ATOM      9  C   UNL     1      33.595   0.394  35.551  0.00  0.00    +0.000 A 
ATOM     10  C   UNL     1      33.471   0.321  37.037  0.00  0.00    +0.000 C 
ATOM     11  C   UNL     1      33.712  -0.817  34.879  0.00  0.00    +0.000 A 
ATOM     12  C   UNL     1      33.740  -2.199  35.356  0.00  0.00    +0.000 C 
ATOM     13  O   UNL     1      33.657  -2.612  36.554  0.00  0.00    +0.000 OA
ENDROOT
BRANCH   1  17
ATOM     14  C   UNL     1      34.453  -6.161  30.268  0.00  0.00    +0.000 A 
ATOM     15  C   UNL     1      33.305  -5.433  30.527  0.00  0.00    +0.000 A 
ATOM     16  C   UNL     1      33.146  -4.833  31.774  0.00  0.00    +0.000 A 
ATOM     17  C   UNL     1      34.098  -4.940  32.764  0.00  0.00    +0.000 A 
ATOM     18  C   UNL     1      35.237  -5.661  32.510  0.00  0.00    +0.000 A 
ATOM     19  C   UNL     1      35.384  -6.251  31.273  0.00  0.00    +0.000 A 
BRANCH  14  21
ATOM     20  C   UNL     1      33.721  -6.467  27.990  0.00  0.00    +0.000 C 
ATOM     21  O   UNL     1      34.643  -6.779  29.019  0.00  0.00    +0.000 OA
ENDBRANCH  14  21
ENDBRANCH   1  17
TORSDOF 2
ENDMDL
MODEL 3
REMARK VINA RESULT:      -7.1      3.374      6.065
REMARK  Name = 
REMARK  2 active torsions:
REMARK  status: ('A' for Active; 'I' for Inactive)
REMARK    1  A    between atoms: O_2  and  C_3
REMARK    2  A    between atoms: C_6  and  C_7
REMARK                            x       y       z     vdW  Elec       q    Type
REMARK                         _______ _______ _______ _____ _____    ______ ____
ROOT
ATOM      1  C   UNL     1      17.699   9.259  39.664  0.00  0.00    +0.000 C 
ATOM      2  C   UNL     1      16.930   9.958  38.833  0.00  0.00    +0.000 C 
ATOM      3  O   UNL     1      15.649  10.417  39.082  0.00  0.00    +0.000 OA
ATOM      4  C   UNL     1      15.133  11.111  38.005  0.00  0.00    +0.000 A 
ATOM      5  C   UNL     1      13.911  11.753  37.769  0.00  0.00    +0.000 A 
ATOM      6  C   UNL     1      13.633  12.390  36.581  0.00  0.00    +0.000 A 
ATOM      7  O   UNL     1      12.405  13.031  36.356  0.00  0.00    +0.000 OA
ATOM      8  C   UNL     1      14.606  12.382  35.606  0.00  0.00    +0.000 A 
ATOM      9  C   UNL     1      15.814  11.755  35.821  0.00  0.00    +0.000 A 
ATOM     10  C   UNL     1      16.888  11.728  34.784  0.00  0.00    +0.000 C 
ATOM     11  C   UNL     1      16.095  11.112  37.020  0.00  0.00    +0.000 A 
ATOM     12  C   UNL     1      17.277  10.387  37.486  0.00  0.00    +0.000 C 
ATOM     13  O   UNL     1      18.362  10.180  36.858  0.00  0.00    +0.000 OA
ENDROOT
BRANCH   1  17
ATOM     14  C   UNL     1      16.131   8.198  43.477  0.00  0.00    +0.000 A 
ATOM     15  C   UNL     1      16.742   9.428  43.311  0.00  0.00    +0.000 A 
ATOM     16  C   UNL     1      17.254   9.771  42.062  0.00  0.00    +0.000 A 
ATOM     17  C   UNL     1      17.172   8.923  40.980  0.00  0.00    +0.000 A 
ATOM     18  C   UNL     1      16.566   7.703  41.141  0.00  0.00    +0.000 A 
ATOM     19  C   UNL     1      16.063   7.373  42.381  0.00  0.00    +0.000 A 
BRANCH  14  21
ATOM     20  C   UNL     1      15.084   6.510  44.845  0.00  0.00    +0.000 C 
ATOM     21  O   UNL     1      15.604   7.822  44.726  0.00  0.00    +0.000 OA
ENDBRANCH  14  21
ENDBRANCH   1  17
TORSDOF 2
ENDMDL
MODEL 4
REMARK VINA RESULT:      -7.1      2.291      7.270
REMARK  Name = 
REMARK  2 active torsions:
REMARK  status: ('A' for Active; 'I' for Inactive)
REMARK    1  A    between atoms: O_2  and  C_3
REMARK    2  A    between atoms: C_6  and  C_7
REMARK                            x       y       z     vdW  Elec       q    Type
REMARK                         _______ _______ _______ _____ _____    ______ ____
ROOT
ATOM      1  C   UNL     1      17.724  10.427  37.215  0.00  0.00    +0.000 C 
ATOM      2  C   UNL     1      18.701  11.247  37.593  0.00  0.00    +0.000 C 
ATOM      3  O   UNL     1      18.586  12.599  37.867  0.00  0.00    +0.000 OA
ATOM      4  C   UNL     1      19.796  13.154  38.234  0.00  0.00    +0.000 A 
ATOM      5  C   UNL     1      20.191  14.447  38.599  0.00  0.00    +0.000 A 
ATOM      6  C   UNL     1      21.492  14.752  38.930  0.00  0.00    +0.000 A 
ATOM      7  O   UNL     1      21.877  16.051  39.294  0.00  0.00    +0.000 OA
ATOM      8  C   UNL     1      22.418  13.734  38.894  0.00  0.00    +0.000 A 
ATOM      9  C   UNL     1      22.047  12.455  38.539  0.00  0.00    +0.000 A 
ATOM     10  C   UNL     1      23.027  11.330  38.490  0.00  0.00    +0.000 C 
ATOM     11  C   UNL     1      20.734  12.146  38.204  0.00  0.00    +0.000 A 
ATOM     12  C   UNL     1      20.098  10.893  37.799  0.00  0.00    +0.000 C 
ATOM     13  O   UNL     1      20.641   9.754  37.659  0.00  0.00    +0.000 OA
ENDROOT
BRANCH   1  17
ATOM     14  C   UNL     1      13.781  11.992  36.853  0.00  0.00    +0.000 A 
ATOM     15  C   UNL     1      14.667  12.131  35.800  0.00  0.00    +0.000 A 
ATOM     16  C   UNL     1      15.956  11.618  35.923  0.00  0.00    +0.000 A 
ATOM     17  C   UNL     1      16.382  10.972  37.062  0.00  0.00    +0.000 A 
ATOM     18  C   UNL     1      15.505  10.832  38.109  0.00  0.00    +0.000 A 
ATOM     19  C   UNL     1      14.232  11.344  37.977  0.00  0.00    +0.000 A 
BRANCH  14  21
ATOM     20  C   UNL     1      11.419  11.669  37.214  0.00  0.00    +0.000 C 
ATOM     21  O   UNL     1      12.472  12.499  36.761  0.00  0.00    +0.000 OA
ENDBRANCH  14  21
ENDBRANCH   1  17
TORSDOF 2
ENDMDL
MODEL 5
REMARK VINA RESULT:      -6.7      2.406      7.153
REMARK  Name = 
REMARK  2 active torsions:
REMARK  status: ('A' for Active; 'I' for Inactive)
REMARK    1  A    between atoms: O_2  and  C_3
REMARK    2  A    between atoms: C_6  and  C_7
REMARK                            x       y       z     vdW  Elec       q    Type
REMARK                         _______ _______ _______ _____ _____    ______ ____
ROOT
ATOM      1  C   UNL     1      18.359   9.790  37.404  0.00  0.00    +0.000 C 
ATOM      2  C   UNL     1      19.686   9.743  37.489  0.00  0.00    +0.000 C 
ATOM      3  O   UNL     1      20.590  10.086  36.499  0.00  0.00    +0.000 OA
ATOM      4  C   UNL     1      21.896   9.920  36.916  0.00  0.00    +0.000 A 
ATOM      5  C   UNL     1      23.137  10.125  36.300  0.00  0.00    +0.000 A 
ATOM      6  C   UNL     1      24.327   9.879  36.945  0.00  0.00    +0.000 A 
ATOM      7  O   UNL     1      25.565  10.088  36.318  0.00  0.00    +0.000 OA
ATOM      8  C   UNL     1      24.270   9.416  38.241  0.00  0.00    +0.000 A 
ATOM      9  C   UNL     1      23.058   9.209  38.863  0.00  0.00    +0.000 A 
ATOM     10  C   UNL     1      22.963   8.708  40.267  0.00  0.00    +0.000 C 
ATOM     11  C   UNL     1      21.856   9.457  38.212  0.00  0.00    +0.000 A 
ATOM     12  C   UNL     1      20.465   9.320  38.643  0.00  0.00    +0.000 C 
ATOM     13  O   UNL     1      20.035   8.922  39.770  0.00  0.00    +0.000 OA
ENDROOT
BRANCH   1  17
ATOM     14  C   UNL     1      16.578  11.193  33.800  0.00  0.00    +0.000 A 
ATOM     15  C   UNL     1      17.263   9.991  33.798  0.00  0.00    +0.000 A 
ATOM     16  C   UNL     1      17.844   9.536  34.979  0.00  0.00    +0.000 A 
ATOM     17  C   UNL     1      17.760  10.245  36.157  0.00  0.00    +0.000 A 
ATOM     18  C   UNL     1      17.082  11.438  36.163  0.00  0.00    +0.000 A 
ATOM     19  C   UNL     1      16.511  11.879  34.988  0.00  0.00    +0.000 A 
BRANCH  14  21
ATOM     20  C   UNL     1      15.835  10.777  31.544  0.00  0.00    +0.000 C 
ATOM     21  O   UNL     1      15.981  11.681  32.624  0.00  0.00    +0.000 OA
ENDBRANCH  14  21
ENDBRANCH   1  17
TORSDOF 2
ENDMDL
MODEL 6
REMARK VINA RESULT:      -6.5     18.274     22.364
REMARK  Name = 
REMARK  2 active torsions:
REMARK  status: ('A' for Active; 'I' for Inactive)
REMARK    1  A    between atoms: O_2  and  C_3
REMARK    2  A    between atoms: C_6  and  C_7
REMARK                            x       y       z     vdW  Elec       q    Type
REMARK                         _______ _______ _______ _____ _____    ______ ____
ROOT
ATOM      1  C   UNL     1      33.643  -3.572  34.464  0.00  0.00    +0.000 C 
ATOM      2  C   UNL     1      33.618  -4.395  33.419  0.00  0.00    +0.000 C 
ATOM      3  O   UNL     1      33.436  -4.041  32.094  0.00  0.00    +0.000 OA
ATOM      4  C   UNL     1      33.463  -5.142  31.259  0.00  0.00    +0.000 A 
ATOM      5  C   UNL     1      33.331  -5.305  29.875  0.00  0.00    +0.000 A 
ATOM      6  C   UNL     1      33.397  -6.540  29.270  0.00  0.00    +0.000 A 
ATOM      7  O   UNL     1      33.263  -6.691  27.882  0.00  0.00    +0.000 OA
ATOM      8  C   UNL     1      33.602  -7.637  30.076  0.00  0.00    +0.000 A 
ATOM      9  C   UNL     1      33.736  -7.497  31.440  0.00  0.00    +0.000 A 
ATOM     10  C   UNL     1      33.958  -8.667  32.340  0.00  0.00    +0.000 C 
ATOM     11  C   UNL     1      33.668  -6.250  32.051  0.00  0.00    +0.000 A 
ATOM     12  C   UNL     1      33.776  -5.842  33.451  0.00  0.00    +0.000 C 
ATOM     13  O   UNL     1      33.965  -6.582  34.466  0.00  0.00    +0.000 OA
ENDROOT
BRANCH   1  17
ATOM     14  C   UNL     1      33.051   0.596  33.829  0.00  0.00    +0.000 A 
ATOM     15  C   UNL     1      34.105  -0.045  33.203  0.00  0.00    +0.000 A 
ATOM     16  C   UNL     1      34.295  -1.408  33.413  0.00  0.00    +0.000 A 
ATOM     17  C   UNL     1      33.465  -2.146  34.228  0.00  0.00    +0.000 A 
ATOM     18  C   UNL     1      32.419  -1.513  34.851  0.00  0.00    +0.000 A 
ATOM     19  C   UNL     1      32.240  -0.164  34.636  0.00  0.00    +0.000 A 
BRANCH  14  21
ATOM     20  C   UNL     1      33.802   2.689  32.895  0.00  0.00    +0.000 C 
ATOM     21  O   UNL     1      32.832   1.972  33.637  0.00  0.00    +0.000 OA
ENDBRANCH  14  21
ENDBRANCH   1  17
TORSDOF 2
ENDMDL
MODEL 7
REMARK VINA RESULT:      -6.4     21.217     22.860
REMARK  Name = 
REMARK  2 active torsions:
REMARK  status: ('A' for Active; 'I' for Inactive)
REMARK    1  A    between atoms: O_2  and  C_3
REMARK    2  A    between atoms: C_6  and  C_7
REMARK                            x       y       z     vdW  Elec       q    Type
REMARK                         _______ _______ _______ _____ _____    ______ ____
ROOT
ATOM      1  C   UNL     1      17.911 -11.028  29.098  0.00  0.00    +0.000 C 
ATOM      2  C   UNL     1      18.244  -9.931  28.422  0.00  0.00    +0.000 C 
ATOM      3  O   UNL     1      17.647  -8.687  28.520  0.00  0.00    +0.000 OA
ATOM      4  C   UNL     1      18.236  -7.766  27.676  0.00  0.00    +0.000 A 
ATOM      5  C   UNL     1      18.001  -6.411  27.414  0.00  0.00    +0.000 A 
ATOM      6  C   UNL     1      18.747  -5.698  26.503  0.00  0.00    +0.000 A 
ATOM      7  O   UNL     1      18.502  -4.340  26.249  0.00  0.00    +0.000 OA
ATOM      8  C   UNL     1      19.754  -6.362  25.839  0.00  0.00    +0.000 A 
ATOM      9  C   UNL     1      20.001  -7.696  26.084  0.00  0.00    +0.000 A 
ATOM     10  C   UNL     1      21.085  -8.444  25.381  0.00  0.00    +0.000 C 
ATOM     11  C   UNL     1      19.248  -8.416  27.003  0.00  0.00    +0.000 A 
ATOM     12  C   UNL     1      19.307  -9.813  27.435  0.00  0.00    +0.000 C 
ATOM     13  O   UNL     1      20.107 -10.716  27.039  0.00  0.00    +0.000 OA
ENDROOT
BRANCH   1  17
ATOM     14  C   UNL     1      14.641 -10.838  31.818  0.00  0.00    +0.000 A 
ATOM     15  C   UNL     1      15.862 -10.300  32.184  0.00  0.00    +0.000 A 
ATOM     16  C   UNL     1      16.929 -10.364  31.291  0.00  0.00    +0.000 A 
ATOM     17  C   UNL     1      16.810 -10.948  30.049  0.00  0.00    +0.000 A 
ATOM     18  C   UNL     1      15.601 -11.482  29.684  0.00  0.00    +0.000 A 
ATOM     19  C   UNL     1      14.551 -11.413  30.575  0.00  0.00    +0.000 A 
BRANCH  14  21
ATOM     20  C   UNL     1      13.454  -9.674  33.565  0.00  0.00    +0.000 C 
ATOM     21  O   UNL     1      13.544 -10.789  32.697  0.00  0.00    +0.000 OA
ENDBRANCH  14  21
ENDBRANCH   1  17
TORSDOF 2
ENDMDL
MODEL 8
REMARK VINA RESULT:      -6.3      3.135      5.222
REMARK  Name = 
REMARK  2 active torsions:
REMARK  status: ('A' for Active; 'I' for Inactive)
REMARK    1  A    between atoms: O_2  and  C_3
REMARK    2  A    between atoms: C_6  and  C_7
REMARK                            x       y       z     vdW  Elec       q    Type
REMARK                         _______ _______ _______ _____ _____    ______ ____
ROOT
ATOM      1  C   UNL     1      19.052  10.664  38.619  0.00  0.00    +0.000 C 
ATOM      2  C   UNL     1      18.749   9.544  39.270  0.00  0.00    +0.000 C 
ATOM      3  O   UNL     1      19.586   8.466  39.494  0.00  0.00    +0.000 OA
ATOM      4  C   UNL     1      18.954   7.463  40.204  0.00  0.00    +0.000 A 
ATOM      5  C   UNL     1      19.363   6.206  40.667  0.00  0.00    +0.000 A 
ATOM      6  C   UNL     1      18.523   5.373  41.370  0.00  0.00    +0.000 A 
ATOM      7  O   UNL     1      18.943   4.116  41.829  0.00  0.00    +0.000 OA
ATOM      8  C   UNL     1      17.240   5.812  41.613  0.00  0.00    +0.000 A 
ATOM      9  C   UNL     1      16.820   7.046  41.165  0.00  0.00    +0.000 A 
ATOM     10  C   UNL     1      15.437   7.551  41.412  0.00  0.00    +0.000 C 
ATOM     11  C   UNL     1      17.668   7.888  40.456  0.00  0.00    +0.000 A 
ATOM     12  C   UNL     1      17.469   9.219  39.882  0.00  0.00    +0.000 C 
ATOM     13  O   UNL     1      16.416   9.929  39.912  0.00  0.00    +0.000 OA
ENDROOT
BRANCH   1  17
ATOM     14  C   UNL     1      22.962  11.010  36.968  0.00  0.00    +0.000 A 
ATOM     15  C   UNL     1      22.570  11.872  37.977  0.00  0.00    +0.000 A 
ATOM     16  C   UNL     1      21.291  11.755  38.514  0.00  0.00    +0.000 A 
ATOM     17  C   UNL     1      20.396  10.806  38.074  0.00  0.00    +0.000 A 
ATOM     18  C   UNL     1      20.781   9.949  37.073  0.00  0.00    +0.000 A 
ATOM     19  C   UNL     1      22.049  10.073  36.548  0.00  0.00    +0.000 A 
BRANCH  14  21
ATOM     20  C   UNL     1      25.086   9.966  36.508  0.00  0.00    +0.000 C 
ATOM     21  O   UNL     1      24.247  11.101  36.404  0.00  0.00    +0.000 OA
ENDBRANCH  14  21
ENDBRANCH   1  17
TORSDOF 2
ENDMDL
MODEL 9
REMARK VINA RESULT:      -6.3     18.652     20.379
REMARK  Name = 
REMARK  2 active torsions:
REMARK  status: ('A' for Active; 'I' for Inactive)
REMARK    1  A    between atoms: O_2  and  C_3
REMARK    2  A    between atoms: C_6  and  C_7
REMARK                            x       y       z     vdW  Elec       q    Type
REMARK                         _______ _______ _______ _____ _____    ______ ____
ROOT
ATOM      1  C   UNL     1      28.694  22.661  27.577  0.00  0.00    +0.000 C 
ATOM      2  C   UNL     1      28.589  22.989  26.292  0.00  0.00    +0.000 C 
ATOM      3  O   UNL     1      29.607  23.431  25.466  0.00  0.00    +0.000 OA
ATOM      4  C   UNL     1      29.157  23.685  24.185  0.00  0.00    +0.000 A 
ATOM      5  C   UNL     1      29.783  24.137  23.016  0.00  0.00    +0.000 A 
ATOM      6  C   UNL     1      29.096  24.312  21.836  0.00  0.00    +0.000 A 
ATOM      7  O   UNL     1      29.733  24.765  20.671  0.00  0.00    +0.000 OA
ATOM      8  C   UNL     1      27.748  24.027  21.830  0.00  0.00    +0.000 A 
ATOM      9  C   UNL     1      27.116  23.581  22.971  0.00  0.00    +0.000 A 
ATOM     10  C   UNL     1      25.657  23.265  22.996  0.00  0.00    +0.000 C 
ATOM     11  C   UNL     1      27.809  23.404  24.162  0.00  0.00    +0.000 A 
ATOM     12  C   UNL     1      27.378  22.952  25.485  0.00  0.00    +0.000 C 
ATOM     13  O   UNL     1      26.211  22.605  25.847  0.00  0.00    +0.000 OA
ENDROOT
BRANCH   1  17
ATOM     14  C   UNL     1      32.482  23.037  29.483  0.00  0.00    +0.000 A 
ATOM     15  C   UNL     1      32.260  21.985  28.613  0.00  0.00    +0.000 A 
ATOM     16  C   UNL     1      31.019  21.865  27.992  0.00  0.00    +0.000 A 
ATOM     17  C   UNL     1      30.000  22.764  28.214  0.00  0.00    +0.000 A 
ATOM     18  C   UNL     1      30.217  23.809  29.077  0.00  0.00    +0.000 A 
ATOM     19  C   UNL     1      31.449  23.918  29.686  0.00  0.00    +0.000 A 
BRANCH  14  21
ATOM     20  C   UNL     1      33.792  22.846  31.499  0.00  0.00    +0.000 C 
ATOM     21  O   UNL     1      33.724  23.186  30.126  0.00  0.00    +0.000 OA
ENDBRANCH  14  21
ENDBRANCH   1  17
TORSDOF 2
ENDMDL
MODEL 10
REMARK VINA RESULT:      -6.2     21.478     22.896
REMARK  Name = 
REMARK  2 active torsions:
REMARK  status: ('A' for Active; 'I' for Inactive)
REMARK    1  A    between atoms: O_2  and  C_3
REMARK    2  A    between atoms: C_6  and  C_7
REMARK                            x       y       z     vdW  Elec       q    Type
REMARK                         _______ _______ _______ _____ _____    ______ ____
ROOT
ATOM      1  C   UNL     1      22.751  -9.663  25.383  0.00  0.00    +0.000 C 
ATOM      2  C   UNL     1      21.742  -8.868  25.731  0.00  0.00    +0.000 C 
ATOM      3  O   UNL     1      21.624  -7.516  25.462  0.00  0.00    +0.000 OA
ATOM      4  C   UNL     1      20.449  -6.992  25.966  0.00  0.00    +0.000 A 
ATOM      5  C   UNL     1      19.884  -5.711  25.955  0.00  0.00    +0.000 A 
ATOM      6  C   UNL     1      18.669  -5.439  26.543  0.00  0.00    +0.000 A 
ATOM      7  O   UNL     1      18.112  -4.152  26.526  0.00  0.00    +0.000 OA
ATOM      8  C   UNL     1      18.006  -6.479  27.156  0.00  0.00    +0.000 A 
ATOM      9  C   UNL     1      18.547  -7.746  27.176  0.00  0.00    +0.000 A 
ATOM     10  C   UNL     1      17.854  -8.894  27.832  0.00  0.00    +0.000 C 
ATOM     11  C   UNL     1      19.774  -8.022  26.583  0.00  0.00    +0.000 A 
ATOM     12  C   UNL     1      20.549  -9.257  26.470  0.00  0.00    +0.000 C 
ATOM     13  O   UNL     1      20.249 -10.408  26.914  0.00  0.00    +0.000 OA
ENDROOT
BRANCH   1  17
ATOM     14  C   UNL     1      26.054  -8.046  23.237  0.00  0.00    +0.000 A 
ATOM     15  C   UNL     1      24.856  -7.354  23.266  0.00  0.00    +0.000 A 
ATOM     16  C   UNL     1      23.778  -7.886  23.969  0.00  0.00    +0.000 A 
ATOM     17  C   UNL     1      23.864  -9.085  24.641  0.00  0.00    +0.000 A 
ATOM     18  C   UNL     1      25.050  -9.775  24.615  0.00  0.00    +0.000 A 
ATOM     19  C   UNL     1      26.110  -9.239  23.915  0.00  0.00    +0.000 A 
BRANCH  14  21
ATOM     20  C   UNL     1      27.777  -8.384  21.584  0.00  0.00    +0.000 C 
ATOM     21  O   UNL     1      27.161  -7.536  22.536  0.00  0.00    +0.000 OA
ENDBRANCH  14  21
ENDBRANCH   1  17
TORSDOF 2
ENDMDL
