MODEL 1
REMARK VINA RESULT:      -6.3      0.000      0.000
REMARK  Name = 
REMARK  2 active torsions:
REMARK  status: ('A' for Active; 'I' for Inactive)
REMARK    1  A    between atoms: C_4  and  C_6
REMARK    2  A    between atoms: C_9  and  N_10
REMARK                            x       y       z     vdW  Elec       q    Type
REMARK                         _______ _______ _______ _____ _____    ______ ____
ROOT
ATOM      1  C   UNL     1      27.831  25.435  27.659  0.00  0.00    +0.000 C 
ATOM      2  C   UNL     1      28.260  24.389  26.431  0.00  0.00    +0.000 C 
ATOM      3  O   UNL     1      27.413  25.175  25.418  0.00  0.00    +0.000 OA
ATOM      4  C   UNL     1      27.425  24.504  24.257  0.00  0.00    +0.000 C 
ATOM      5  O   UNL     1      26.042  24.341  23.898  0.00  0.00    +0.000 OA
ATOM      6  C   UNL     1      27.915  23.080  24.516  0.00  0.00    +0.000 C 
ATOM      7  C   UNL     1      26.838  22.641  25.518  0.00  0.00    +0.000 C 
ATOM      8  N   UNL     1      27.148  23.334  26.746  0.00  0.00    +0.000 N 
ATOM      9  C   UNL     1      26.035  23.857  27.383  0.00  0.00    +0.000 C 
ATOM     10  C   UNL     1      26.054  23.931  28.866  0.00  0.00    +0.000 C 
ATOM     11  C   UNL     1      27.071  23.132  29.571  0.00  0.00    +0.000 C 
ATOM     12  C   UNL     1      28.312  22.810  28.808  0.00  0.00    +0.000 C 
ATOM     13  C   UNL     1      27.879  22.299  27.487  0.00  0.00    +0.000 C 
ENDROOT
BRANCH   4  14
ATOM     14  C   UNL     1      28.076  25.072  23.102  0.00  0.00    +0.000 A 
ATOM     15  C   UNL     1      28.716  24.392  22.091  0.00  0.00    +0.000 A 
ATOM     16  C   UNL     1      29.307  25.098  21.063  0.00  0.00    +0.000 A 
ATOM     17  C   UNL     1      29.295  26.446  20.996  0.00  0.00    +0.000 A 
ATOM     18  C   UNL     1      28.652  27.168  22.002  0.00  0.00    +0.000 A 
ATOM     19  C   UNL     1      28.074  26.451  23.003  0.00  0.00    +0.000 A 
BRANCH  17  20
ATOM     20  N   UNL     1      29.887  27.215  19.948  0.00  0.00    +0.000 N 
ATOM     21  O   UNL     1      30.484  26.642  19.019  0.00  0.00    +0.000 OA
ATOM     22  O   UNL     1      29.797  28.571  20.020  0.00  0.00    +0.000 OA
ENDBRANCH  17  20
ENDBRANCH   4  14
TORSDOF 2
ENDMDL
MODEL 2
REMARK VINA RESULT:      -6.3     21.474     24.915
REMARK  Name = 
REMARK  2 active torsions:
REMARK  status: ('A' for Active; 'I' for Inactive)
REMARK    1  A    between atoms: C_4  and  C_6
REMARK    2  A    between atoms: C_9  and  N_10
REMARK                            x       y       z     vdW  Elec       q    Type
REMARK                         _______ _______ _______ _____ _____    ______ ____
ROOT
ATOM      1  C   UNL     1      17.481   5.707  41.443  0.00  0.00    +0.000 C 
ATOM      2  C   UNL     1      16.815   7.234  41.344  0.00  0.00    +0.000 C 
ATOM      3  O   UNL     1      17.992   7.731  40.490  0.00  0.00    +0.000 OA
ATOM      4  C   UNL     1      17.845   9.051  40.306  0.00  0.00    +0.000 C 
ATOM      5  O   UNL     1      19.092   9.634  40.718  0.00  0.00    +0.000 OA
ATOM      6  C   UNL     1      16.831   9.579  41.320  0.00  0.00    +0.000 C 
ATOM      7  C   UNL     1      17.558   9.173  42.610  0.00  0.00    +0.000 C 
ATOM      8  N   UNL     1      17.411   7.739  42.700  0.00  0.00    +0.000 N 
ATOM      9  C   UNL     1      18.569   7.087  43.088  0.00  0.00    +0.000 C 
ATOM     10  C   UNL     1      18.431   5.840  43.884  0.00  0.00    +0.000 C 
ATOM     11  C   UNL     1      17.124   5.576  44.508  0.00  0.00    +0.000 C 
ATOM     12  C   UNL     1      15.936   6.198  43.853  0.00  0.00    +0.000 C 
ATOM     13  C   UNL     1      16.274   7.621  43.621  0.00  0.00    +0.000 C 
ENDROOT
BRANCH   4  14
ATOM     14  C   UNL     1      17.574   9.570  38.988  0.00  0.00    +0.000 A 
ATOM     15  C   UNL     1      16.507  10.351  38.605  0.00  0.00    +0.000 A 
ATOM     16  C   UNL     1      16.391  10.747  37.289  0.00  0.00    +0.000 A 
ATOM     17  C   UNL     1      17.281  10.399  36.335  0.00  0.00    +0.000 A 
ATOM     18  C   UNL     1      18.377   9.611  36.688  0.00  0.00    +0.000 A 
ATOM     19  C   UNL     1      18.472   9.236  37.992  0.00  0.00    +0.000 A 
BRANCH  17  20
ATOM     20  N   UNL     1      17.202  10.793  34.964  0.00  0.00    +0.000 N 
ATOM     21  O   UNL     1      16.633  11.855  34.656  0.00  0.00    +0.000 OA
ATOM     22  O   UNL     1      17.740   9.964  34.029  0.00  0.00    +0.000 OA
ENDBRANCH  17  20
ENDBRANCH   4  14
TORSDOF 2
ENDMDL
MODEL 3
REMARK VINA RESULT:      -6.2     20.756     22.849
REMARK  Name = 
REMARK  2 active torsions:
REMARK  status: ('A' for Active; 'I' for Inactive)
REMARK    1  A    between atoms: C_4  and  C_6
REMARK    2  A    between atoms: C_9  and  N_10
REMARK                            x       y       z     vdW  Elec       q    Type
REMARK                         _______ _______ _______ _____ _____    ______ ____
ROOT
ATOM      1  C   UNL     1      18.130   7.066  40.276  0.00  0.00    +0.000 C 
ATOM      2  C   UNL     1      18.126   8.702  39.948  0.00  0.00    +0.000 C 
ATOM      3  O   UNL     1      18.644   8.453  38.523  0.00  0.00    +0.000 OA
ATOM      4  C   UNL     1      18.891   9.643  37.957  0.00  0.00    +0.000 C 
ATOM      5  O   UNL     1      20.244   9.562  37.476  0.00  0.00    +0.000 OA
ATOM      6  C   UNL     1      18.947  10.708  39.052  0.00  0.00    +0.000 C 
ATOM      7  C   UNL     1      20.097  10.125  39.886  0.00  0.00    +0.000 C 
ATOM      8  N   UNL     1      19.539   8.975  40.560  0.00  0.00    +0.000 N 
ATOM      9  C   UNL     1      20.380   7.874  40.560  0.00  0.00    +0.000 C 
ATOM     10  C   UNL     1      20.315   6.952  41.723  0.00  0.00    +0.000 C 
ATOM     11  C   UNL     1      19.647   7.442  42.940  0.00  0.00    +0.000 C 
ATOM     12  C   UNL     1      18.617   8.505  42.752  0.00  0.00    +0.000 C 
ATOM     13  C   UNL     1      19.223   9.536  41.879  0.00  0.00    +0.000 C 
ENDROOT
BRANCH   4  14
ATOM     14  C   UNL     1      18.095  10.092  36.842  0.00  0.00    +0.000 A 
ATOM     15  C   UNL     1      16.990  10.912  36.885  0.00  0.00    +0.000 A 
ATOM     16  C   UNL     1      16.330  11.228  35.716  0.00  0.00    +0.000 A 
ATOM     17  C   UNL     1      16.712  10.764  34.507  0.00  0.00    +0.000 A 
ATOM     18  C   UNL     1      17.830   9.933  34.424  0.00  0.00    +0.000 A 
ATOM     19  C   UNL     1      18.467   9.638  35.590  0.00  0.00    +0.000 A 
BRANCH  17  20
ATOM     20  N   UNL     1      16.063  11.072  33.273  0.00  0.00    +0.000 N 
ATOM     21  O   UNL     1      16.404  10.488  32.229  0.00  0.00    +0.000 OA
ATOM     22  O   UNL     1      15.095  12.029  33.281  0.00  0.00    +0.000 OA
ENDBRANCH  17  20
ENDBRANCH   4  14
TORSDOF 2
ENDMDL
MODEL 4
REMARK VINA RESULT:      -6.1     21.422     23.391
REMARK  Name = 
REMARK  2 active torsions:
REMARK  status: ('A' for Active; 'I' for Inactive)
REMARK    1  A    between atoms: C_4  and  C_6
REMARK    2  A    between atoms: C_9  and  N_10
REMARK                            x       y       z     vdW  Elec       q    Type
REMARK                         _______ _______ _______ _____ _____    ______ ____
ROOT
ATOM      1  C   UNL     1      25.681   6.922  17.339  0.00  0.00    +0.000 C 
ATOM      2  C   UNL     1      25.645   5.513  16.446  0.00  0.00    +0.000 C 
ATOM      3  O   UNL     1      24.862   4.789  17.552  0.00  0.00    +0.000 OA
ATOM      4  C   UNL     1      24.747   3.499  17.205  0.00  0.00    +0.000 C 
ATOM      5  O   UNL     1      25.234   2.756  18.336  0.00  0.00    +0.000 OA
ATOM      6  C   UNL     1      25.754   3.196  16.096  0.00  0.00    +0.000 C 
ATOM      7  C   UNL     1      27.043   3.564  16.845  0.00  0.00    +0.000 C 
ATOM      8  N   UNL     1      27.047   5.006  16.921  0.00  0.00    +0.000 N 
ATOM      9  C   UNL     1      27.437   5.493  18.157  0.00  0.00    +0.000 C 
ATOM     10  C   UNL     1      28.156   6.793  18.195  0.00  0.00    +0.000 C 
ATOM     11  C   UNL     1      28.719   7.294  16.930  0.00  0.00    +0.000 C 
ATOM     12  C   UNL     1      28.060   6.824  15.676  0.00  0.00    +0.000 C 
ATOM     13  C   UNL     1      27.920   5.354  15.793  0.00  0.00    +0.000 C 
ENDROOT
BRANCH   4  14
ATOM     14  C   UNL     1      23.452   2.948  16.890  0.00  0.00    +0.000 A 
ATOM     15  C   UNL     1      22.846   2.902  15.655  0.00  0.00    +0.000 A 
ATOM     16  C   UNL     1      21.586   2.353  15.534  0.00  0.00    +0.000 A 
ATOM     17  C   UNL     1      20.899   1.852  16.584  0.00  0.00    +0.000 A 
ATOM     18  C   UNL     1      21.484   1.879  17.850  0.00  0.00    +0.000 A 
ATOM     19  C   UNL     1      22.728   2.422  17.944  0.00  0.00    +0.000 A 
BRANCH  17  20
ATOM     20  N   UNL     1      19.598   1.269  16.502  0.00  0.00    +0.000 N 
ATOM     21  O   UNL     1      19.355   0.414  15.632  0.00  0.00    +0.000 OA
ATOM     22  O   UNL     1      18.649   1.697  17.378  0.00  0.00    +0.000 OA
ENDBRANCH  17  20
ENDBRANCH   4  14
TORSDOF 2
ENDMDL
MODEL 5
REMARK VINA RESULT:      -6.1      3.466      7.270
REMARK  Name = 
REMARK  2 active torsions:
REMARK  status: ('A' for Active; 'I' for Inactive)
REMARK    1  A    between atoms: C_4  and  C_6
REMARK    2  A    between atoms: C_9  and  N_10
REMARK                            x       y       z     vdW  Elec       q    Type
REMARK                         _______ _______ _______ _____ _____    ______ ____
ROOT
ATOM      1  C   UNL     1      29.639  23.971  23.124  0.00  0.00    +0.000 C 
ATOM      2  C   UNL     1      29.130  24.525  24.614  0.00  0.00    +0.000 C 
ATOM      3  O   UNL     1      29.090  23.093  25.171  0.00  0.00    +0.000 OA
ATOM      4  C   UNL     1      28.572  23.142  26.406  0.00  0.00    +0.000 C 
ATOM      5  O   UNL     1      27.495  22.190  26.405  0.00  0.00    +0.000 OA
ATOM      6  C   UNL     1      27.879  24.491  26.597  0.00  0.00    +0.000 C 
ATOM      7  C   UNL     1      26.854  24.390  25.457  0.00  0.00    +0.000 C 
ATOM      8  N   UNL     1      27.612  24.567  24.240  0.00  0.00    +0.000 N 
ATOM      9  C   UNL     1      27.251  23.689  23.232  0.00  0.00    +0.000 C 
ATOM     10  C   UNL     1      27.368  24.160  21.828  0.00  0.00    +0.000 C 
ATOM     11  C   UNL     1      27.505  25.610  21.608  0.00  0.00    +0.000 C 
ATOM     12  C   UNL     1      28.095  26.400  22.729  0.00  0.00    +0.000 C 
ATOM     13  C   UNL     1      27.383  25.990  23.960  0.00  0.00    +0.000 C 
ENDROOT
BRANCH   4  14
ATOM     14  C   UNL     1      29.392  22.819  27.547  0.00  0.00    +0.000 A 
ATOM     15  C   UNL     1      29.078  22.998  28.875  0.00  0.00    +0.000 A 
ATOM     16  C   UNL     1      29.995  22.650  29.846  0.00  0.00    +0.000 A 
ATOM     17  C   UNL     1      31.211  22.138  29.558  0.00  0.00    +0.000 A 
ATOM     18  C   UNL     1      31.563  21.940  28.222  0.00  0.00    +0.000 A 
ATOM     19  C   UNL     1      30.641  22.287  27.284  0.00  0.00    +0.000 A 
BRANCH  17  20
ATOM     20  N   UNL     1      32.186  21.758  30.530  0.00  0.00    +0.000 N 
ATOM     21  O   UNL     1      33.346  22.198  30.450  0.00  0.00    +0.000 OA
ATOM     22  O   UNL     1      31.808  20.893  31.511  0.00  0.00    +0.000 OA
ENDBRANCH  17  20
ENDBRANCH   4  14
TORSDOF 2
ENDMDL
MODEL 6
REMARK VINA RESULT:      -6.1      3.302      7.573
REMARK  Name = 
REMARK  2 active torsions:
REMARK  status: ('A' for Active; 'I' for Inactive)
REMARK    1  A    between atoms: C_4  and  C_6
REMARK    2  A    between atoms: C_9  and  N_10
REMARK                            x       y       z     vdW  Elec       q    Type
REMARK                         _______ _______ _______ _____ _____    ______ ____
ROOT
ATOM      1  C   UNL     1      28.794  25.614  24.933  0.00  0.00    +0.000 C 
ATOM      2  C   UNL     1      27.232  25.121  25.255  0.00  0.00    +0.000 C 
ATOM      3  O   UNL     1      27.617  24.723  26.689  0.00  0.00    +0.000 OA
ATOM      4  C   UNL     1      26.555  24.131  27.255  0.00  0.00    +0.000 C 
ATOM      5  O   UNL     1      27.043  22.875  27.756  0.00  0.00    +0.000 OA
ATOM      6  C   UNL     1      25.567  23.738  26.156  0.00  0.00    +0.000 C 
ATOM      7  C   UNL     1      26.481  22.811  25.342  0.00  0.00    +0.000 C 
ATOM      8  N   UNL     1      27.410  23.684  24.664  0.00  0.00    +0.000 N 
ATOM      9  C   UNL     1      28.716  23.222  24.680  0.00  0.00    +0.000 C 
ATOM     10  C   UNL     1      29.583  23.551  23.520  0.00  0.00    +0.000 C 
ATOM     11  C   UNL     1      28.921  24.020  22.291  0.00  0.00    +0.000 C 
ATOM     12  C   UNL     1      27.592  24.678  22.460  0.00  0.00    +0.000 C 
ATOM     13  C   UNL     1      26.790  23.797  23.338  0.00  0.00    +0.000 C 
ENDROOT
BRANCH   4  14
ATOM     14  C   UNL     1      25.875  24.766  28.356  0.00  0.00    +0.000 A 
ATOM     15  C   UNL     1      24.858  25.691  28.284  0.00  0.00    +0.000 A 
ATOM     16  C   UNL     1      24.330  26.215  29.446  0.00  0.00    +0.000 A 
ATOM     17  C   UNL     1      24.770  25.869  30.675  0.00  0.00    +0.000 A 
ATOM     18  C   UNL     1      25.797  24.931  30.786  0.00  0.00    +0.000 A 
ATOM     19  C   UNL     1      26.299  24.425  29.628  0.00  0.00    +0.000 A 
BRANCH  17  20
ATOM     20  N   UNL     1      24.247  26.382  31.901  0.00  0.00    +0.000 N 
ATOM     21  O   UNL     1      23.102  26.064  32.268  0.00  0.00    +0.000 OA
ATOM     22  O   UNL     1      25.027  27.233  32.622  0.00  0.00    +0.000 OA
ENDBRANCH  17  20
ENDBRANCH   4  14
TORSDOF 2
ENDMDL
MODEL 7
REMARK VINA RESULT:      -6.0      3.274      7.302
REMARK  Name = 
REMARK  2 active torsions:
REMARK  status: ('A' for Active; 'I' for Inactive)
REMARK    1  A    between atoms: C_4  and  C_6
REMARK    2  A    between atoms: C_9  and  N_10
REMARK                            x       y       z     vdW  Elec       q    Type
REMARK                         _______ _______ _______ _____ _____    ______ ____
ROOT
ATOM      1  C   UNL     1      29.854  26.415  23.647  0.00  0.00    +0.000 C 
ATOM      2  C   UNL     1      28.913  25.299  24.455  0.00  0.00    +0.000 C 
ATOM      3  O   UNL     1      30.140  24.422  24.745  0.00  0.00    +0.000 OA
ATOM      4  C   UNL     1      29.715  23.289  25.324  0.00  0.00    +0.000 C 
ATOM      5  O   UNL     1      30.286  22.226  24.543  0.00  0.00    +0.000 OA
ATOM      6  C   UNL     1      28.209  23.155  25.097  0.00  0.00    +0.000 C 
ATOM      7  C   UNL     1      28.205  23.151  23.561  0.00  0.00    +0.000 C 
ATOM      8  N   UNL     1      28.487  24.513  23.171  0.00  0.00    +0.000 N 
ATOM      9  C   UNL     1      29.384  24.613  22.121  0.00  0.00    +0.000 C 
ATOM     10  C   UNL     1      29.233  25.757  21.185  0.00  0.00    +0.000 C 
ATOM     11  C   UNL     1      27.956  26.489  21.211  0.00  0.00    +0.000 C 
ATOM     12  C   UNL     1      27.189  26.445  22.491  0.00  0.00    +0.000 C 
ATOM     13  C   UNL     1      27.136  25.025  22.907  0.00  0.00    +0.000 C 
ENDROOT
BRANCH   4  14
ATOM     14  C   UNL     1      30.056  23.007  26.697  0.00  0.00    +0.000 A 
ATOM     15  C   UNL     1      31.246  22.506  27.172  0.00  0.00    +0.000 A 
ATOM     16  C   UNL     1      31.398  22.276  28.524  0.00  0.00    +0.000 A 
ATOM     17  C   UNL     1      30.420  22.515  29.424  0.00  0.00    +0.000 A 
ATOM     18  C   UNL     1      29.201  23.027  28.978  0.00  0.00    +0.000 A 
ATOM     19  C   UNL     1      29.077  23.249  27.642  0.00  0.00    +0.000 A 
BRANCH  17  20
ATOM     20  N   UNL     1      30.537  22.298  30.831  0.00  0.00    +0.000 N 
ATOM     21  O   UNL     1      29.799  22.917  31.617  0.00  0.00    +0.000 OA
ATOM     22  O   UNL     1      31.486  21.425  31.267  0.00  0.00    +0.000 OA
ENDBRANCH  17  20
ENDBRANCH   4  14
TORSDOF 2
ENDMDL
MODEL 8
REMARK VINA RESULT:      -6.0      3.836      6.989
REMARK  Name = 
REMARK  2 active torsions:
REMARK  status: ('A' for Active; 'I' for Inactive)
REMARK    1  A    between atoms: C_4  and  C_6
REMARK    2  A    between atoms: C_9  and  N_10
REMARK                            x       y       z     vdW  Elec       q    Type
REMARK                         _______ _______ _______ _____ _____    ______ ____
ROOT
ATOM      1  C   UNL     1      29.845  25.056  26.508  0.00  0.00    +0.000 C 
ATOM      2  C   UNL     1      28.264  24.697  26.113  0.00  0.00    +0.000 C 
ATOM      3  O   UNL     1      27.905  24.486  27.592  0.00  0.00    +0.000 OA
ATOM      4  C   UNL     1      26.642  24.037  27.653  0.00  0.00    +0.000 C 
ATOM      5  O   UNL     1      26.703  22.840  28.447  0.00  0.00    +0.000 OA
ATOM      6  C   UNL     1      26.226  23.546  26.267  0.00  0.00    +0.000 C 
ATOM      7  C   UNL     1      27.300  22.465  26.070  0.00  0.00    +0.000 C 
ATOM      8  N   UNL     1      28.528  23.184  25.820  0.00  0.00    +0.000 N 
ATOM      9  C   UNL     1      29.621  22.659  26.490  0.00  0.00    +0.000 C 
ATOM     10  C   UNL     1      30.953  22.774  25.842  0.00  0.00    +0.000 C 
ATOM     11  C   UNL     1      30.982  23.099  24.406  0.00  0.00    +0.000 C 
ATOM     12  C   UNL     1      29.805  23.844  23.868  0.00  0.00    +0.000 C 
ATOM     13  C   UNL     1      28.597  23.140  24.355  0.00  0.00    +0.000 C 
ENDROOT
BRANCH   4  14
ATOM     14  C   UNL     1      25.612  24.857  28.240  0.00  0.00    +0.000 A 
ATOM     15  C   UNL     1      25.511  25.252  29.555  0.00  0.00    +0.000 A 
ATOM     16  C   UNL     1      24.441  26.026  29.953  0.00  0.00    +0.000 A 
ATOM     17  C   UNL     1      23.464  26.420  29.109  0.00  0.00    +0.000 A 
ATOM     18  C   UNL     1      23.535  26.041  27.768  0.00  0.00    +0.000 A 
ATOM     19  C   UNL     1      24.601  25.281  27.398  0.00  0.00    +0.000 A 
BRANCH  17  20
ATOM     20  N   UNL     1      22.344  27.227  29.478  0.00  0.00    +0.000 N 
ATOM     21  O   UNL     1      21.553  26.827  30.351  0.00  0.00    +0.000 OA
ATOM     22  O   UNL     1      22.167  28.411  28.831  0.00  0.00    +0.000 OA
ENDBRANCH  17  20
ENDBRANCH   4  14
TORSDOF 2
ENDMDL
MODEL 9
REMARK VINA RESULT:      -5.9     22.291     23.990
REMARK  Name = 
REMARK  2 active torsions:
REMARK  status: ('A' for Active; 'I' for Inactive)
REMARK    1  A    between atoms: C_4  and  C_6
REMARK    2  A    between atoms: C_9  and  N_10
REMARK                            x       y       z     vdW  Elec       q    Type
REMARK                         _______ _______ _______ _____ _____    ______ ____
ROOT
ATOM      1  C   UNL     1      21.151   2.305  14.482  0.00  0.00    +0.000 C 
ATOM      2  C   UNL     1      21.477   2.648  16.083  0.00  0.00    +0.000 C 
ATOM      3  O   UNL     1      22.972   2.357  15.877  0.00  0.00    +0.000 OA
ATOM      4  C   UNL     1      23.577   2.421  17.072  0.00  0.00    +0.000 C 
ATOM      5  O   UNL     1      24.294   1.182  17.203  0.00  0.00    +0.000 OA
ATOM      6  C   UNL     1      22.512   2.355  18.167  0.00  0.00    +0.000 C 
ATOM      7  C   UNL     1      21.898   0.993  17.814  0.00  0.00    +0.000 C 
ATOM      8  N   UNL     1      21.132   1.216  16.609  0.00  0.00    +0.000 N 
ATOM      9  C   UNL     1      21.281   0.213  15.666  0.00  0.00    +0.000 C 
ATOM     10  C   UNL     1      20.124  -0.088  14.785  0.00  0.00    +0.000 C 
ATOM     11  C   UNL     1      18.807   0.426  15.197  0.00  0.00    +0.000 C 
ATOM     12  C   UNL     1      18.808   1.640  16.065  0.00  0.00    +0.000 C 
ATOM     13  C   UNL     1      19.779   1.384  17.153  0.00  0.00    +0.000 C 
ENDROOT
BRANCH   4  14
ATOM     14  C   UNL     1      24.531   3.468  17.343  0.00  0.00    +0.000 A 
ATOM     15  C   UNL     1      25.147   3.741  18.543  0.00  0.00    +0.000 A 
ATOM     16  C   UNL     1      26.025   4.802  18.632  0.00  0.00    +0.000 A 
ATOM     17  C   UNL     1      26.315   5.606  17.587  0.00  0.00    +0.000 A 
ATOM     18  C   UNL     1      25.711   5.357  16.354  0.00  0.00    +0.000 A 
ATOM     19  C   UNL     1      24.852   4.304  16.290  0.00  0.00    +0.000 A 
BRANCH  17  20
ATOM     20  N   UNL     1      27.222   6.708  17.634  0.00  0.00    +0.000 N 
ATOM     21  O   UNL     1      27.604   7.151  18.732  0.00  0.00    +0.000 OA
ATOM     22  O   UNL     1      27.621   7.259  16.455  0.00  0.00    +0.000 OA
ENDBRANCH  17  20
ENDBRANCH   4  14
TORSDOF 2
ENDMDL
MODEL 10
REMARK VINA RESULT:      -5.9     31.952     33.996
REMARK  Name = 
REMARK  2 active torsions:
REMARK  status: ('A' for Active; 'I' for Inactive)
REMARK    1  A    between atoms: C_4  and  C_6
REMARK    2  A    between atoms: C_9  and  N_10
REMARK                            x       y       z     vdW  Elec       q    Type
REMARK                         _______ _______ _______ _____ _____    ______ ____
ROOT
ATOM      1  C   UNL     1      24.644 -11.043  24.071  0.00  0.00    +0.000 C 
ATOM      2  C   UNL     1      24.455  -9.435  24.477  0.00  0.00    +0.000 C 
ATOM      3  O   UNL     1      23.089  -9.382  23.773  0.00  0.00    +0.000 OA
ATOM      4  C   UNL     1      22.659  -8.113  23.796  0.00  0.00    +0.000 C 
ATOM      5  O   UNL     1      22.345  -7.793  22.430  0.00  0.00    +0.000 OA
ATOM      6  C   UNL     1      23.837  -7.199  24.133  0.00  0.00    +0.000 C 
ATOM      7  C   UNL     1      24.757  -7.561  22.957  0.00  0.00    +0.000 C 
ATOM      8  N   UNL     1      25.258  -8.883  23.253  0.00  0.00    +0.000 N 
ATOM      9  C   UNL     1      25.271  -9.728  22.156  0.00  0.00    +0.000 C 
ATOM     10  C   UNL     1      26.336 -10.761  22.088  0.00  0.00    +0.000 C 
ATOM     11  C   UNL     1      27.498 -10.597  22.978  0.00  0.00    +0.000 C 
ATOM     12  C   UNL     1      27.272  -9.815  24.229  0.00  0.00    +0.000 C 
ATOM     13  C   UNL     1      26.570  -8.573  23.835  0.00  0.00    +0.000 C 
ENDROOT
BRANCH   4  14
ATOM     14  C   UNL     1      21.495  -7.758  24.569  0.00  0.00    +0.000 A 
ATOM     15  C   UNL     1      20.476  -8.593  24.969  0.00  0.00    +0.000 A 
ATOM     16  C   UNL     1      19.419  -8.080  25.693  0.00  0.00    +0.000 A 
ATOM     17  C   UNL     1      19.325  -6.776  26.032  0.00  0.00    +0.000 A 
ATOM     18  C   UNL     1      20.341  -5.901  25.647  0.00  0.00    +0.000 A 
ATOM     19  C   UNL     1      21.374  -6.431  24.937  0.00  0.00    +0.000 A 
BRANCH  17  20
ATOM     20  N   UNL     1      18.254  -6.206  26.786  0.00  0.00    +0.000 N 
ATOM     21  O   UNL     1      17.472  -6.945  27.410  0.00  0.00    +0.000 OA
ATOM     22  O   UNL     1      18.110  -4.853  26.770  0.00  0.00    +0.000 OA
ENDBRANCH  17  20
ENDBRANCH   4  14
TORSDOF 2
ENDMDL
