MODEL 1
REMARK VINA RESULT:      -8.4      0.000      0.000
REMARK  Name = 
REMARK  2 active torsions:
REMARK  status: ('A' for Active; 'I' for Inactive)
REMARK    1  A    between atoms: C_8  and  C_9
REMARK    2  A    between atoms: C_12  and  C_13
REMARK                            x       y       z     vdW  Elec       q    Type
REMARK                         _______ _______ _______ _____ _____    ______ ____
ROOT
ATOM      1  C   UNL     1      14.532  13.157  30.484  0.00  0.00    +0.000 C 
ATOM      2  C   UNL     1      14.412  13.161  31.988  0.00  0.00    +0.000 A 
ATOM      3  C   UNL     1      13.706  14.120  32.670  0.00  0.00    +0.000 A 
ATOM      4  C   UNL     1      13.621  14.077  34.053  0.00  0.00    +0.000 A 
ATOM      5  N   UNL     1      12.884  15.102  34.703  0.00  0.00    +0.000 NA
ATOM      6  N   UNL     1      14.222  13.107  34.760  0.00  0.00    +0.000 N 
ATOM      7  N   UNL     1      14.281  12.855  36.080  0.00  0.00    +0.000 NA
ATOM      8  C   UNL     1      15.005  11.761  36.308  0.00  0.00    +0.000 A 
ATOM      9  C   UNL     1      15.413  11.312  35.055  0.00  0.00    +0.000 A 
ATOM     10  C   UNL     1      14.924  12.160  34.087  0.00  0.00    +0.000 A 
ATOM     11  N   UNL     1      15.002  12.208  32.744  0.00  0.00    +0.000 NA
ENDROOT
BRANCH   8  12
ATOM     12  C   UNL     1      15.357  11.083  37.567  0.00  0.00    +0.000 A 
ATOM     13  C   UNL     1      16.675  10.648  37.760  0.00  0.00    +0.000 A 
ATOM     14  C   UNL     1      17.077  10.014  38.913  0.00  0.00    +0.000 A 
ATOM     15  C   UNL     1      16.175   9.780  39.930  0.00  0.00    +0.000 A 
ATOM     16  C   UNL     1      14.889  10.212  39.720  0.00  0.00    +0.000 A 
ATOM     17  C   UNL     1      14.474  10.856  38.567  0.00  0.00    +0.000 A 
BRANCH  15  18
ATOM     18  C   UNL     1      16.622   9.088  41.186  0.00  0.00    +0.000 C 
ATOM     19  C   UNL     1      15.915   7.762  41.371  0.00  0.00    +0.000 C 
ATOM     20  C   UNL     1      18.111   8.764  41.038  0.00  0.00    +0.000 C 
ATOM     21  C   UNL     1      16.485   9.963  42.400  0.00  0.00    +0.000 C 
ENDBRANCH  15  18
ENDBRANCH   8  12
TORSDOF 2
ENDMDL
MODEL 2
REMARK VINA RESULT:      -7.0      1.619      2.671
REMARK  Name = 
REMARK  2 active torsions:
REMARK  status: ('A' for Active; 'I' for Inactive)
REMARK    1  A    between atoms: C_8  and  C_9
REMARK    2  A    between atoms: C_12  and  C_13
REMARK                            x       y       z     vdW  Elec       q    Type
REMARK                         _______ _______ _______ _____ _____    ______ ____
ROOT
ATOM      1  C   UNL     1      16.260  11.073  31.578  0.00  0.00    +0.000 C 
ATOM      2  C   UNL     1      16.015  11.259  33.056  0.00  0.00    +0.000 A 
ATOM      3  C   UNL     1      15.110  12.165  33.546  0.00  0.00    +0.000 A 
ATOM      4  C   UNL     1      14.917  12.294  34.913  0.00  0.00    +0.000 A 
ATOM      5  N   UNL     1      13.974  13.256  35.361  0.00  0.00    +0.000 NA
ATOM      6  N   UNL     1      15.604  11.544  35.788  0.00  0.00    +0.000 N 
ATOM      7  N   UNL     1      15.593  11.484  37.133  0.00  0.00    +0.000 NA
ATOM      8  C   UNL     1      16.461  10.570  37.561  0.00  0.00    +0.000 A 
ATOM      9  C   UNL     1      17.039  10.034  36.413  0.00  0.00    +0.000 A 
ATOM     10  C   UNL     1      16.503  10.649  35.304  0.00  0.00    +0.000 A 
ATOM     11  N   UNL     1      16.685  10.529  33.976  0.00  0.00    +0.000 NA
ENDROOT
BRANCH   8  12
ATOM     12  C   UNL     1      16.810  10.136  38.924  0.00  0.00    +0.000 A 
ATOM     13  C   UNL     1      15.783   9.909  39.850  0.00  0.00    +0.000 A 
ATOM     14  C   UNL     1      16.034   9.497  41.138  0.00  0.00    +0.000 A 
ATOM     15  C   UNL     1      17.330   9.294  41.564  0.00  0.00    +0.000 A 
ATOM     16  C   UNL     1      18.322   9.523  40.642  0.00  0.00    +0.000 A 
ATOM     17  C   UNL     1      18.081   9.934  39.342  0.00  0.00    +0.000 A 
BRANCH  15  18
ATOM     18  C   UNL     1      17.596   8.842  42.972  0.00  0.00    +0.000 C 
ATOM     19  C   UNL     1      19.021   8.358  43.140  0.00  0.00    +0.000 C 
ATOM     20  C   UNL     1      17.444  10.058  43.891  0.00  0.00    +0.000 C 
ATOM     21  C   UNL     1      16.603   7.817  43.440  0.00  0.00    +0.000 C 
ENDBRANCH  15  18
ENDBRANCH   8  12
TORSDOF 2
ENDMDL
MODEL 3
REMARK VINA RESULT:      -6.7     23.156     24.505
REMARK  Name = 
REMARK  2 active torsions:
REMARK  status: ('A' for Active; 'I' for Inactive)
REMARK    1  A    between atoms: C_8  and  C_9
REMARK    2  A    between atoms: C_12  and  C_13
REMARK                            x       y       z     vdW  Elec       q    Type
REMARK                         _______ _______ _______ _____ _____    ______ ____
ROOT
ATOM      1  C   UNL     1      16.259  -8.650  26.599  0.00  0.00    +0.000 C 
ATOM      2  C   UNL     1      17.567  -7.973  26.270  0.00  0.00    +0.000 A 
ATOM      3  C   UNL     1      17.795  -6.644  26.525  0.00  0.00    +0.000 A 
ATOM      4  C   UNL     1      19.016  -6.070  26.210  0.00  0.00    +0.000 A 
ATOM      5  N   UNL     1      19.190  -4.688  26.487  0.00  0.00    +0.000 NA
ATOM      6  N   UNL     1      20.003  -6.789  25.651  0.00  0.00    +0.000 N 
ATOM      7  N   UNL     1      21.250  -6.466  25.263  0.00  0.00    +0.000 NA
ATOM      8  C   UNL     1      21.866  -7.532  24.756  0.00  0.00    +0.000 A 
ATOM      9  C   UNL     1      20.945  -8.573  24.837  0.00  0.00    +0.000 A 
ATOM     10  C   UNL     1      19.776  -8.103  25.395  0.00  0.00    +0.000 A 
ATOM     11  N   UNL     1      18.588  -8.654  25.704  0.00  0.00    +0.000 NA
ENDROOT
BRANCH   8  12
ATOM     12  C   UNL     1      23.223  -7.690  24.205  0.00  0.00    +0.000 A 
ATOM     13  C   UNL     1      23.695  -8.978  23.921  0.00  0.00    +0.000 A 
ATOM     14  C   UNL     1      24.948  -9.201  23.400  0.00  0.00    +0.000 A 
ATOM     15  C   UNL     1      25.793  -8.142  23.139  0.00  0.00    +0.000 A 
ATOM     16  C   UNL     1      25.312  -6.889  23.427  0.00  0.00    +0.000 A 
ATOM     17  C   UNL     1      24.051  -6.652  23.947  0.00  0.00    +0.000 A 
BRANCH  15  18
ATOM     18  C   UNL     1      27.160  -8.394  22.569  0.00  0.00    +0.000 C 
ATOM     19  C   UNL     1      27.998  -9.250  23.495  0.00  0.00    +0.000 C 
ATOM     20  C   UNL     1      26.988  -9.199  21.277  0.00  0.00    +0.000 C 
ATOM     21  C   UNL     1      27.867  -7.122  22.198  0.00  0.00    +0.000 C 
ENDBRANCH  15  18
ENDBRANCH   8  12
TORSDOF 2
ENDMDL
MODEL 4
REMARK VINA RESULT:      -6.4      7.780     11.540
REMARK  Name = 
REMARK  2 active torsions:
REMARK  status: ('A' for Active; 'I' for Inactive)
REMARK    1  A    between atoms: C_8  and  C_9
REMARK    2  A    between atoms: C_12  and  C_13
REMARK                            x       y       z     vdW  Elec       q    Type
REMARK                         _______ _______ _______ _____ _____    ______ ____
ROOT
ATOM      1  C   UNL     1      22.537  -1.165  40.552  0.00  0.00    +0.000 C 
ATOM      2  C   UNL     1      22.346   0.317  40.763  0.00  0.00    +0.000 A 
ATOM      3  C   UNL     1      23.381   1.154  41.095  0.00  0.00    +0.000 A 
ATOM      4  C   UNL     1      23.156   2.510  41.272  0.00  0.00    +0.000 A 
ATOM      5  N   UNL     1      24.264   3.325  41.626  0.00  0.00    +0.000 NA
ATOM      6  N   UNL     1      21.931   3.040  41.127  0.00  0.00    +0.000 N 
ATOM      7  N   UNL     1      21.470   4.298  41.242  0.00  0.00    +0.000 NA
ATOM      8  C   UNL     1      20.161   4.334  40.999  0.00  0.00    +0.000 A 
ATOM      9  C   UNL     1      19.795   3.021  40.717  0.00  0.00    +0.000 A 
ATOM     10  C   UNL     1      20.906   2.211  40.801  0.00  0.00    +0.000 A 
ATOM     11  N   UNL     1      21.132   0.896  40.631  0.00  0.00    +0.000 NA
ENDROOT
BRANCH   8  12
ATOM     12  C   UNL     1      19.211   5.460  40.998  0.00  0.00    +0.000 A 
ATOM     13  C   UNL     1      18.003   5.330  41.695  0.00  0.00    +0.000 A 
ATOM     14  C   UNL     1      17.072   6.342  41.743  0.00  0.00    +0.000 A 
ATOM     15  C   UNL     1      17.305   7.535  41.091  0.00  0.00    +0.000 A 
ATOM     16  C   UNL     1      18.494   7.640  40.412  0.00  0.00    +0.000 A 
ATOM     17  C   UNL     1      19.440   6.631  40.362  0.00  0.00    +0.000 A 
BRANCH  15  18
ATOM     18  C   UNL     1      16.284   8.635  41.149  0.00  0.00    +0.000 C 
ATOM     19  C   UNL     1      14.874   8.087  41.078  0.00  0.00    +0.000 C 
ATOM     20  C   UNL     1      16.410   9.321  42.512  0.00  0.00    +0.000 C 
ATOM     21  C   UNL     1      16.521   9.690  40.107  0.00  0.00    +0.000 C 
ENDBRANCH  15  18
ENDBRANCH   8  12
TORSDOF 2
ENDMDL
MODEL 5
REMARK VINA RESULT:      -6.0     19.973     21.383
REMARK  Name = 
REMARK  2 active torsions:
REMARK  status: ('A' for Active; 'I' for Inactive)
REMARK    1  A    between atoms: C_8  and  C_9
REMARK    2  A    between atoms: C_12  and  C_13
REMARK                            x       y       z     vdW  Elec       q    Type
REMARK                         _______ _______ _______ _____ _____    ______ ____
ROOT
ATOM      1  C   UNL     1      33.428  -0.824  36.404  0.00  0.00    +0.000 C 
ATOM      2  C   UNL     1      33.653   0.532  35.783  0.00  0.00    +0.000 A 
ATOM      3  C   UNL     1      33.579   0.745  34.429  0.00  0.00    +0.000 A 
ATOM      4  C   UNL     1      33.788   2.012  33.907  0.00  0.00    +0.000 A 
ATOM      5  N   UNL     1      33.708   2.169  32.498  0.00  0.00    +0.000 NA
ATOM      6  N   UNL     1      34.068   3.058  34.702  0.00  0.00    +0.000 N 
ATOM      7  N   UNL     1      34.304   4.356  34.438  0.00  0.00    +0.000 NA
ATOM      8  C   UNL     1      34.535   5.021  35.568  0.00  0.00    +0.000 A 
ATOM      9  C   UNL     1      34.434   4.077  36.587  0.00  0.00    +0.000 A 
ATOM     10  C   UNL     1      34.145   2.847  36.040  0.00  0.00    +0.000 A 
ATOM     11  N   UNL     1      33.941   1.614  36.540  0.00  0.00    +0.000 NA
ENDROOT
BRANCH   8  12
ATOM     12  C   UNL     1      34.838   6.442  35.806  0.00  0.00    +0.000 A 
ATOM     13  C   UNL     1      35.965   7.009  35.196  0.00  0.00    +0.000 A 
ATOM     14  C   UNL     1      36.305   8.331  35.368  0.00  0.00    +0.000 A 
ATOM     15  C   UNL     1      35.532   9.152  36.163  0.00  0.00    +0.000 A 
ATOM     16  C   UNL     1      34.433   8.577  36.752  0.00  0.00    +0.000 A 
ATOM     17  C   UNL     1      34.079   7.249  36.583  0.00  0.00    +0.000 A 
BRANCH  15  18
ATOM     18  C   UNL     1      35.910  10.594  36.344  0.00  0.00    +0.000 C 
ATOM     19  C   UNL     1      35.908  11.338  35.026  0.00  0.00    +0.000 C 
ATOM     20  C   UNL     1      34.835  11.255  37.212  0.00  0.00    +0.000 C 
ATOM     21  C   UNL     1      37.215  10.756  37.070  0.00  0.00    +0.000 C 
ENDBRANCH  15  18
ENDBRANCH   8  12
TORSDOF 2
ENDMDL
MODEL 6
REMARK VINA RESULT:      -6.0     19.373     21.310
REMARK  Name = 
REMARK  2 active torsions:
REMARK  status: ('A' for Active; 'I' for Inactive)
REMARK    1  A    between atoms: C_8  and  C_9
REMARK    2  A    between atoms: C_12  and  C_13
REMARK                            x       y       z     vdW  Elec       q    Type
REMARK                         _______ _______ _______ _____ _____    ______ ____
ROOT
ATOM      1  C   UNL     1      29.421  25.296  20.683  0.00  0.00    +0.000 C 
ATOM      2  C   UNL     1      29.116  24.649  22.011  0.00  0.00    +0.000 A 
ATOM      3  C   UNL     1      27.917  24.038  22.276  0.00  0.00    +0.000 A 
ATOM      4  C   UNL     1      27.687  23.452  23.511  0.00  0.00    +0.000 A 
ATOM      5  N   UNL     1      26.422  22.844  23.731  0.00  0.00    +0.000 NA
ATOM      6  N   UNL     1      28.621  23.465  24.475  0.00  0.00    +0.000 N 
ATOM      7  N   UNL     1      28.635  22.973  25.727  0.00  0.00    +0.000 NA
ATOM      8  C   UNL     1      29.803  23.234  26.312  0.00  0.00    +0.000 A 
ATOM      9  C   UNL     1      30.552  23.925  25.364  0.00  0.00    +0.000 A 
ATOM     10  C   UNL     1      29.807  24.072  24.215  0.00  0.00    +0.000 A 
ATOM     11  N   UNL     1      30.023  24.639  23.013  0.00  0.00    +0.000 NA
ENDROOT
BRANCH   8  12
ATOM     12  C   UNL     1      30.301  22.906  27.658  0.00  0.00    +0.000 A 
ATOM     13  C   UNL     1      29.532  23.263  28.774  0.00  0.00    +0.000 A 
ATOM     14  C   UNL     1      29.931  22.984  30.060  0.00  0.00    +0.000 A 
ATOM     15  C   UNL     1      31.126  22.334  30.293  0.00  0.00    +0.000 A 
ATOM     16  C   UNL     1      31.865  21.995  29.187  0.00  0.00    +0.000 A 
ATOM     17  C   UNL     1      31.471  22.267  27.888  0.00  0.00    +0.000 A 
BRANCH  15  18
ATOM     18  C   UNL     1      31.554  22.032  31.701  0.00  0.00    +0.000 C 
ATOM     19  C   UNL     1      30.405  21.496  32.528  0.00  0.00    +0.000 C 
ATOM     20  C   UNL     1      32.600  20.915  31.643  0.00  0.00    +0.000 C 
ATOM     21  C   UNL     1      32.212  23.209  32.363  0.00  0.00    +0.000 C 
ENDBRANCH  15  18
ENDBRANCH   8  12
TORSDOF 2
ENDMDL
MODEL 7
REMARK VINA RESULT:      -6.0     19.661     21.969
REMARK  Name = 
REMARK  2 active torsions:
REMARK  status: ('A' for Active; 'I' for Inactive)
REMARK    1  A    between atoms: C_8  and  C_9
REMARK    2  A    between atoms: C_12  and  C_13
REMARK                            x       y       z     vdW  Elec       q    Type
REMARK                         _______ _______ _______ _____ _____    ______ ____
ROOT
ATOM      1  C   UNL     1      34.986  20.668  32.351  0.00  0.00    +0.000 C 
ATOM      2  C   UNL     1      33.660  21.140  31.807  0.00  0.00    +0.000 A 
ATOM      3  C   UNL     1      32.597  21.450  32.617  0.00  0.00    +0.000 A 
ATOM      4  C   UNL     1      31.401  21.885  32.068  0.00  0.00    +0.000 A 
ATOM      5  N   UNL     1      30.334  22.181  32.957  0.00  0.00    +0.000 NA
ATOM      6  N   UNL     1      31.247  22.014  30.741  0.00  0.00    +0.000 N 
ATOM      7  N   UNL     1      30.207  22.410  29.985  0.00  0.00    +0.000 NA
ATOM      8  C   UNL     1      30.535  22.375  28.695  0.00  0.00    +0.000 A 
ATOM      9  C   UNL     1      31.854  21.932  28.654  0.00  0.00    +0.000 A 
ATOM     10  C   UNL     1      32.297  21.703  29.938  0.00  0.00    +0.000 A 
ATOM     11  N   UNL     1      33.455  21.282  30.478  0.00  0.00    +0.000 NA
ENDROOT
BRANCH   8  12
ATOM     12  C   UNL     1      29.754  22.711  27.493  0.00  0.00    +0.000 A 
ATOM     13  C   UNL     1      30.423  23.198  26.362  0.00  0.00    +0.000 A 
ATOM     14  C   UNL     1      29.760  23.527  25.202  0.00  0.00    +0.000 A 
ATOM     15  C   UNL     1      28.390  23.387  25.119  0.00  0.00    +0.000 A 
ATOM     16  C   UNL     1      27.754  22.910  26.239  0.00  0.00    +0.000 A 
ATOM     17  C   UNL     1      28.411  22.572  27.409  0.00  0.00    +0.000 A 
BRANCH  15  18
ATOM     18  C   UNL     1      27.674  23.747  23.849  0.00  0.00    +0.000 C 
ATOM     19  C   UNL     1      26.277  23.165  23.816  0.00  0.00    +0.000 C 
ATOM     20  C   UNL     1      27.507  25.269  23.820  0.00  0.00    +0.000 C 
ATOM     21  C   UNL     1      28.460  23.372  22.624  0.00  0.00    +0.000 C 
ENDBRANCH  15  18
ENDBRANCH   8  12
TORSDOF 2
ENDMDL
MODEL 8
REMARK VINA RESULT:      -6.0     19.869     21.282
REMARK  Name = 
REMARK  2 active torsions:
REMARK  status: ('A' for Active; 'I' for Inactive)
REMARK    1  A    between atoms: C_8  and  C_9
REMARK    2  A    between atoms: C_12  and  C_13
REMARK                            x       y       z     vdW  Elec       q    Type
REMARK                         _______ _______ _______ _____ _____    ______ ____
ROOT
ATOM      1  C   UNL     1      33.122  -0.052  33.554  0.00  0.00    +0.000 C 
ATOM      2  C   UNL     1      33.533   1.061  34.486  0.00  0.00    +0.000 A 
ATOM      3  C   UNL     1      33.790   0.852  35.817  0.00  0.00    +0.000 A 
ATOM      4  C   UNL     1      34.170   1.907  36.632  0.00  0.00    +0.000 A 
ATOM      5  N   UNL     1      34.412   1.631  38.003  0.00  0.00    +0.000 NA
ATOM      6  N   UNL     1      34.297   3.153  36.147  0.00  0.00    +0.000 N 
ATOM      7  N   UNL     1      34.647   4.317  36.725  0.00  0.00    +0.000 NA
ATOM      8  C   UNL     1      34.632   5.299  35.827  0.00  0.00    +0.000 A 
ATOM      9  C   UNL     1      34.253   4.706  34.626  0.00  0.00    +0.000 A 
ATOM     10  C   UNL     1      34.039   3.361  34.831  0.00  0.00    +0.000 A 
ATOM     11  N   UNL     1      33.671   2.332  34.046  0.00  0.00    +0.000 NA
ENDROOT
BRANCH   8  12
ATOM     12  C   UNL     1      34.937   6.734  35.962  0.00  0.00    +0.000 A 
ATOM     13  C   UNL     1      34.099   7.536  36.749  0.00  0.00    +0.000 A 
ATOM     14  C   UNL     1      34.326   8.881  36.925  0.00  0.00    +0.000 A 
ATOM     15  C   UNL     1      35.405   9.491  36.320  0.00  0.00    +0.000 A 
ATOM     16  C   UNL     1      36.212   8.688  35.552  0.00  0.00    +0.000 A 
ATOM     17  C   UNL     1      35.996   7.333  35.371  0.00  0.00    +0.000 A 
BRANCH  15  18
ATOM     18  C   UNL     1      35.646  10.960  36.519  0.00  0.00    +0.000 C 
ATOM     19  C   UNL     1      34.347  11.716  36.703  0.00  0.00    +0.000 C 
ATOM     20  C   UNL     1      36.433  11.134  37.821  0.00  0.00    +0.000 C 
ATOM     21  C   UNL     1      36.482  11.555  35.422  0.00  0.00    +0.000 C 
ENDBRANCH  15  18
ENDBRANCH   8  12
TORSDOF 2
ENDMDL
MODEL 9
REMARK VINA RESULT:      -6.0     22.297     23.788
REMARK  Name = 
REMARK  2 active torsions:
REMARK  status: ('A' for Active; 'I' for Inactive)
REMARK    1  A    between atoms: C_8  and  C_9
REMARK    2  A    between atoms: C_12  and  C_13
REMARK                            x       y       z     vdW  Elec       q    Type
REMARK                         _______ _______ _______ _____ _____    ______ ____
ROOT
ATOM      1  C   UNL     1      19.274  -1.126  14.031  0.00  0.00    +0.000 C 
ATOM      2  C   UNL     1      19.866  -0.078  14.940  0.00  0.00    +0.000 A 
ATOM      3  C   UNL     1      19.146   0.523  15.941  0.00  0.00    +0.000 A 
ATOM      4  C   UNL     1      19.737   1.477  16.754  0.00  0.00    +0.000 A 
ATOM      5  N   UNL     1      18.938   2.072  17.767  0.00  0.00    +0.000 NA
ATOM      6  N   UNL     1      21.019   1.839  16.588  0.00  0.00    +0.000 N 
ATOM      7  N   UNL     1      21.802   2.720  17.237  0.00  0.00    +0.000 NA
ATOM      8  C   UNL     1      23.022   2.732  16.705  0.00  0.00    +0.000 A 
ATOM      9  C   UNL     1      22.990   1.803  15.669  0.00  0.00    +0.000 A 
ATOM     10  C   UNL     1      21.732   1.247  15.596  0.00  0.00    +0.000 A 
ATOM     11  N   UNL     1      21.151   0.322  14.810  0.00  0.00    +0.000 NA
ENDROOT
BRANCH   8  12
ATOM     12  C   UNL     1      24.220   3.514  17.057  0.00  0.00    +0.000 A 
ATOM     13  C   UNL     1      24.890   4.223  16.051  0.00  0.00    +0.000 A 
ATOM     14  C   UNL     1      26.010   4.978  16.308  0.00  0.00    +0.000 A 
ATOM     15  C   UNL     1      26.518   5.058  17.588  0.00  0.00    +0.000 A 
ATOM     16  C   UNL     1      25.848   4.355  18.558  0.00  0.00    +0.000 A 
ATOM     17  C   UNL     1      24.717   3.596  18.312  0.00  0.00    +0.000 A 
BRANCH  15  18
ATOM     18  C   UNL     1      27.742   5.886  17.860  0.00  0.00    +0.000 C 
ATOM     19  C   UNL     1      29.010   5.119  17.552  0.00  0.00    +0.000 C 
ATOM     20  C   UNL     1      27.720   7.083  16.905  0.00  0.00    +0.000 C 
ATOM     21  C   UNL     1      27.755   6.443  19.255  0.00  0.00    +0.000 C 
ENDBRANCH  15  18
ENDBRANCH   8  12
TORSDOF 2
ENDMDL
MODEL 10
REMARK VINA RESULT:      -5.9     18.905     21.972
REMARK  Name = 
REMARK  2 active torsions:
REMARK  status: ('A' for Active; 'I' for Inactive)
REMARK    1  A    between atoms: C_8  and  C_9
REMARK    2  A    between atoms: C_12  and  C_13
REMARK                            x       y       z     vdW  Elec       q    Type
REMARK                         _______ _______ _______ _____ _____    ______ ____
ROOT
ATOM      1  C   UNL     1      30.569  21.649  33.993  0.00  0.00    +0.000 C 
ATOM      2  C   UNL     1      30.828  21.792  32.513  0.00  0.00    +0.000 A 
ATOM      3  C   UNL     1      32.050  21.528  31.949  0.00  0.00    +0.000 A 
ATOM      4  C   UNL     1      32.236  21.668  30.583  0.00  0.00    +0.000 A 
ATOM      5  N   UNL     1      33.526  21.391  30.058  0.00  0.00    +0.000 NA
ATOM      6  N   UNL     1      31.236  22.063  29.779  0.00  0.00    +0.000 N 
ATOM      7  N   UNL     1      31.170  22.267  28.450  0.00  0.00    +0.000 NA
ATOM      8  C   UNL     1      29.946  22.660  28.105  0.00  0.00    +0.000 A 
ATOM      9  C   UNL     1      29.215  22.698  29.288  0.00  0.00    +0.000 A 
ATOM     10  C   UNL     1      30.027  22.328  30.337  0.00  0.00    +0.000 A 
ATOM     11  N   UNL     1      29.854  22.189  31.664  0.00  0.00    +0.000 NA
ENDROOT
BRANCH   8  12
ATOM     12  C   UNL     1      29.378  23.001  26.789  0.00  0.00    +0.000 A 
ATOM     13  C   UNL     1      28.004  23.254  26.686  0.00  0.00    +0.000 A 
ATOM     14  C   UNL     1      27.407  23.584  25.491  0.00  0.00    +0.000 A 
ATOM     15  C   UNL     1      28.158  23.674  24.338  0.00  0.00    +0.000 A 
ATOM     16  C   UNL     1      29.502  23.421  24.460  0.00  0.00    +0.000 A 
ATOM     17  C   UNL     1      30.114  23.092  25.658  0.00  0.00    +0.000 A 
BRANCH  15  18
ATOM     18  C   UNL     1      27.498  24.036  23.038  0.00  0.00    +0.000 C 
ATOM     19  C   UNL     1      26.134  23.393  22.910  0.00  0.00    +0.000 C 
ATOM     20  C   UNL     1      27.262  25.549  23.037  0.00  0.00    +0.000 C 
ATOM     21  C   UNL     1      28.368  23.731  21.852  0.00  0.00    +0.000 C 
ENDBRANCH  15  18
ENDBRANCH   8  12
TORSDOF 2
ENDMDL
