MODEL 1
REMARK VINA RESULT:      -9.0      0.000      0.000
REMARK  Name = 
REMARK  6 active torsions:
REMARK  status: ('A' for Active; 'I' for Inactive)
REMARK    1  A    between atoms: C_5  and  C_7
REMARK    2  A    between atoms: C_7  and  C_8
REMARK    3  A    between atoms: C_7  and  C_26
REMARK    4  A    between atoms: C_11  and  O_12
REMARK    5  A    between atoms: O_12  and  C_13
REMARK    6  A    between atoms: C_13  and  C_14
REMARK                            x       y       z     vdW  Elec       q    Type
REMARK                         _______ _______ _______ _____ _____    ______ ____
ROOT
ATOM      1  C   UNL     1      13.017  -0.488  27.640  0.00  0.00    +0.000 A 
ATOM      2  C   UNL     1      13.674  -0.034  28.748  0.00  0.00    +0.000 A 
ATOM      3  C   UNL     1      15.010   0.282  28.603  0.00  0.00    +0.000 A 
ATOM      4  C   UNL     1      15.656   0.145  27.394  0.00  0.00    +0.000 A 
ATOM      5  C   UNL     1      14.916  -0.327  26.305  0.00  0.00    +0.000 A 
ATOM      6  C   UNL     1      13.581  -0.644  26.444  0.00  0.00    +0.000 A 
ENDROOT
BRANCH   1   7
ATOM      7  C   UNL     1      11.455  -0.845  27.869  0.00  0.00    +0.000 C 
BRANCH   7   8
ATOM      8  C   UNL     1      10.866   0.036  26.599  0.00  0.00    +0.000 C 
ATOM      9  C   UNL     1      11.163   1.451  27.045  0.00  0.00    +0.000 C 
ATOM     10  C   UNL     1      10.588   2.371  25.997  0.00  0.00    +0.000 C 
ATOM     11  C   UNL     1       9.088   2.334  25.937  0.00  0.00    +0.000 C 
ATOM     12  C   UNL     1       8.642   1.452  24.773  0.00  0.00    +0.000 C 
ATOM     13  C   UNL     1       8.997   0.022  25.089  0.00  0.00    +0.000 C 
ATOM     14  C   UNL     1       9.441  -0.202  26.472  0.00  0.00    +0.000 C 
ENDBRANCH   7   8
BRANCH   7  19
ATOM     15  C   UNL     1      11.327  -3.823  23.694  0.00  0.00    +0.000 C 
ATOM     16  C   UNL     1      11.402  -3.646  25.163  0.00  0.00    +0.000 C 
ATOM     17  O   UNL     1      11.474  -4.688  25.859  0.00  0.00    +0.000 OA
ATOM     18  N   UNL     1      11.391  -2.355  25.763  0.00  0.00    +0.000 NA
ATOM     19  C   UNL     1      11.462  -2.277  27.119  0.00  0.00    +0.000 C 
ATOM     20  O   UNL     1      11.537  -3.218  27.941  0.00  0.00    +0.000 OA
ENDBRANCH   7  19
ENDBRANCH   1   7
BRANCH   4  21
ATOM     21  O   UNL     1      16.994   0.465  27.271  0.00  0.00    +0.000 OA
BRANCH  21  22
ATOM     22  C   UNL     1      18.010  -0.472  27.010  0.00  0.00    +0.000 C 
BRANCH  22  23
ATOM     23  C   UNL     1      18.679  -0.263  25.686  0.00  0.00    +0.000 A 
ATOM     24  C   UNL     1      18.972   0.995  25.216  0.00  0.00    +0.000 A 
ATOM     25  C   UNL     1      19.598   1.134  23.972  0.00  0.00    +0.000 A 
ATOM     26  C   UNL     1      19.923   0.036  23.216  0.00  0.00    +0.000 A 
ATOM     27  C   UNL     1      20.532   0.178  22.006  0.00  0.00    +0.000 A 
ATOM     28  C   UNL     1      20.859  -0.951  21.243  0.00  0.00    +0.000 A 
ATOM     29  C   UNL     1      20.548  -2.206  21.752  0.00  0.00    +0.000 A 
ATOM     30  C   UNL     1      19.932  -2.311  22.979  0.00  0.00    +0.000 A 
ATOM     31  C   UNL     1      19.618  -1.186  23.715  0.00  0.00    +0.000 A 
ATOM     32  N   UNL     1      19.011  -1.315  24.921  0.00  0.00    +0.000 NA
ENDBRANCH  22  23
ENDBRANCH  21  22
ENDBRANCH   4  21
TORSDOF 6
ENDMDL
MODEL 2
REMARK VINA RESULT:      -8.8     24.024     26.921
REMARK  Name = 
REMARK  6 active torsions:
REMARK  status: ('A' for Active; 'I' for Inactive)
REMARK    1  A    between atoms: C_5  and  C_7
REMARK    2  A    between atoms: C_7  and  C_8
REMARK    3  A    between atoms: C_7  and  C_26
REMARK    4  A    between atoms: C_11  and  O_12
REMARK    5  A    between atoms: O_12  and  C_13
REMARK    6  A    between atoms: C_13  and  C_14
REMARK                            x       y       z     vdW  Elec       q    Type
REMARK                         _______ _______ _______ _____ _____    ______ ____
ROOT
ATOM      1  C   UNL     1      36.917   0.875  14.491  0.00  0.00    +0.000 A 
ATOM      2  C   UNL     1      38.178   1.379  14.637  0.00  0.00    +0.000 A 
ATOM      3  C   UNL     1      38.289   2.703  15.009  0.00  0.00    +0.000 A 
ATOM      4  C   UNL     1      37.176   3.487  15.224  0.00  0.00    +0.000 A 
ATOM      5  C   UNL     1      35.918   2.901  15.053  0.00  0.00    +0.000 A 
ATOM      6  C   UNL     1      35.802   1.578  14.681  0.00  0.00    +0.000 A 
ENDROOT
BRANCH   1   7
ATOM      7  C   UNL     1      36.848  -0.680  14.050  0.00  0.00    +0.000 C 
BRANCH   7   8
ATOM      8  C   UNL     1      38.479  -0.961  14.078  0.00  0.00    +0.000 C 
ATOM      9  C   UNL     1      38.842  -0.796  12.618  0.00  0.00    +0.000 C 
ATOM     10  C   UNL     1      40.310  -1.116  12.492  0.00  0.00    +0.000 C 
ATOM     11  C   UNL     1      40.627  -2.559  12.766  0.00  0.00    +0.000 C 
ATOM     12  C   UNL     1      41.169  -2.703  14.186  0.00  0.00    +0.000 C 
ATOM     13  C   UNL     1      40.055  -2.416  15.160  0.00  0.00    +0.000 C 
ATOM     14  C   UNL     1      38.724  -2.312  14.544  0.00  0.00    +0.000 C 
ENDBRANCH   7   8
BRANCH   7  19
ATOM     15  C   UNL     1      37.597  -1.074  19.111  0.00  0.00    +0.000 C 
ATOM     16  C   UNL     1      36.891  -1.460  17.866  0.00  0.00    +0.000 C 
ATOM     17  O   UNL     1      35.984  -2.322  17.970  0.00  0.00    +0.000 OA
ATOM     18  N   UNL     1      37.222  -0.883  16.608  0.00  0.00    +0.000 NA
ATOM     19  C   UNL     1      36.527  -1.292  15.512  0.00  0.00    +0.000 C 
ATOM     20  O   UNL     1      35.604  -2.135  15.456  0.00  0.00    +0.000 OA
ENDBRANCH   7  19
ENDBRANCH   1   7
BRANCH   4  21
ATOM     21  O   UNL     1      37.308   4.812  15.594  0.00  0.00    +0.000 OA
BRANCH  21  22
ATOM     22  C   UNL     1      38.488   5.561  15.440  0.00  0.00    +0.000 C 
BRANCH  22  23
ATOM     23  C   UNL     1      39.218   5.783  16.728  0.00  0.00    +0.000 A 
ATOM     24  C   UNL     1      38.585   5.681  17.944  0.00  0.00    +0.000 A 
ATOM     25  C   UNL     1      39.314   5.898  19.118  0.00  0.00    +0.000 A 
ATOM     26  C   UNL     1      40.649   6.212  19.075  0.00  0.00    +0.000 A 
ATOM     27  C   UNL     1      41.354   6.423  20.221  0.00  0.00    +0.000 A 
ATOM     28  C   UNL     1      42.717   6.743  20.165  0.00  0.00    +0.000 A 
ATOM     29  C   UNL     1      43.322   6.838  18.918  0.00  0.00    +0.000 A 
ATOM     30  C   UNL     1      42.578   6.618  17.780  0.00  0.00    +0.000 A 
ATOM     31  C   UNL     1      41.236   6.304  17.858  0.00  0.00    +0.000 A 
ATOM     32  N   UNL     1      40.525   6.092  16.722  0.00  0.00    +0.000 NA
ENDBRANCH  22  23
ENDBRANCH  21  22
ENDBRANCH   4  21
TORSDOF 6
ENDMDL
MODEL 3
REMARK VINA RESULT:      -8.7     22.938     26.996
REMARK  Name = 
REMARK  6 active torsions:
REMARK  status: ('A' for Active; 'I' for Inactive)
REMARK    1  A    between atoms: C_5  and  C_7
REMARK    2  A    between atoms: C_7  and  C_8
REMARK    3  A    between atoms: C_7  and  C_26
REMARK    4  A    between atoms: C_11  and  O_12
REMARK    5  A    between atoms: O_12  and  C_13
REMARK    6  A    between atoms: C_13  and  C_14
REMARK                            x       y       z     vdW  Elec       q    Type
REMARK                         _______ _______ _______ _____ _____    ______ ____
ROOT
ATOM      1  C   UNL     1      39.704   5.612  18.160  0.00  0.00    +0.000 A 
ATOM      2  C   UNL     1      38.703   4.721  18.423  0.00  0.00    +0.000 A 
ATOM      3  C   UNL     1      38.112   4.099  17.341  0.00  0.00    +0.000 A 
ATOM      4  C   UNL     1      38.512   4.366  16.049  0.00  0.00    +0.000 A 
ATOM      5  C   UNL     1      39.542   5.292  15.860  0.00  0.00    +0.000 A 
ATOM      6  C   UNL     1      40.136   5.916  16.937  0.00  0.00    +0.000 A 
ENDROOT
BRANCH   1   7
ATOM      7  C   UNL     1      40.357   6.312  19.465  0.00  0.00    +0.000 C 
BRANCH   7   8
ATOM      8  C   UNL     1      41.328   7.374  18.649  0.00  0.00    +0.000 C 
ATOM      9  C   UNL     1      42.651   6.639  18.647  0.00  0.00    +0.000 C 
ATOM     10  C   UNL     1      43.660   7.552  17.998  0.00  0.00    +0.000 C 
ATOM     11  C   UNL     1      43.950   8.783  18.809  0.00  0.00    +0.000 C 
ATOM     12  C   UNL     1      43.171   9.967  18.241  0.00  0.00    +0.000 C 
ATOM     13  C   UNL     1      41.702   9.743  18.492  0.00  0.00    +0.000 C 
ATOM     14  C   UNL     1      41.405   8.618  19.391  0.00  0.00    +0.000 C 
ENDBRANCH   7   8
BRANCH   7  19
ATOM     15  C   UNL     1      36.470   9.344  18.043  0.00  0.00    +0.000 C 
ATOM     16  C   UNL     1      37.347   8.754  19.082  0.00  0.00    +0.000 C 
ATOM     17  O   UNL     1      37.127   9.091  20.271  0.00  0.00    +0.000 OA
ATOM     18  N   UNL     1      38.392   7.845  18.752  0.00  0.00    +0.000 NA
ATOM     19  C   UNL     1      39.153   7.348  19.764  0.00  0.00    +0.000 C 
ATOM     20  O   UNL     1      39.057   7.588  20.989  0.00  0.00    +0.000 OA
ENDBRANCH   7  19
ENDBRANCH   1   7
BRANCH   4  21
ATOM     21  O   UNL     1      37.906   3.734  14.981  0.00  0.00    +0.000 OA
BRANCH  21  22
ATOM     22  C   UNL     1      36.517   3.556  14.852  0.00  0.00    +0.000 C 
BRANCH  22  23
ATOM     23  C   UNL     1      36.031   2.268  15.441  0.00  0.00    +0.000 A 
ATOM     24  C   UNL     1      35.152   2.244  16.499  0.00  0.00    +0.000 A 
ATOM     25  C   UNL     1      34.729   1.013  17.011  0.00  0.00    +0.000 A 
ATOM     26  C   UNL     1      35.177  -0.169  16.477  0.00  0.00    +0.000 A 
ATOM     27  C   UNL     1      34.762  -1.364  16.981  0.00  0.00    +0.000 A 
ATOM     28  C   UNL     1      35.228  -2.565  16.427  0.00  0.00    +0.000 A 
ATOM     29  C   UNL     1      36.114  -2.500  15.360  0.00  0.00    +0.000 A 
ATOM     30  C   UNL     1      36.512  -1.273  14.876  0.00  0.00    +0.000 A 
ATOM     31  C   UNL     1      36.042  -0.102  15.437  0.00  0.00    +0.000 A 
ATOM     32  N   UNL     1      36.450   1.094  14.943  0.00  0.00    +0.000 NA
ENDBRANCH  22  23
ENDBRANCH  21  22
ENDBRANCH   4  21
TORSDOF 6
ENDMDL
MODEL 4
REMARK VINA RESULT:      -8.5     23.994     26.453
REMARK  Name = 
REMARK  6 active torsions:
REMARK  status: ('A' for Active; 'I' for Inactive)
REMARK    1  A    between atoms: C_5  and  C_7
REMARK    2  A    between atoms: C_7  and  C_8
REMARK    3  A    between atoms: C_7  and  C_26
REMARK    4  A    between atoms: C_11  and  O_12
REMARK    5  A    between atoms: O_12  and  C_13
REMARK    6  A    between atoms: C_13  and  C_14
REMARK                            x       y       z     vdW  Elec       q    Type
REMARK                         _______ _______ _______ _____ _____    ______ ____
ROOT
ATOM      1  C   UNL     1      36.871   0.798  14.478  0.00  0.00    +0.000 A 
ATOM      2  C   UNL     1      38.114   1.332  14.664  0.00  0.00    +0.000 A 
ATOM      3  C   UNL     1      38.181   2.666  15.011  0.00  0.00    +0.000 A 
ATOM      4  C   UNL     1      37.043   3.429  15.164  0.00  0.00    +0.000 A 
ATOM      5  C   UNL     1      35.806   2.811  14.956  0.00  0.00    +0.000 A 
ATOM      6  C   UNL     1      35.734   1.479  14.608  0.00  0.00    +0.000 A 
ENDROOT
BRANCH   1   7
ATOM      7  C   UNL     1      36.854  -0.768  14.069  0.00  0.00    +0.000 C 
BRANCH   7   8
ATOM      8  C   UNL     1      38.491  -1.000  14.123  0.00  0.00    +0.000 C 
ATOM      9  C   UNL     1      38.872  -0.829  12.668  0.00  0.00    +0.000 C 
ATOM     10  C   UNL     1      40.351  -1.105  12.567  0.00  0.00    +0.000 C 
ATOM     11  C   UNL     1      40.706  -2.537  12.851  0.00  0.00    +0.000 C 
ATOM     12  C   UNL     1      41.230  -2.661  14.280  0.00  0.00    +0.000 C 
ATOM     13  C   UNL     1      40.093  -2.405  15.235  0.00  0.00    +0.000 C 
ATOM     14  C   UNL     1      38.769  -2.341  14.598  0.00  0.00    +0.000 C 
ENDBRANCH   7   8
BRANCH   7  19
ATOM     15  C   UNL     1      37.557  -1.050  19.143  0.00  0.00    +0.000 C 
ATOM     16  C   UNL     1      36.873  -1.475  17.899  0.00  0.00    +0.000 C 
ATOM     17  O   UNL     1      35.984  -2.355  18.010  0.00  0.00    +0.000 OA
ATOM     18  N   UNL     1      37.204  -0.915  16.633  0.00  0.00    +0.000 NA
ATOM     19  C   UNL     1      36.531  -1.359  15.539  0.00  0.00    +0.000 C 
ATOM     20  O   UNL     1      35.627  -2.224  15.489  0.00  0.00    +0.000 OA
ENDBRANCH   7  19
ENDBRANCH   1   7
BRANCH   4  21
ATOM     21  O   UNL     1      37.133   4.763  15.511  0.00  0.00    +0.000 OA
BRANCH  21  22
ATOM     22  C   UNL     1      38.342   5.473  15.617  0.00  0.00    +0.000 C 
BRANCH  22  23
ATOM     23  C   UNL     1      38.554   6.078  16.970  0.00  0.00    +0.000 A 
ATOM     24  C   UNL     1      39.258   5.422  17.952  0.00  0.00    +0.000 A 
ATOM     25  C   UNL     1      39.427   6.033  19.199  0.00  0.00    +0.000 A 
ATOM     26  C   UNL     1      38.902   7.274  19.458  0.00  0.00    +0.000 A 
ATOM     27  C   UNL     1      39.069   7.864  20.675  0.00  0.00    +0.000 A 
ATOM     28  C   UNL     1      38.527   9.131  20.927  0.00  0.00    +0.000 A 
ATOM     29  C   UNL     1      37.822   9.762  19.910  0.00  0.00    +0.000 A 
ATOM     30  C   UNL     1      37.672   9.136  18.692  0.00  0.00    +0.000 A 
ATOM     31  C   UNL     1      38.214   7.887  18.465  0.00  0.00    +0.000 A 
ATOM     32  N   UNL     1      38.053   7.291  17.257  0.00  0.00    +0.000 NA
ENDBRANCH  22  23
ENDBRANCH  21  22
ENDBRANCH   4  21
TORSDOF 6
ENDMDL
MODEL 5
REMARK VINA RESULT:      -8.5      2.284      3.716
REMARK  Name = 
REMARK  6 active torsions:
REMARK  status: ('A' for Active; 'I' for Inactive)
REMARK    1  A    between atoms: C_5  and  C_7
REMARK    2  A    between atoms: C_7  and  C_8
REMARK    3  A    between atoms: C_7  and  C_26
REMARK    4  A    between atoms: C_11  and  O_12
REMARK    5  A    between atoms: O_12  and  C_13
REMARK    6  A    between atoms: C_13  and  C_14
REMARK                            x       y       z     vdW  Elec       q    Type
REMARK                         _______ _______ _______ _____ _____    ______ ____
ROOT
ATOM      1  C   UNL     1      12.965  -0.431  27.449  0.00  0.00    +0.000 A 
ATOM      2  C   UNL     1      13.628  -0.761  26.301  0.00  0.00    +0.000 A 
ATOM      3  C   UNL     1      14.991  -0.548  26.278  0.00  0.00    +0.000 A 
ATOM      4  C   UNL     1      15.658  -0.023  27.364  0.00  0.00    +0.000 A 
ATOM      5  C   UNL     1      14.909   0.291  28.503  0.00  0.00    +0.000 A 
ATOM      6  C   UNL     1      13.547   0.080  28.532  0.00  0.00    +0.000 A 
ENDROOT
BRANCH   1   7
ATOM      7  C   UNL     1      11.369  -0.699  27.417  0.00  0.00    +0.000 C 
BRANCH   7   8
ATOM      8  C   UNL     1      11.065  -0.241  28.977  0.00  0.00    +0.000 C 
ATOM      9  C   UNL     1      11.261  -1.543  29.723  0.00  0.00    +0.000 C 
ATOM     10  C   UNL     1      10.924  -1.277  31.168  0.00  0.00    +0.000 C 
ATOM     11  C   UNL     1       9.470  -0.968  31.389  0.00  0.00    +0.000 C 
ATOM     12  C   UNL     1       9.282   0.541  31.527  0.00  0.00    +0.000 C 
ATOM     13  C   UNL     1       9.560   1.185  30.193  0.00  0.00    +0.000 C 
ATOM     14  C   UNL     1       9.699   0.237  29.078  0.00  0.00    +0.000 C 
ENDBRANCH   7   8
BRANCH   7  19
ATOM     15  C   UNL     1      11.760   4.367  26.710  0.00  0.00    +0.000 C 
ATOM     16  C   UNL     1      11.140   3.056  26.409  0.00  0.00    +0.000 C 
ATOM     17  O   UNL     1      10.220   3.044  25.553  0.00  0.00    +0.000 OA
ATOM     18  N   UNL     1      11.562   1.860  27.055  0.00  0.00    +0.000 NA
ATOM     19  C   UNL     1      10.941   0.697  26.724  0.00  0.00    +0.000 C 
ATOM     20  O   UNL     1      10.016   0.526  25.897  0.00  0.00    +0.000 OA
ENDBRANCH   7  19
ENDBRANCH   1   7
BRANCH   4  21
ATOM     21  O   UNL     1      17.023   0.184  27.320  0.00  0.00    +0.000 OA
BRANCH  21  22
ATOM     22  C   UNL     1      17.956  -0.783  26.906  0.00  0.00    +0.000 C 
BRANCH  22  23
ATOM     23  C   UNL     1      18.661  -0.418  25.637  0.00  0.00    +0.000 A 
ATOM     24  C   UNL     1      18.919   0.892  25.305  0.00  0.00    +0.000 A 
ATOM     25  C   UNL     1      19.581   1.178  24.107  0.00  0.00    +0.000 A 
ATOM     26  C   UNL     1      19.976   0.175  23.258  0.00  0.00    +0.000 A 
ATOM     27  C   UNL     1      20.619   0.460  22.091  0.00  0.00    +0.000 A 
ATOM     28  C   UNL     1      21.017  -0.574  21.232  0.00  0.00    +0.000 A 
ATOM     29  C   UNL     1      20.738  -1.883  21.601  0.00  0.00    +0.000 A 
ATOM     30  C   UNL     1      20.085  -2.134  22.788  0.00  0.00    +0.000 A 
ATOM     31  C   UNL     1      19.702  -1.102  23.620  0.00  0.00    +0.000 A 
ATOM     32  N   UNL     1      19.060  -1.374  24.783  0.00  0.00    +0.000 NA
ENDBRANCH  22  23
ENDBRANCH  21  22
ENDBRANCH   4  21
TORSDOF 6
ENDMDL
MODEL 6
REMARK VINA RESULT:      -8.5     26.009     28.161
REMARK  Name = 
REMARK  6 active torsions:
REMARK  status: ('A' for Active; 'I' for Inactive)
REMARK    1  A    between atoms: C_5  and  C_7
REMARK    2  A    between atoms: C_7  and  C_8
REMARK    3  A    between atoms: C_7  and  C_26
REMARK    4  A    between atoms: C_11  and  O_12
REMARK    5  A    between atoms: O_12  and  C_13
REMARK    6  A    between atoms: C_13  and  C_14
REMARK                            x       y       z     vdW  Elec       q    Type
REMARK                         _______ _______ _______ _____ _____    ______ ____
ROOT
ATOM      1  C   UNL     1      39.881   5.812  18.264  0.00  0.00    +0.000 A 
ATOM      2  C   UNL     1      38.832   4.952  18.421  0.00  0.00    +0.000 A 
ATOM      3  C   UNL     1      38.312   4.378  17.278  0.00  0.00    +0.000 A 
ATOM      4  C   UNL     1      38.826   4.660  16.031  0.00  0.00    +0.000 A 
ATOM      5  C   UNL     1      39.900   5.553  15.952  0.00  0.00    +0.000 A 
ATOM      6  C   UNL     1      40.424   6.129  17.090  0.00  0.00    +0.000 A 
ENDROOT
BRANCH   1   7
ATOM      7  C   UNL     1      40.447   6.456  19.637  0.00  0.00    +0.000 C 
BRANCH   7   8
ATOM      8  C   UNL     1      41.588   7.430  18.937  0.00  0.00    +0.000 C 
ATOM      9  C   UNL     1      42.778   6.499  18.857  0.00  0.00    +0.000 C 
ATOM     10  C   UNL     1      43.929   7.303  18.308  0.00  0.00    +0.000 C 
ATOM     11  C   UNL     1      44.396   8.381  19.244  0.00  0.00    +0.000 C 
ATOM     12  C   UNL     1      43.823   9.726  18.803  0.00  0.00    +0.000 C 
ATOM     13  C   UNL     1      42.333   9.713  19.030  0.00  0.00    +0.000 C 
ATOM     14  C   UNL     1      41.848   8.562  19.806  0.00  0.00    +0.000 C 
ENDBRANCH   7   8
BRANCH   7  19
ATOM     15  C   UNL     1      37.412  10.202  17.881  0.00  0.00    +0.000 C 
ATOM     16  C   UNL     1      37.906   9.333  18.975  0.00  0.00    +0.000 C 
ATOM     17  O   UNL     1      37.397   9.503  20.110  0.00  0.00    +0.000 OA
ATOM     18  N   UNL     1      38.911   8.349  18.755  0.00  0.00    +0.000 NA
ATOM     19  C   UNL     1      39.311   7.593  19.812  0.00  0.00    +0.000 C 
ATOM     20  O   UNL     1      38.902   7.644  20.994  0.00  0.00    +0.000 OA
ENDBRANCH   7  19
ENDBRANCH   1   7
BRANCH   4  21
ATOM     21  O   UNL     1      38.290   4.077  14.900  0.00  0.00    +0.000 OA
BRANCH  21  22
ATOM     22  C   UNL     1      37.628   2.836  14.889  0.00  0.00    +0.000 C 
BRANCH  22  23
ATOM     23  C   UNL     1      38.560   1.671  14.767  0.00  0.00    +0.000 A 
ATOM     24  C   UNL     1      39.746   1.764  14.076  0.00  0.00    +0.000 A 
ATOM     25  C   UNL     1      40.581   0.645  13.993  0.00  0.00    +0.000 A 
ATOM     26  C   UNL     1      40.236  -0.542  14.589  0.00  0.00    +0.000 A 
ATOM     27  C   UNL     1      41.054  -1.629  14.505  0.00  0.00    +0.000 A 
ATOM     28  C   UNL     1      40.691  -2.836  15.117  0.00  0.00    +0.000 A 
ATOM     29  C   UNL     1      39.486  -2.891  15.806  0.00  0.00    +0.000 A 
ATOM     30  C   UNL     1      38.685  -1.772  15.871  0.00  0.00    +0.000 A 
ATOM     31  C   UNL     1      39.061  -0.593  15.260  0.00  0.00    +0.000 A 
ATOM     32  N   UNL     1      38.254   0.495  15.338  0.00  0.00    +0.000 NA
ENDBRANCH  22  23
ENDBRANCH  21  22
ENDBRANCH   4  21
TORSDOF 6
ENDMDL
MODEL 7
REMARK VINA RESULT:      -8.3      2.748      4.633
REMARK  Name = 
REMARK  6 active torsions:
REMARK  status: ('A' for Active; 'I' for Inactive)
REMARK    1  A    between atoms: C_5  and  C_7
REMARK    2  A    between atoms: C_7  and  C_8
REMARK    3  A    between atoms: C_7  and  C_26
REMARK    4  A    between atoms: C_11  and  O_12
REMARK    5  A    between atoms: O_12  and  C_13
REMARK    6  A    between atoms: C_13  and  C_14
REMARK                            x       y       z     vdW  Elec       q    Type
REMARK                         _______ _______ _______ _____ _____    ______ ____
ROOT
ATOM      1  C   UNL     1      12.795  -0.387  28.500  0.00  0.00    +0.000 A 
ATOM      2  C   UNL     1      13.837   0.490  28.607  0.00  0.00    +0.000 A 
ATOM      3  C   UNL     1      14.857   0.372  27.684  0.00  0.00    +0.000 A 
ATOM      4  C   UNL     1      14.829  -0.589  26.697  0.00  0.00    +0.000 A 
ATOM      5  C   UNL     1      13.729  -1.452  26.653  0.00  0.00    +0.000 A 
ATOM      6  C   UNL     1      12.707  -1.338  27.572  0.00  0.00    +0.000 A 
ENDROOT
BRANCH   1   7
ATOM      7  C   UNL     1      11.631  -0.203  29.609  0.00  0.00    +0.000 C 
BRANCH   7   8
ATOM      8  C   UNL     1      12.559   0.575  30.736  0.00  0.00    +0.000 C 
ATOM      9  C   UNL     1      13.379  -0.566  31.298  0.00  0.00    +0.000 C 
ATOM     10  C   UNL     1      14.218   0.004  32.414  0.00  0.00    +0.000 C 
ATOM     11  C   UNL     1      13.405   0.459  33.592  0.00  0.00    +0.000 C 
ATOM     12  C   UNL     1      13.233   1.975  33.542  0.00  0.00    +0.000 C 
ATOM     13  C   UNL     1      12.347   2.321  32.373  0.00  0.00    +0.000 C 
ATOM     14  C   UNL     1      11.696   1.164  31.742  0.00  0.00    +0.000 C 
ENDBRANCH   7   8
BRANCH   7  19
ATOM     15  C   UNL     1      11.814   4.342  27.236  0.00  0.00    +0.000 C 
ATOM     16  C   UNL     1      11.060   3.235  27.870  0.00  0.00    +0.000 C 
ATOM     17  O   UNL     1       9.810   3.347  27.910  0.00  0.00    +0.000 OA
ATOM     18  N   UNL     1      11.717   2.094  28.410  0.00  0.00    +0.000 NA
ATOM     19  C   UNL     1      10.953   1.121  28.976  0.00  0.00    +0.000 C 
ATOM     20  O   UNL     1       9.707   1.090  29.090  0.00  0.00    +0.000 OA
ENDBRANCH   7  19
ENDBRANCH   1   7
BRANCH   4  21
ATOM     21  O   UNL     1      15.861  -0.692  25.785  0.00  0.00    +0.000 OA
BRANCH  21  22
ATOM     22  C   UNL     1      17.183  -1.032  26.122  0.00  0.00    +0.000 C 
BRANCH  22  23
ATOM     23  C   UNL     1      18.195  -0.496  25.157  0.00  0.00    +0.000 A 
ATOM     24  C   UNL     1      18.543   0.835  25.141  0.00  0.00    +0.000 A 
ATOM     25  C   UNL     1      19.494   1.283  24.219  0.00  0.00    +0.000 A 
ATOM     26  C   UNL     1      20.084   0.418  23.331  0.00  0.00    +0.000 A 
ATOM     27  C   UNL     1      21.009   0.862  22.435  0.00  0.00    +0.000 A 
ATOM     28  C   UNL     1      21.604  -0.031  21.533  0.00  0.00    +0.000 A 
ATOM     29  C   UNL     1      21.227  -1.367  21.580  0.00  0.00    +0.000 A 
ATOM     30  C   UNL     1      20.288  -1.780  22.500  0.00  0.00    +0.000 A 
ATOM     31  C   UNL     1      19.714  -0.884  23.379  0.00  0.00    +0.000 A 
ATOM     32  N   UNL     1      18.791  -1.314  24.275  0.00  0.00    +0.000 NA
ENDBRANCH  22  23
ENDBRANCH  21  22
ENDBRANCH   4  21
TORSDOF 6
ENDMDL
MODEL 8
REMARK VINA RESULT:      -8.1      2.514      4.453
REMARK  Name = 
REMARK  6 active torsions:
REMARK  status: ('A' for Active; 'I' for Inactive)
REMARK    1  A    between atoms: C_5  and  C_7
REMARK    2  A    between atoms: C_7  and  C_8
REMARK    3  A    between atoms: C_7  and  C_26
REMARK    4  A    between atoms: C_11  and  O_12
REMARK    5  A    between atoms: O_12  and  C_13
REMARK    6  A    between atoms: C_13  and  C_14
REMARK                            x       y       z     vdW  Elec       q    Type
REMARK                         _______ _______ _______ _____ _____    ______ ____
ROOT
ATOM      1  C   UNL     1      13.140  -0.304  27.488  0.00  0.00    +0.000 A 
ATOM      2  C   UNL     1      14.115  -1.137  27.016  0.00  0.00    +0.000 A 
ATOM      3  C   UNL     1      15.305  -0.557  26.625  0.00  0.00    +0.000 A 
ATOM      4  C   UNL     1      15.504   0.804  26.705  0.00  0.00    +0.000 A 
ATOM      5  C   UNL     1      14.458   1.592  27.197  0.00  0.00    +0.000 A 
ATOM      6  C   UNL     1      13.267   1.017  27.589  0.00  0.00    +0.000 A 
ENDROOT
BRANCH   1   7
ATOM      7  C   UNL     1      11.767  -1.039  27.928  0.00  0.00    +0.000 C 
BRANCH   7   8
ATOM      8  C   UNL     1      12.390  -2.568  28.031  0.00  0.00    +0.000 C 
ATOM      9  C   UNL     1      12.035  -3.136  26.674  0.00  0.00    +0.000 C 
ATOM     10  C   UNL     1      12.478  -4.577  26.671  0.00  0.00    +0.000 C 
ATOM     11  C   UNL     1      11.697  -5.438  27.622  0.00  0.00    +0.000 C 
ATOM     12  C   UNL     1      12.503  -5.653  28.900  0.00  0.00    +0.000 C 
ATOM     13  C   UNL     1      12.596  -4.343  29.638  0.00  0.00    +0.000 C 
ATOM     14  C   UNL     1      11.727  -3.283  29.104  0.00  0.00    +0.000 C 
ENDBRANCH   7   8
BRANCH   7  19
ATOM     15  C   UNL     1      14.253  -0.615  32.396  0.00  0.00    +0.000 C 
ATOM     16  C   UNL     1      13.024  -0.503  31.575  0.00  0.00    +0.000 C 
ATOM     17  O   UNL     1      11.983  -0.114  32.159  0.00  0.00    +0.000 OA
ATOM     18  N   UNL     1      13.018  -0.822  30.188  0.00  0.00    +0.000 NA
ATOM     19  C   UNL     1      11.849  -0.695  29.505  0.00  0.00    +0.000 C 
ATOM     20  O   UNL     1      10.737  -0.322  29.944  0.00  0.00    +0.000 OA
ENDBRANCH   7  19
ENDBRANCH   1   7
BRANCH   4  21
ATOM     21  O   UNL     1      16.702   1.365  26.307  0.00  0.00    +0.000 OA
BRANCH  21  22
ATOM     22  C   UNL     1      17.966   0.855  26.651  0.00  0.00    +0.000 C 
BRANCH  22  23
ATOM     23  C   UNL     1      18.618   0.094  25.538  0.00  0.00    +0.000 A 
ATOM     24  C   UNL     1      18.655  -1.281  25.528  0.00  0.00    +0.000 A 
ATOM     25  C   UNL     1      19.276  -1.943  24.464  0.00  0.00    +0.000 A 
ATOM     26  C   UNL     1      19.849  -1.243  23.432  0.00  0.00    +0.000 A 
ATOM     27  C   UNL     1      20.454  -1.893  22.399  0.00  0.00    +0.000 A 
ATOM     28  C   UNL     1      21.035  -1.167  21.350  0.00  0.00    +0.000 A 
ATOM     29  C   UNL     1      20.978   0.220  21.395  0.00  0.00    +0.000 A 
ATOM     30  C   UNL     1      20.359   0.843  22.456  0.00  0.00    +0.000 A 
ATOM     31  C   UNL     1      19.792   0.109  23.479  0.00  0.00    +0.000 A 
ATOM     32  N   UNL     1      19.189   0.747  24.513  0.00  0.00    +0.000 NA
ENDBRANCH  22  23
ENDBRANCH  21  22
ENDBRANCH   4  21
TORSDOF 6
ENDMDL
MODEL 9
REMARK VINA RESULT:      -8.1      2.176      3.001
REMARK  Name = 
REMARK  6 active torsions:
REMARK  status: ('A' for Active; 'I' for Inactive)
REMARK    1  A    between atoms: C_5  and  C_7
REMARK    2  A    between atoms: C_7  and  C_8
REMARK    3  A    between atoms: C_7  and  C_26
REMARK    4  A    between atoms: C_11  and  O_12
REMARK    5  A    between atoms: O_12  and  C_13
REMARK    6  A    between atoms: C_13  and  C_14
REMARK                            x       y       z     vdW  Elec       q    Type
REMARK                         _______ _______ _______ _____ _____    ______ ____
ROOT
ATOM      1  C   UNL     1      12.587   1.255  27.293  0.00  0.00    +0.000 A 
ATOM      2  C   UNL     1      13.836   1.713  27.603  0.00  0.00    +0.000 A 
ATOM      3  C   UNL     1      14.908   0.944  27.197  0.00  0.00    +0.000 A 
ATOM      4  C   UNL     1      14.728  -0.237  26.508  0.00  0.00    +0.000 A 
ATOM      5  C   UNL     1      13.419  -0.640  26.228  0.00  0.00    +0.000 A 
ATOM      6  C   UNL     1      12.344   0.125  26.632  0.00  0.00    +0.000 A 
ENDROOT
BRANCH   1   7
ATOM      7  C   UNL     1      11.370   2.196  27.797  0.00  0.00    +0.000 C 
BRANCH   7   8
ATOM      8  C   UNL     1      10.168   1.416  26.970  0.00  0.00    +0.000 C 
ATOM      9  C   UNL     1      10.064   2.256  25.716  0.00  0.00    +0.000 C 
ATOM     10  C   UNL     1       8.925   1.693  24.903  0.00  0.00    +0.000 C 
ATOM     11  C   UNL     1       7.585   1.878  25.556  0.00  0.00    +0.000 C 
ATOM     12  C   UNL     1       7.161   0.577  26.233  0.00  0.00    +0.000 C 
ATOM     13  C   UNL     1       8.071   0.327  27.409  0.00  0.00    +0.000 C 
ATOM     14  C   UNL     1       8.946   1.458  27.750  0.00  0.00    +0.000 C 
ENDBRANCH   7   8
BRANCH   7  19
ATOM     15  C   UNL     1      10.937  -1.938  30.805  0.00  0.00    +0.000 C 
ATOM     16  C   UNL     1      10.928  -0.470  30.602  0.00  0.00    +0.000 C 
ATOM     17  O   UNL     1      10.714   0.243  31.613  0.00  0.00    +0.000 OA
ATOM     18  N   UNL     1      11.151   0.111  29.322  0.00  0.00    +0.000 NA
ATOM     19  C   UNL     1      11.125   1.467  29.219  0.00  0.00    +0.000 C 
ATOM     20  O   UNL     1      10.926   2.304  30.127  0.00  0.00    +0.000 OA
ENDBRANCH   7  19
ENDBRANCH   1   7
BRANCH   4  21
ATOM     21  O   UNL     1      15.814  -0.993  26.112  0.00  0.00    +0.000 OA
BRANCH  21  22
ATOM     22  C   UNL     1      17.126  -0.799  26.582  0.00  0.00    +0.000 C 
BRANCH  22  23
ATOM     23  C   UNL     1      18.092  -0.433  25.499  0.00  0.00    +0.000 A 
ATOM     24  C   UNL     1      18.498   0.867  25.302  0.00  0.00    +0.000 A 
ATOM     25  C   UNL     1      19.403   1.154  24.275  0.00  0.00    +0.000 A 
ATOM     26  C   UNL     1      19.893   0.162  23.463  0.00  0.00    +0.000 A 
ATOM     27  C   UNL     1      20.774   0.449  22.465  0.00  0.00    +0.000 A 
ATOM     28  C   UNL     1      21.266  -0.573  21.642  0.00  0.00    +0.000 A 
ATOM     29  C   UNL     1      20.834  -1.873  21.871  0.00  0.00    +0.000 A 
ATOM     30  C   UNL     1      19.942  -2.126  22.890  0.00  0.00    +0.000 A 
ATOM     31  C   UNL     1      19.469  -1.104  23.690  0.00  0.00    +0.000 A 
ATOM     32  N   UNL     1      18.590  -1.378  24.686  0.00  0.00    +0.000 NA
ENDBRANCH  22  23
ENDBRANCH  21  22
ENDBRANCH   4  21
TORSDOF 6
ENDMDL
MODEL 10
REMARK VINA RESULT:      -7.9     22.366     26.119
REMARK  Name = 
REMARK  6 active torsions:
REMARK  status: ('A' for Active; 'I' for Inactive)
REMARK    1  A    between atoms: C_5  and  C_7
REMARK    2  A    between atoms: C_7  and  C_8
REMARK    3  A    between atoms: C_7  and  C_26
REMARK    4  A    between atoms: C_11  and  O_12
REMARK    5  A    between atoms: O_12  and  C_13
REMARK    6  A    between atoms: C_13  and  C_14
REMARK                            x       y       z     vdW  Elec       q    Type
REMARK                         _______ _______ _______ _____ _____    ______ ____
ROOT
ATOM      1  C   UNL     1      38.470  -2.854  15.481  0.00  0.00    +0.000 A 
ATOM      2  C   UNL     1      39.809  -2.714  15.711  0.00  0.00    +0.000 A 
ATOM      3  C   UNL     1      40.636  -2.661  14.607  0.00  0.00    +0.000 A 
ATOM      4  C   UNL     1      40.134  -2.746  13.326  0.00  0.00    +0.000 A 
ATOM      5  C   UNL     1      38.751  -2.889  13.172  0.00  0.00    +0.000 A 
ATOM      6  C   UNL     1      37.921  -2.943  14.272  0.00  0.00    +0.000 A 
ENDROOT
BRANCH   1   7
ATOM      7  C   UNL     1      37.551  -2.913  16.812  0.00  0.00    +0.000 C 
BRANCH   7   8
ATOM      8  C   UNL     1      36.553  -1.655  16.415  0.00  0.00    +0.000 C 
ATOM      9  C   UNL     1      37.545  -0.616  15.940  0.00  0.00    +0.000 C 
ATOM     10  C   UNL     1      36.758   0.631  15.624  0.00  0.00    +0.000 C 
ATOM     11  C   UNL     1      36.147   1.267  16.840  0.00  0.00    +0.000 C 
ATOM     12  C   UNL     1      34.670   0.890  16.928  0.00  0.00    +0.000 C 
ATOM     13  C   UNL     1      34.566  -0.581  17.235  0.00  0.00    +0.000 C 
ATOM     14  C   UNL     1      35.841  -1.217  17.599  0.00  0.00    +0.000 C 
ENDBRANCH   7   8
BRANCH   7  19
ATOM     15  C   UNL     1      33.312  -4.689  14.531  0.00  0.00    +0.000 C 
ATOM     16  C   UNL     1      34.585  -4.903  15.258  0.00  0.00    +0.000 C 
ATOM     17  O   UNL     1      34.906  -6.092  15.505  0.00  0.00    +0.000 OA
ATOM     18  N   UNL     1      35.411  -3.816  15.661  0.00  0.00    +0.000 NA
ATOM     19  C   UNL     1      36.564  -4.098  16.325  0.00  0.00    +0.000 C 
ATOM     20  O   UNL     1      37.015  -5.221  16.642  0.00  0.00    +0.000 OA
ENDBRANCH   7  19
ENDBRANCH   1   7
BRANCH   4  21
ATOM     21  O   UNL     1      40.979  -2.692  12.234  0.00  0.00    +0.000 OA
BRANCH  21  22
ATOM     22  C   UNL     1      41.371  -1.502  11.597  0.00  0.00    +0.000 C 
BRANCH  22  23
ATOM     23  C   UNL     1      40.408  -0.375  11.807  0.00  0.00    +0.000 A 
ATOM     24  C   UNL     1      39.393  -0.117  10.916  0.00  0.00    +0.000 A 
ATOM     25  C   UNL     1      38.521   0.949  11.160  0.00  0.00    +0.000 A 
ATOM     26  C   UNL     1      38.662   1.740  12.273  0.00  0.00    +0.000 A 
ATOM     27  C   UNL     1      37.810   2.777  12.505  0.00  0.00    +0.000 A 
ATOM     28  C   UNL     1      37.965   3.577  13.645  0.00  0.00    +0.000 A 
ATOM     29  C   UNL     1      39.002   3.286  14.522  0.00  0.00    +0.000 A 
ATOM     30  C   UNL     1      39.845   2.229  14.254  0.00  0.00    +0.000 A 
ATOM     31  C   UNL     1      39.675   1.453  13.126  0.00  0.00    +0.000 A 
ATOM     32  N   UNL     1      40.518   0.419  12.884  0.00  0.00    +0.000 NA
ENDBRANCH  22  23
ENDBRANCH  21  22
ENDBRANCH   4  21
TORSDOF 6
ENDMDL
