MODEL 1
REMARK VINA RESULT:      -7.9      0.000      0.000
REMARK  Name = 
REMARK  2 active torsions:
REMARK  status: ('A' for Active; 'I' for Inactive)
REMARK    1  A    between atoms: C_2  and  C_17
REMARK    2  A    between atoms: N_3  and  C_4
REMARK                            x       y       z     vdW  Elec       q    Type
REMARK                         _______ _______ _______ _____ _____    ______ ____
ROOT
ATOM      1  C   UNL     1      14.482  12.181  36.032  0.00  0.00    +0.000 A 
ATOM      2  C   UNL     1      13.205  12.125  36.549  0.00  0.00    +0.000 A 
ATOM      3  C   UNL     1      12.921  11.533  37.762  0.00  0.00    +0.000 A 
ATOM      4  C   UNL     1      13.923  10.963  38.518  0.00  0.00    +0.000 A 
ATOM      5  N   UNL     1      13.952  10.326  39.714  0.00  0.00    +0.000 NA
ATOM      6  C   UNL     1      15.208   9.953  40.014  0.00  0.00    +0.000 A 
ATOM      7  C   UNL     1      15.995  10.372  38.967  0.00  0.00    +0.000 A 
ATOM      8  C   UNL     1      15.207  11.008  38.019  0.00  0.00    +0.000 A 
ATOM      9  C   UNL     1      15.480  11.608  36.794  0.00  0.00    +0.000 A 
ATOM     10  C   UNL     1      17.479  10.140  38.928  0.00  0.00    +0.000 C 
ATOM     11  C   UNL     1      17.775   9.013  39.895  0.00  0.00    +0.000 C 
ATOM     12  C   UNL     1      17.227   9.447  41.261  0.00  0.00    +0.000 C 
ATOM     13  C   UNL     1      15.739   9.234  41.205  0.00  0.00    +0.000 C 
ENDROOT
BRANCH   1  16
ATOM     14  O   UNL     1      14.903  10.744  33.781  0.00  0.00    +0.000 OA
ATOM     15  C   UNL     1      14.961  11.990  33.627  0.00  0.00    +0.000 C 
ATOM     16  N   UNL     1      14.748  12.801  34.773  0.00  0.00    +0.000 NA
BRANCH  15  17
ATOM     17  C   UNL     1      15.237  12.543  32.313  0.00  0.00    +0.000 A 
ATOM     18  C   UNL     1      14.414  13.304  31.529  0.00  0.00    +0.000 A 
ATOM     19  C   UNL     1      15.088  13.608  30.362  0.00  0.00    +0.000 A 
ATOM     20  C   UNL     1      16.321  12.991  30.514  0.00  0.00    +0.000 A 
ATOM     21  O   UNL     1      16.358  12.385  31.667  0.00  0.00    +0.000 OA
ENDBRANCH  15  17
ENDBRANCH   1  16
TORSDOF 2
ENDMDL
MODEL 2
REMARK VINA RESULT:      -7.8      2.563      7.428
REMARK  Name = 
REMARK  2 active torsions:
REMARK  status: ('A' for Active; 'I' for Inactive)
REMARK    1  A    between atoms: C_2  and  C_17
REMARK    2  A    between atoms: N_3  and  C_4
REMARK                            x       y       z     vdW  Elec       q    Type
REMARK                         _______ _______ _______ _____ _____    ______ ____
ROOT
ATOM      1  C   UNL     1      15.902  11.189  36.550  0.00  0.00    +0.000 A 
ATOM      2  C   UNL     1      14.964  12.012  37.136  0.00  0.00    +0.000 A 
ATOM      3  C   UNL     1      14.175  12.876  36.406  0.00  0.00    +0.000 A 
ATOM      4  C   UNL     1      14.297  12.952  35.035  0.00  0.00    +0.000 A 
ATOM      5  N   UNL     1      13.680  13.683  34.075  0.00  0.00    +0.000 NA
ATOM      6  C   UNL     1      14.175  13.376  32.864  0.00  0.00    +0.000 A 
ATOM      7  C   UNL     1      15.138  12.416  33.073  0.00  0.00    +0.000 A 
ATOM      8  C   UNL     1      15.229  12.137  34.429  0.00  0.00    +0.000 A 
ATOM      9  C   UNL     1      16.018  11.269  35.177  0.00  0.00    +0.000 A 
ATOM     10  C   UNL     1      15.930  11.809  31.950  0.00  0.00    +0.000 C 
ATOM     11  C   UNL     1      15.833  12.760  30.776  0.00  0.00    +0.000 C 
ATOM     12  C   UNL     1      14.338  12.946  30.481  0.00  0.00    +0.000 C 
ATOM     13  C   UNL     1      13.821  13.906  31.518  0.00  0.00    +0.000 C 
ENDROOT
BRANCH   1  16
ATOM     14  O   UNL     1      18.298  11.931  37.557  0.00  0.00    +0.000 OA
ATOM     15  C   UNL     1      17.956  10.753  37.830  0.00  0.00    +0.000 C 
ATOM     16  N   UNL     1      16.706  10.303  37.330  0.00  0.00    +0.000 NA
BRANCH  15  17
ATOM     17  C   UNL     1      18.830   9.914  38.630  0.00  0.00    +0.000 A 
ATOM     18  C   UNL     1      18.553   8.693  39.182  0.00  0.00    +0.000 A 
ATOM     19  C   UNL     1      19.677   8.261  39.860  0.00  0.00    +0.000 A 
ATOM     20  C   UNL     1      20.598   9.281  39.671  0.00  0.00    +0.000 A 
ATOM     21  O   UNL     1      20.057  10.220  38.948  0.00  0.00    +0.000 OA
ENDBRANCH  15  17
ENDBRANCH   1  16
TORSDOF 2
ENDMDL
MODEL 3
REMARK VINA RESULT:      -7.7      1.109      1.434
REMARK  Name = 
REMARK  2 active torsions:
REMARK  status: ('A' for Active; 'I' for Inactive)
REMARK    1  A    between atoms: C_2  and  C_17
REMARK    2  A    between atoms: N_3  and  C_4
REMARK                            x       y       z     vdW  Elec       q    Type
REMARK                         _______ _______ _______ _____ _____    ______ ____
ROOT
ATOM      1  C   UNL     1      14.805  12.065  36.275  0.00  0.00    +0.000 A 
ATOM      2  C   UNL     1      13.732  11.848  37.113  0.00  0.00    +0.000 A 
ATOM      3  C   UNL     1      13.850  11.173  38.310  0.00  0.00    +0.000 A 
ATOM      4  C   UNL     1      15.070  10.679  38.722  0.00  0.00    +0.000 A 
ATOM      5  N   UNL     1      15.486   9.994  39.814  0.00  0.00    +0.000 NA
ATOM      6  C   UNL     1      16.804   9.745  39.734  0.00  0.00    +0.000 A 
ATOM      7  C   UNL     1      17.229  10.295  38.547  0.00  0.00    +0.000 A 
ATOM      8  C   UNL     1      16.155  10.886  37.898  0.00  0.00    +0.000 A 
ATOM      9  C   UNL     1      16.022  11.568  36.693  0.00  0.00    +0.000 A 
ATOM     10  C   UNL     1      18.659  10.225  38.091  0.00  0.00    +0.000 C 
ATOM     11  C   UNL     1      19.312   9.093  38.854  0.00  0.00    +0.000 C 
ATOM     12  C   UNL     1      19.128   9.402  40.347  0.00  0.00    +0.000 C 
ATOM     13  C   UNL     1      17.708   9.032  40.680  0.00  0.00    +0.000 C 
ENDROOT
BRANCH   1  16
ATOM     14  O   UNL     1      15.190  10.868  33.882  0.00  0.00    +0.000 OA
ATOM     15  C   UNL     1      14.871  12.082  33.817  0.00  0.00    +0.000 C 
ATOM     16  N   UNL     1      14.654  12.768  35.041  0.00  0.00    +0.000 NA
BRANCH  15  17
ATOM     17  C   UNL     1      14.737  12.726  32.521  0.00  0.00    +0.000 A 
ATOM     18  C   UNL     1      15.433  12.462  31.374  0.00  0.00    +0.000 A 
ATOM     19  C   UNL     1      14.978  13.315  30.387  0.00  0.00    +0.000 A 
ATOM     20  C   UNL     1      14.000  14.070  31.018  0.00  0.00    +0.000 A 
ATOM     21  O   UNL     1      13.898  13.688  32.260  0.00  0.00    +0.000 OA
ENDBRANCH  15  17
ENDBRANCH   1  16
TORSDOF 2
ENDMDL
MODEL 4
REMARK VINA RESULT:      -7.5     20.167     23.695
REMARK  Name = 
REMARK  2 active torsions:
REMARK  status: ('A' for Active; 'I' for Inactive)
REMARK    1  A    between atoms: C_2  and  C_17
REMARK    2  A    between atoms: N_3  and  C_4
REMARK                            x       y       z     vdW  Elec       q    Type
REMARK                         _______ _______ _______ _____ _____    ______ ____
ROOT
ATOM      1  C   UNL     1      28.812  24.530  21.781  0.00  0.00    +0.000 A 
ATOM      2  C   UNL     1      27.451  24.310  21.765  0.00  0.00    +0.000 A 
ATOM      3  C   UNL     1      26.776  23.754  22.832  0.00  0.00    +0.000 A 
ATOM      4  C   UNL     1      27.450  23.391  23.978  0.00  0.00    +0.000 A 
ATOM      5  N   UNL     1      27.071  22.838  25.156  0.00  0.00    +0.000 NA
ATOM      6  C   UNL     1      28.135  22.681  25.962  0.00  0.00    +0.000 A 
ATOM      7  C   UNL     1      29.221  23.153  25.261  0.00  0.00    +0.000 A 
ATOM      8  C   UNL     1      28.811  23.603  24.015  0.00  0.00    +0.000 A 
ATOM      9  C   UNL     1      29.480  24.164  22.932  0.00  0.00    +0.000 A 
ATOM     10  C   UNL     1      30.612  23.149  25.830  0.00  0.00    +0.000 C 
ATOM     11  C   UNL     1      30.626  22.141  26.958  0.00  0.00    +0.000 C 
ATOM     12  C   UNL     1      29.529  22.566  27.945  0.00  0.00    +0.000 C 
ATOM     13  C   UNL     1      28.225  22.124  27.340  0.00  0.00    +0.000 C 
ENDROOT
BRANCH   1  16
ATOM     14  O   UNL     1      28.827  27.195  21.328  0.00  0.00    +0.000 OA
ATOM     15  C   UNL     1      29.456  26.515  20.479  0.00  0.00    +0.000 C 
ATOM     16  N   UNL     1      29.485  25.107  20.662  0.00  0.00    +0.000 NA
BRANCH  15  17
ATOM     17  C   UNL     1      30.116  27.177  19.368  0.00  0.00    +0.000 A 
ATOM     18  C   UNL     1      30.555  28.470  19.297  0.00  0.00    +0.000 A 
ATOM     19  C   UNL     1      31.120  28.667  18.052  0.00  0.00    +0.000 A 
ATOM     20  C   UNL     1      30.986  27.439  17.422  0.00  0.00    +0.000 A 
ATOM     21  O   UNL     1      30.395  26.605  18.230  0.00  0.00    +0.000 OA
ENDBRANCH  15  17
ENDBRANCH   1  16
TORSDOF 2
ENDMDL
MODEL 5
REMARK VINA RESULT:      -7.4      3.832      4.983
REMARK  Name = 
REMARK  2 active torsions:
REMARK  status: ('A' for Active; 'I' for Inactive)
REMARK    1  A    between atoms: C_2  and  C_17
REMARK    2  A    between atoms: N_3  and  C_4
REMARK                            x       y       z     vdW  Elec       q    Type
REMARK                         _______ _______ _______ _____ _____    ______ ____
ROOT
ATOM      1  C   UNL     1      17.857   9.815  36.087  0.00  0.00    +0.000 A 
ATOM      2  C   UNL     1      17.353   9.916  37.366  0.00  0.00    +0.000 A 
ATOM      3  C   UNL     1      18.164   9.963  38.481  0.00  0.00    +0.000 A 
ATOM      4  C   UNL     1      19.536   9.909  38.356  0.00  0.00    +0.000 A 
ATOM      5  N   UNL     1      20.562   9.932  39.240  0.00  0.00    +0.000 NA
ATOM      6  C   UNL     1      21.738   9.850  38.594  0.00  0.00    +0.000 A 
ATOM      7  C   UNL     1      21.436   9.772  37.254  0.00  0.00    +0.000 A 
ATOM      8  C   UNL     1      20.060   9.807  37.085  0.00  0.00    +0.000 A 
ATOM      9  C   UNL     1      19.231   9.761  35.969  0.00  0.00    +0.000 A 
ATOM     10  C   UNL     1      22.494   9.666  36.193  0.00  0.00    +0.000 C 
ATOM     11  C   UNL     1      23.754   9.172  36.872  0.00  0.00    +0.000 C 
ATOM     12  C   UNL     1      24.068  10.168  37.997  0.00  0.00    +0.000 C 
ATOM     13  C   UNL     1      23.129   9.838  39.125  0.00  0.00    +0.000 C 
ENDROOT
BRANCH   1  16
ATOM     14  O   UNL     1      17.015  12.054  34.827  0.00  0.00    +0.000 OA
ATOM     15  C   UNL     1      16.587  10.981  34.332  0.00  0.00    +0.000 C 
ATOM     16  N   UNL     1      16.994   9.769  34.950  0.00  0.00    +0.000 NA
BRANCH  15  17
ATOM     17  C   UNL     1      15.712  11.017  33.174  0.00  0.00    +0.000 A 
ATOM     18  C   UNL     1      15.351  12.103  32.424  0.00  0.00    +0.000 A 
ATOM     19  C   UNL     1      14.504  11.673  31.421  0.00  0.00    +0.000 A 
ATOM     20  C   UNL     1      14.399  10.305  31.631  0.00  0.00    +0.000 A 
ATOM     21  O   UNL     1      15.121   9.973  32.663  0.00  0.00    +0.000 OA
ENDBRANCH  15  17
ENDBRANCH   1  16
TORSDOF 2
ENDMDL
MODEL 6
REMARK VINA RESULT:      -7.2      2.731      3.854
REMARK  Name = 
REMARK  2 active torsions:
REMARK  status: ('A' for Active; 'I' for Inactive)
REMARK    1  A    between atoms: C_2  and  C_17
REMARK    2  A    between atoms: N_3  and  C_4
REMARK                            x       y       z     vdW  Elec       q    Type
REMARK                         _______ _______ _______ _____ _____    ______ ____
ROOT
ATOM      1  C   UNL     1      18.116   9.805  36.262  0.00  0.00    +0.000 A 
ATOM      2  C   UNL     1      19.493   9.850  36.323  0.00  0.00    +0.000 A 
ATOM      3  C   UNL     1      20.186   9.774  37.514  0.00  0.00    +0.000 A 
ATOM      4  C   UNL     1      19.514   9.648  38.712  0.00  0.00    +0.000 A 
ATOM      5  N   UNL     1      19.908   9.554  40.004  0.00  0.00    +0.000 NA
ATOM      6  C   UNL     1      18.839   9.448  40.812  0.00  0.00    +0.000 A 
ATOM      7  C   UNL     1      17.734   9.477  39.993  0.00  0.00    +0.000 A 
ATOM      8  C   UNL     1      18.137   9.603  38.672  0.00  0.00    +0.000 A 
ATOM      9  C   UNL     1      17.451   9.680  37.464  0.00  0.00    +0.000 A 
ATOM     10  C   UNL     1      16.332   9.382  40.525  0.00  0.00    +0.000 C 
ATOM     11  C   UNL     1      16.389   9.757  41.991  0.00  0.00    +0.000 C 
ATOM     12  C   UNL     1      17.394   8.804  42.652  0.00  0.00    +0.000 C 
ATOM     13  C   UNL     1      18.761   9.319  42.293  0.00  0.00    +0.000 C 
ENDROOT
BRANCH   1  16
ATOM     14  O   UNL     1      17.065  12.122  35.348  0.00  0.00    +0.000 OA
ATOM     15  C   UNL     1      16.895  11.133  34.591  0.00  0.00    +0.000 C 
ATOM     16  N   UNL     1      17.425   9.886  35.015  0.00  0.00    +0.000 NA
BRANCH  15  17
ATOM     17  C   UNL     1      16.179  11.297  33.338  0.00  0.00    +0.000 A 
ATOM     18  C   UNL     1      16.383  10.635  32.158  0.00  0.00    +0.000 A 
ATOM     19  C   UNL     1      15.474  11.112  31.233  0.00  0.00    +0.000 A 
ATOM     20  C   UNL     1      14.749  12.066  31.932  0.00  0.00    +0.000 A 
ATOM     21  O   UNL     1      15.199  12.137  33.153  0.00  0.00    +0.000 OA
ENDBRANCH  15  17
ENDBRANCH   1  16
TORSDOF 2
ENDMDL
MODEL 7
REMARK VINA RESULT:      -7.0      4.346      6.592
REMARK  Name = 
REMARK  2 active torsions:
REMARK  status: ('A' for Active; 'I' for Inactive)
REMARK    1  A    between atoms: C_2  and  C_17
REMARK    2  A    between atoms: N_3  and  C_4
REMARK                            x       y       z     vdW  Elec       q    Type
REMARK                         _______ _______ _______ _____ _____    ______ ____
ROOT
ATOM      1  C   UNL     1      18.852   9.971  37.849  0.00  0.00    +0.000 A 
ATOM      2  C   UNL     1      18.623   9.479  39.116  0.00  0.00    +0.000 A 
ATOM      3  C   UNL     1      17.389   9.551  39.729  0.00  0.00    +0.000 A 
ATOM      4  C   UNL     1      16.317  10.131  39.084  0.00  0.00    +0.000 A 
ATOM      5  N   UNL     1      15.021  10.343  39.419  0.00  0.00    +0.000 NA
ATOM      6  C   UNL     1      14.375  10.962  38.416  0.00  0.00    +0.000 A 
ATOM      7  C   UNL     1      15.301  11.144  37.416  0.00  0.00    +0.000 A 
ATOM      8  C   UNL     1      16.525  10.630  37.816  0.00  0.00    +0.000 A 
ATOM      9  C   UNL     1      17.775  10.550  37.210  0.00  0.00    +0.000 A 
ATOM     10  C   UNL     1      14.961  11.810  36.112  0.00  0.00    +0.000 C 
ATOM     11  C   UNL     1      13.700  12.615  36.343  0.00  0.00    +0.000 C 
ATOM     12  C   UNL     1      12.638  11.635  36.860  0.00  0.00    +0.000 C 
ATOM     13  C   UNL     1      12.955  11.399  38.312  0.00  0.00    +0.000 C 
ENDROOT
BRANCH   1  16
ATOM     14  O   UNL     1      20.892  11.600  38.552  0.00  0.00    +0.000 OA
ATOM     15  C   UNL     1      21.171  10.769  37.652  0.00  0.00    +0.000 C 
ATOM     16  N   UNL     1      20.140   9.883  37.239  0.00  0.00    +0.000 NA
BRANCH  15  17
ATOM     17  C   UNL     1      22.506  10.742  37.081  0.00  0.00    +0.000 A 
ATOM     18  C   UNL     1      22.990   9.910  36.110  0.00  0.00    +0.000 A 
ATOM     19  C   UNL     1      24.311  10.241  35.878  0.00  0.00    +0.000 A 
ATOM     20  C   UNL     1      24.555  11.290  36.751  0.00  0.00    +0.000 A 
ATOM     21  O   UNL     1      23.472  11.544  37.430  0.00  0.00    +0.000 OA
ENDBRANCH  15  17
ENDBRANCH   1  16
TORSDOF 2
ENDMDL
MODEL 8
REMARK VINA RESULT:      -6.7      3.984      8.849
REMARK  Name = 
REMARK  2 active torsions:
REMARK  status: ('A' for Active; 'I' for Inactive)
REMARK    1  A    between atoms: C_2  and  C_17
REMARK    2  A    between atoms: N_3  and  C_4
REMARK                            x       y       z     vdW  Elec       q    Type
REMARK                         _______ _______ _______ _____ _____    ______ ____
ROOT
ATOM      1  C   UNL     1      16.986   9.336  40.600  0.00  0.00    +0.000 A 
ATOM      2  C   UNL     1      18.065   9.578  39.777  0.00  0.00    +0.000 A 
ATOM      3  C   UNL     1      17.942  10.219  38.562  0.00  0.00    +0.000 A 
ATOM      4  C   UNL     1      16.711  10.651  38.115  0.00  0.00    +0.000 A 
ATOM      5  N   UNL     1      16.288  11.290  36.998  0.00  0.00    +0.000 NA
ATOM      6  C   UNL     1      14.959  11.484  37.046  0.00  0.00    +0.000 A 
ATOM      7  C   UNL     1      14.534  10.945  38.238  0.00  0.00    +0.000 A 
ATOM      8  C   UNL     1      15.619  10.417  38.923  0.00  0.00    +0.000 A 
ATOM      9  C   UNL     1      15.757   9.769  40.146  0.00  0.00    +0.000 A 
ATOM     10  C   UNL     1      13.094  10.964  38.665  0.00  0.00    +0.000 C 
ATOM     11  C   UNL     1      12.265  11.176  37.417  0.00  0.00    +0.000 C 
ATOM     12  C   UNL     1      12.762  12.478  36.773  0.00  0.00    +0.000 C 
ATOM     13  C   UNL     1      14.046  12.135  36.066  0.00  0.00    +0.000 C 
ENDROOT
BRANCH   1  16
ATOM     14  O   UNL     1      16.716   6.657  40.849  0.00  0.00    +0.000 OA
ATOM     15  C   UNL     1      16.987   7.260  41.918  0.00  0.00    +0.000 C 
ATOM     16  N   UNL     1      17.141   8.669  41.853  0.00  0.00    +0.000 NA
BRANCH  15  17
ATOM     17  C   UNL     1      17.129   6.509  43.154  0.00  0.00    +0.000 A 
ATOM     18  C   UNL     1      16.183   6.283  44.116  0.00  0.00    +0.000 A 
ATOM     19  C   UNL     1      16.758   5.521  45.115  0.00  0.00    +0.000 A 
ATOM     20  C   UNL     1      18.061   5.325  44.683  0.00  0.00    +0.000 A 
ATOM     21  O   UNL     1      18.227   5.921  43.536  0.00  0.00    +0.000 OA
ENDBRANCH  15  17
ENDBRANCH   1  16
TORSDOF 2
ENDMDL
MODEL 9
REMARK VINA RESULT:      -6.6     29.416     32.547
REMARK  Name = 
REMARK  2 active torsions:
REMARK  status: ('A' for Active; 'I' for Inactive)
REMARK    1  A    between atoms: C_2  and  C_17
REMARK    2  A    between atoms: N_3  and  C_4
REMARK                            x       y       z     vdW  Elec       q    Type
REMARK                         _______ _______ _______ _____ _____    ______ ____
ROOT
ATOM      1  C   UNL     1      32.512  21.665  10.979  0.00  0.00    +0.000 A 
ATOM      2  C   UNL     1      31.943  20.937   9.956  0.00  0.00    +0.000 A 
ATOM      3  C   UNL     1      30.579  20.872   9.761  0.00  0.00    +0.000 A 
ATOM      4  C   UNL     1      29.715  21.545  10.599  0.00  0.00    +0.000 A 
ATOM      5  N   UNL     1      28.367  21.667  10.659  0.00  0.00    +0.000 NA
ATOM      6  C   UNL     1      28.015  22.454  11.690  0.00  0.00    +0.000 A 
ATOM      7  C   UNL     1      29.187  22.838  12.299  0.00  0.00    +0.000 A 
ATOM      8  C   UNL     1      30.264  22.279  11.629  0.00  0.00    +0.000 A 
ATOM      9  C   UNL     1      31.642  22.336  11.814  0.00  0.00    +0.000 A 
ATOM     10  C   UNL     1      29.213  23.734  13.505  0.00  0.00    +0.000 C 
ATOM     11  C   UNL     1      27.840  23.666  14.137  0.00  0.00    +0.000 C 
ATOM     12  C   UNL     1      26.834  24.078  13.053  0.00  0.00    +0.000 C 
ATOM     13  C   UNL     1      26.667  22.880  12.157  0.00  0.00    +0.000 C 
ENDROOT
BRANCH   1  16
ATOM     14  O   UNL     1      34.057  23.492   9.721  0.00  0.00    +0.000 OA
ATOM     15  C   UNL     1      34.684  22.699  10.468  0.00  0.00    +0.000 C 
ATOM     16  N   UNL     1      33.928  21.715  11.158  0.00  0.00    +0.000 NA
BRANCH  15  17
ATOM     17  C   UNL     1      36.126  22.815  10.597  0.00  0.00    +0.000 A 
ATOM     18  C   UNL     1      37.087  21.986  10.087  0.00  0.00    +0.000 A 
ATOM     19  C   UNL     1      38.323  22.479  10.457  0.00  0.00    +0.000 A 
ATOM     20  C   UNL     1      38.026  23.617  11.193  0.00  0.00    +0.000 A 
ATOM     21  O   UNL     1      36.733  23.769  11.246  0.00  0.00    +0.000 OA
ENDBRANCH  15  17
ENDBRANCH   1  16
TORSDOF 2
ENDMDL
MODEL 10
REMARK VINA RESULT:      -6.6     29.282     32.943
REMARK  Name = 
REMARK  2 active torsions:
REMARK  status: ('A' for Active; 'I' for Inactive)
REMARK    1  A    between atoms: C_2  and  C_17
REMARK    2  A    between atoms: N_3  and  C_4
REMARK                            x       y       z     vdW  Elec       q    Type
REMARK                         _______ _______ _______ _____ _____    ______ ____
ROOT
ATOM      1  C   UNL     1      31.883  21.807  10.728  0.00  0.00    +0.000 A 
ATOM      2  C   UNL     1      33.071  21.490  11.351  0.00  0.00    +0.000 A 
ATOM      3  C   UNL     1      33.989  20.619  10.799  0.00  0.00    +0.000 A 
ATOM      4  C   UNL     1      33.747  20.022   9.580  0.00  0.00    +0.000 A 
ATOM      5  N   UNL     1      34.438  19.149   8.808  0.00  0.00    +0.000 NA
ATOM      6  C   UNL     1      33.750  18.871   7.687  0.00  0.00    +0.000 A 
ATOM      7  C   UNL     1      32.584  19.598   7.761  0.00  0.00    +0.000 A 
ATOM      8  C   UNL     1      32.564  20.326   8.941  0.00  0.00    +0.000 A 
ATOM      9  C   UNL     1      31.647  21.205   9.509  0.00  0.00    +0.000 A 
ATOM     10  C   UNL     1      31.537  19.557   6.684  0.00  0.00    +0.000 C 
ATOM     11  C   UNL     1      31.771  18.291   5.888  0.00  0.00    +0.000 C 
ATOM     12  C   UNL     1      33.217  18.351   5.377  0.00  0.00    +0.000 C 
ATOM     13  C   UNL     1      34.092  17.980   6.545  0.00  0.00    +0.000 C 
ENDROOT
BRANCH   1  16
ATOM     14  O   UNL     1      30.259  21.071  12.760  0.00  0.00    +0.000 OA
ATOM     15  C   UNL     1      30.125  22.263  12.386  0.00  0.00    +0.000 C 
ATOM     16  N   UNL     1      30.951  22.712  11.322  0.00  0.00    +0.000 NA
BRANCH  15  17
ATOM     17  C   UNL     1      29.153  23.121  13.042  0.00  0.00    +0.000 A 
ATOM     18  C   UNL     1      27.805  23.189  12.822  0.00  0.00    +0.000 A 
ATOM     19  C   UNL     1      27.277  24.144  13.669  0.00  0.00    +0.000 A 
ATOM     20  C   UNL     1      28.375  24.613  14.376  0.00  0.00    +0.000 A 
ATOM     21  O   UNL     1      29.444  23.985  13.974  0.00  0.00    +0.000 OA
ENDBRANCH  15  17
ENDBRANCH   1  16
TORSDOF 2
ENDMDL
