MODEL 1
REMARK VINA RESULT:      -8.2      0.000      0.000
REMARK  Name = 
REMARK  8 active torsions:
REMARK  status: ('A' for Active; 'I' for Inactive)
REMARK    1  A    between atoms: O_2  and  C_3
REMARK    2  A    between atoms: C_5  and  N_6
REMARK    3  A    between atoms: C_7  and  C_9
REMARK    4  A    between atoms: C_13  and  C_14
REMARK    5  A    between atoms: C_14  and  O_15
REMARK    6  A    between atoms: O_15  and  C_16
REMARK    7  A    between atoms: C_28  and  O_29
REMARK    8  A    between atoms: C_31  and  O_32
REMARK                            x       y       z     vdW  Elec       q    Type
REMARK                         _______ _______ _______ _____ _____    ______ ____
ROOT
ATOM      1  C   UNL     1      12.963   1.173  27.257  0.00  0.00    +0.000 A 
ATOM      2  C   UNL     1      12.466   0.034  26.666  0.00  0.00    +0.000 A 
ATOM      3  C   UNL     1      13.289  -1.019  26.296  0.00  0.00    +0.000 A 
ATOM      4  C   UNL     1      14.624  -0.918  26.525  0.00  0.00    +0.000 A 
ATOM      5  C   UNL     1      15.147   0.196  27.109  0.00  0.00    +0.000 A 
ATOM      6  C   UNL     1      14.307   1.259  27.481  0.00  0.00    +0.000 A 
ENDROOT
BRANCH   1   8
ATOM      7  N   UNL     1      10.896   2.039  28.428  0.00  0.00    +0.000 NA
ATOM      8  C   UNL     1      12.032   2.228  27.615  0.00  0.00    +0.000 C 
ATOM      9  O   UNL     1      12.221   3.411  27.184  0.00  0.00    +0.000 OA
BRANCH   7  12
ATOM     10  C   UNL     1       9.223   4.884  30.110  0.00  0.00    +0.000 A 
ATOM     11  C   UNL     1      10.153   3.884  29.874  0.00  0.00    +0.000 A 
ATOM     12  C   UNL     1       9.989   3.105  28.765  0.00  0.00    +0.000 A 
ATOM     13  C   UNL     1       8.923   3.312  27.908  0.00  0.00    +0.000 A 
ATOM     14  C   UNL     1       8.001   4.306  28.145  0.00  0.00    +0.000 A 
ATOM     15  C   UNL     1       8.155   5.101  29.260  0.00  0.00    +0.000 A 
BRANCH  10  17
ATOM     16  C   UNL     1       9.787   5.178  32.426  0.00  0.00    +0.000 C 
ATOM     17  O   UNL     1       9.312   5.729  31.219  0.00  0.00    +0.000 OA
ENDBRANCH  10  17
BRANCH  14  18
ATOM     18  O   UNL     1       6.948   4.484  27.264  0.00  0.00    +0.000 OA
ATOM     19  C   UNL     1       5.868   3.580  27.274  0.00  0.00    +0.000 C 
ENDBRANCH  14  18
BRANCH  15  20
ATOM     20  O   UNL     1       7.208   6.094  29.471  0.00  0.00    +0.000 OA
ATOM     21  C   UNL     1       6.119   5.921  30.379  0.00  0.00    +0.000 C 
ENDBRANCH  15  20
ENDBRANCH   7  12
ENDBRANCH   1   8
BRANCH   5  22
ATOM     22  C   UNL     1      16.587   0.398  27.399  0.00  0.00    +0.000 C 
BRANCH  22  23
ATOM     23  O   UNL     1      17.325  -0.658  26.843  0.00  0.00    +0.000 OA
BRANCH  23  24
ATOM     24  C   UNL     1      18.163  -0.409  25.772  0.00  0.00    +0.000 A 
ATOM     25  C   UNL     1      18.636   0.832  25.436  0.00  0.00    +0.000 A 
ATOM     26  C   UNL     1      19.465   1.051  24.367  0.00  0.00    +0.000 A 
ATOM     27  C   UNL     1      19.869   0.011  23.566  0.00  0.00    +0.000 A 
ATOM     28  C   UNL     1      20.710   0.245  22.487  0.00  0.00    +0.000 A 
ATOM     29  C   UNL     1      21.102  -0.814  21.696  0.00  0.00    +0.000 A 
ATOM     30  C   UNL     1      20.659  -2.086  21.983  0.00  0.00    +0.000 A 
ATOM     31  C   UNL     1      19.828  -2.286  23.059  0.00  0.00    +0.000 A 
ATOM     32  C   UNL     1      19.408  -1.242  23.882  0.00  0.00    +0.000 A 
ATOM     33  C   UNL     1      18.575  -1.469  24.953  0.00  0.00    +0.000 A 
ENDBRANCH  23  24
ENDBRANCH  22  23
ENDBRANCH   5  22
TORSDOF 8
ENDMDL
MODEL 2
REMARK VINA RESULT:      -8.0     25.653     28.123
REMARK  Name = 
REMARK  8 active torsions:
REMARK  status: ('A' for Active; 'I' for Inactive)
REMARK    1  A    between atoms: O_2  and  C_3
REMARK    2  A    between atoms: C_5  and  N_6
REMARK    3  A    between atoms: C_7  and  C_9
REMARK    4  A    between atoms: C_13  and  C_14
REMARK    5  A    between atoms: C_14  and  O_15
REMARK    6  A    between atoms: O_15  and  C_16
REMARK    7  A    between atoms: C_28  and  O_29
REMARK    8  A    between atoms: C_31  and  O_32
REMARK                            x       y       z     vdW  Elec       q    Type
REMARK                         _______ _______ _______ _____ _____    ______ ____
ROOT
ATOM      1  C   UNL     1      36.791   1.353  15.042  0.00  0.00    +0.000 A 
ATOM      2  C   UNL     1      35.501   1.832  15.009  0.00  0.00    +0.000 A 
ATOM      3  C   UNL     1      35.224   3.185  14.873  0.00  0.00    +0.000 A 
ATOM      4  C   UNL     1      36.259   4.058  14.770  0.00  0.00    +0.000 A 
ATOM      5  C   UNL     1      37.547   3.615  14.799  0.00  0.00    +0.000 A 
ATOM      6  C   UNL     1      37.820   2.244  14.938  0.00  0.00    +0.000 A 
ENDROOT
BRANCH   1   8
ATOM      7  N   UNL     1      36.460  -0.848  16.240  0.00  0.00    +0.000 NA
ATOM      8  C   UNL     1      36.993  -0.077  15.187  0.00  0.00    +0.000 C 
ATOM      9  O   UNL     1      37.691  -0.707  14.328  0.00  0.00    +0.000 OA
BRANCH   7  12
ATOM     10  C   UNL     1      36.189  -4.527  15.901  0.00  0.00    +0.000 A 
ATOM     11  C   UNL     1      35.895  -3.185  15.720  0.00  0.00    +0.000 A 
ATOM     12  C   UNL     1      36.678  -2.266  16.359  0.00  0.00    +0.000 A 
ATOM     13  C   UNL     1      37.730  -2.671  17.162  0.00  0.00    +0.000 A 
ATOM     14  C   UNL     1      38.019  -4.005  17.339  0.00  0.00    +0.000 A 
ATOM     15  C   UNL     1      37.237  -4.942  16.700  0.00  0.00    +0.000 A 
BRANCH  10  17
ATOM     16  C   UNL     1      34.291  -5.153  14.568  0.00  0.00    +0.000 C 
ATOM     17  O   UNL     1      35.441  -5.535  15.287  0.00  0.00    +0.000 OA
ENDBRANCH  10  17
BRANCH  14  18
ATOM     18  O   UNL     1      39.079  -4.373  18.149  0.00  0.00    +0.000 OA
ATOM     19  C   UNL     1      38.953  -4.281  19.549  0.00  0.00    +0.000 C 
ENDBRANCH  14  18
BRANCH  15  20
ATOM     20  O   UNL     1      37.554  -6.280  16.900  0.00  0.00    +0.000 OA
ATOM     21  C   UNL     1      36.703  -7.156  17.639  0.00  0.00    +0.000 C 
ENDBRANCH  15  20
ENDBRANCH   7  12
ENDBRANCH   1   8
BRANCH   5  22
ATOM     22  C   UNL     1      38.741   4.489  14.695  0.00  0.00    +0.000 C 
BRANCH  22  23
ATOM     23  O   UNL     1      38.526   5.659  15.439  0.00  0.00    +0.000 OA
BRANCH  23  24
ATOM     24  C   UNL     1      39.184   5.827  16.643  0.00  0.00    +0.000 A 
ATOM     25  C   UNL     1      38.591   5.693  17.871  0.00  0.00    +0.000 A 
ATOM     26  C   UNL     1      39.268   5.866  19.049  0.00  0.00    +0.000 A 
ATOM     27  C   UNL     1      40.603   6.187  19.053  0.00  0.00    +0.000 A 
ATOM     28  C   UNL     1      41.278   6.359  20.254  0.00  0.00    +0.000 A 
ATOM     29  C   UNL     1      42.619   6.681  20.234  0.00  0.00    +0.000 A 
ATOM     30  C   UNL     1      43.271   6.830  19.030  0.00  0.00    +0.000 A 
ATOM     31  C   UNL     1      42.575   6.653  17.858  0.00  0.00    +0.000 A 
ATOM     32  C   UNL     1      41.221   6.327  17.836  0.00  0.00    +0.000 A 
ATOM     33  C   UNL     1      40.547   6.155  16.648  0.00  0.00    +0.000 A 
ENDBRANCH  23  24
ENDBRANCH  22  23
ENDBRANCH   5  22
TORSDOF 8
ENDMDL
MODEL 3
REMARK VINA RESULT:      -7.9      4.926      7.320
REMARK  Name = 
REMARK  8 active torsions:
REMARK  status: ('A' for Active; 'I' for Inactive)
REMARK    1  A    between atoms: O_2  and  C_3
REMARK    2  A    between atoms: C_5  and  N_6
REMARK    3  A    between atoms: C_7  and  C_9
REMARK    4  A    between atoms: C_13  and  C_14
REMARK    5  A    between atoms: C_14  and  O_15
REMARK    6  A    between atoms: O_15  and  C_16
REMARK    7  A    between atoms: C_28  and  O_29
REMARK    8  A    between atoms: C_31  and  O_32
REMARK                            x       y       z     vdW  Elec       q    Type
REMARK                         _______ _______ _______ _____ _____    ______ ____
ROOT
ATOM      1  C   UNL     1      12.665  -1.254  27.176  0.00  0.00    +0.000 A 
ATOM      2  C   UNL     1      12.351  -1.183  28.514  0.00  0.00    +0.000 A 
ATOM      3  C   UNL     1      13.134  -0.474  29.414  0.00  0.00    +0.000 A 
ATOM      4  C   UNL     1      14.240   0.168  28.956  0.00  0.00    +0.000 A 
ATOM      5  C   UNL     1      14.577   0.117  27.637  0.00  0.00    +0.000 A 
ATOM      6  C   UNL     1      13.780  -0.604  26.732  0.00  0.00    +0.000 A 
ENDROOT
BRANCH   1   8
ATOM      7  N   UNL     1      11.639  -1.766  24.923  0.00  0.00    +0.000 NA
ATOM      8  C   UNL     1      11.792  -2.017  26.302  0.00  0.00    +0.000 C 
ATOM      9  O   UNL     1      11.107  -2.979  26.776  0.00  0.00    +0.000 OA
BRANCH   7  12
ATOM     10  C   UNL     1       8.745  -2.941  22.931  0.00  0.00    +0.000 A 
ATOM     11  C   UNL     1       9.507  -2.122  23.749  0.00  0.00    +0.000 A 
ATOM     12  C   UNL     1      10.765  -2.539  24.079  0.00  0.00    +0.000 A 
ATOM     13  C   UNL     1      11.256  -3.744  23.609  0.00  0.00    +0.000 A 
ATOM     14  C   UNL     1      10.497  -4.555  22.796  0.00  0.00    +0.000 A 
ATOM     15  C   UNL     1       9.226  -4.146  22.455  0.00  0.00    +0.000 A 
BRANCH  10  17
ATOM     16  C   UNL     1       7.291  -1.464  21.717  0.00  0.00    +0.000 C 
ATOM     17  O   UNL     1       7.449  -2.595  22.543  0.00  0.00    +0.000 OA
ENDBRANCH  10  17
BRANCH  14  18
ATOM     18  O   UNL     1      11.022  -5.753  22.344  0.00  0.00    +0.000 OA
ATOM     19  C   UNL     1      11.900  -5.760  21.243  0.00  0.00    +0.000 C 
ENDBRANCH  14  18
BRANCH  15  20
ATOM     20  O   UNL     1       8.485  -4.987  21.634  0.00  0.00    +0.000 OA
ATOM     21  C   UNL     1       8.445  -4.818  20.217  0.00  0.00    +0.000 C 
ENDBRANCH  15  20
ENDBRANCH   7  12
ENDBRANCH   1   8
BRANCH   5  22
ATOM     22  C   UNL     1      15.762   0.782  27.045  0.00  0.00    +0.000 C 
BRANCH  22  23
ATOM     23  O   UNL     1      16.904   0.008  27.297  0.00  0.00    +0.000 OA
BRANCH  23  24
ATOM     24  C   UNL     1      17.745  -0.320  26.250  0.00  0.00    +0.000 A 
ATOM     25  C   UNL     1      17.967  -1.598  25.810  0.00  0.00    +0.000 A 
ATOM     26  C   UNL     1      18.807  -1.894  24.769  0.00  0.00    +0.000 A 
ATOM     27  C   UNL     1      19.481  -0.899  24.104  0.00  0.00    +0.000 A 
ATOM     28  C   UNL     1      20.329  -1.213  23.051  0.00  0.00    +0.000 A 
ATOM     29  C   UNL     1      20.995  -0.197  22.397  0.00  0.00    +0.000 A 
ATOM     30  C   UNL     1      20.813   1.109  22.793  0.00  0.00    +0.000 A 
ATOM     31  C   UNL     1      19.967   1.387  23.839  0.00  0.00    +0.000 A 
ATOM     32  C   UNL     1      19.275   0.390  24.526  0.00  0.00    +0.000 A 
ATOM     33  C   UNL     1      18.434   0.694  25.570  0.00  0.00    +0.000 A 
ENDBRANCH  23  24
ENDBRANCH  22  23
ENDBRANCH   5  22
TORSDOF 8
ENDMDL
MODEL 4
REMARK VINA RESULT:      -7.9     24.612     27.842
REMARK  Name = 
REMARK  8 active torsions:
REMARK  status: ('A' for Active; 'I' for Inactive)
REMARK    1  A    between atoms: O_2  and  C_3
REMARK    2  A    between atoms: C_5  and  N_6
REMARK    3  A    between atoms: C_7  and  C_9
REMARK    4  A    between atoms: C_13  and  C_14
REMARK    5  A    between atoms: C_14  and  O_15
REMARK    6  A    between atoms: O_15  and  C_16
REMARK    7  A    between atoms: C_28  and  O_29
REMARK    8  A    between atoms: C_31  and  O_32
REMARK                            x       y       z     vdW  Elec       q    Type
REMARK                         _______ _______ _______ _____ _____    ______ ____
ROOT
ATOM      1  C   UNL     1      36.996   3.472  16.633  0.00  0.00    +0.000 A 
ATOM      2  C   UNL     1      36.717   3.905  15.357  0.00  0.00    +0.000 A 
ATOM      3  C   UNL     1      35.837   3.224  14.528  0.00  0.00    +0.000 A 
ATOM      4  C   UNL     1      35.237   2.099  14.993  0.00  0.00    +0.000 A 
ATOM      5  C   UNL     1      35.493   1.644  16.251  0.00  0.00    +0.000 A 
ATOM      6  C   UNL     1      36.385   2.338  17.086  0.00  0.00    +0.000 A 
ENDROOT
BRANCH   1   8
ATOM      7  N   UNL     1      38.433   5.506  17.066  0.00  0.00    +0.000 NA
ATOM      8  C   UNL     1      37.928   4.243  17.436  0.00  0.00    +0.000 C 
ATOM      9  O   UNL     1      38.336   3.780  18.550  0.00  0.00    +0.000 OA
BRANCH   7  12
ATOM     10  C   UNL     1      41.514   6.945  18.536  0.00  0.00    +0.000 A 
ATOM     11  C   UNL     1      40.710   6.191  17.696  0.00  0.00    +0.000 A 
ATOM     12  C   UNL     1      39.358   6.248  17.882  0.00  0.00    +0.000 A 
ATOM     13  C   UNL     1      38.816   7.035  18.882  0.00  0.00    +0.000 A 
ATOM     14  C   UNL     1      39.617   7.782  19.716  0.00  0.00    +0.000 A 
ATOM     15  C   UNL     1      40.983   7.734  19.538  0.00  0.00    +0.000 A 
BRANCH  10  17
ATOM     16  C   UNL     1      43.455   6.861  17.124  0.00  0.00    +0.000 C 
ATOM     17  O   UNL     1      42.906   6.947  18.419  0.00  0.00    +0.000 OA
ENDBRANCH  10  17
BRANCH  14  18
ATOM     18  O   UNL     1      39.039   8.558  20.705  0.00  0.00    +0.000 OA
ATOM     19  C   UNL     1      37.793   9.172  20.472  0.00  0.00    +0.000 C 
ENDBRANCH  14  18
BRANCH  15  20
ATOM     20  O   UNL     1      41.764   8.499  20.395  0.00  0.00    +0.000 OA
ATOM     21  C   UNL     1      42.067   9.867  20.124  0.00  0.00    +0.000 C 
ENDBRANCH  15  20
ENDBRANCH   7  12
ENDBRANCH   1   8
BRANCH   5  22
ATOM     22  C   UNL     1      34.888   0.427  16.846  0.00  0.00    +0.000 C 
BRANCH  22  23
ATOM     23  O   UNL     1      35.131  -0.670  16.007  0.00  0.00    +0.000 OA
BRANCH  23  24
ATOM     24  C   UNL     1      36.420  -1.153  15.879  0.00  0.00    +0.000 A 
ATOM     25  C   UNL     1      37.234  -1.467  16.936  0.00  0.00    +0.000 A 
ATOM     26  C   UNL     1      38.509  -1.944  16.780  0.00  0.00    +0.000 A 
ATOM     27  C   UNL     1      39.041  -2.133  15.529  0.00  0.00    +0.000 A 
ATOM     28  C   UNL     1      40.334  -2.617  15.384  0.00  0.00    +0.000 A 
ATOM     29  C   UNL     1      40.848  -2.799  14.118  0.00  0.00    +0.000 A 
ATOM     30  C   UNL     1      40.079  -2.501  13.015  0.00  0.00    +0.000 A 
ATOM     31  C   UNL     1      38.802  -2.024  13.191  0.00  0.00    +0.000 A 
ATOM     32  C   UNL     1      38.246  -1.826  14.454  0.00  0.00    +0.000 A 
ATOM     33  C   UNL     1      36.965  -1.346  14.603  0.00  0.00    +0.000 A 
ENDBRANCH  23  24
ENDBRANCH  22  23
ENDBRANCH   5  22
TORSDOF 8
ENDMDL
MODEL 5
REMARK VINA RESULT:      -7.8     25.060     30.521
REMARK  Name = 
REMARK  8 active torsions:
REMARK  status: ('A' for Active; 'I' for Inactive)
REMARK    1  A    between atoms: O_2  and  C_3
REMARK    2  A    between atoms: C_5  and  N_6
REMARK    3  A    between atoms: C_7  and  C_9
REMARK    4  A    between atoms: C_13  and  C_14
REMARK    5  A    between atoms: C_14  and  O_15
REMARK    6  A    between atoms: O_15  and  C_16
REMARK    7  A    between atoms: C_28  and  O_29
REMARK    8  A    between atoms: C_31  and  O_32
REMARK                            x       y       z     vdW  Elec       q    Type
REMARK                         _______ _______ _______ _____ _____    ______ ____
ROOT
ATOM      1  C   UNL     1      37.363  -0.533  15.556  0.00  0.00    +0.000 A 
ATOM      2  C   UNL     1      36.259  -1.226  15.997  0.00  0.00    +0.000 A 
ATOM      3  C   UNL     1      35.139  -0.578  16.500  0.00  0.00    +0.000 A 
ATOM      4  C   UNL     1      35.138   0.779  16.556  0.00  0.00    +0.000 A 
ATOM      5  C   UNL     1      36.216   1.493  16.127  0.00  0.00    +0.000 A 
ATOM      6  C   UNL     1      37.346   0.830  15.620  0.00  0.00    +0.000 A 
ENDROOT
BRANCH   1   8
ATOM      7  N   UNL     1      39.473  -0.756  14.182  0.00  0.00    +0.000 NA
ATOM      8  C   UNL     1      38.492  -1.287  15.044  0.00  0.00    +0.000 C 
ATOM      9  O   UNL     1      38.638  -2.509  15.372  0.00  0.00    +0.000 OA
BRANCH   7  12
ATOM     10  C   UNL     1      41.592  -3.097  12.246  0.00  0.00    +0.000 A 
ATOM     11  C   UNL     1      40.463  -2.401  12.644  0.00  0.00    +0.000 A 
ATOM     12  C   UNL     1      40.583  -1.529  13.688  0.00  0.00    +0.000 A 
ATOM     13  C   UNL     1      41.798  -1.352  14.324  0.00  0.00    +0.000 A 
ATOM     14  C   UNL     1      42.919  -2.045  13.926  0.00  0.00    +0.000 A 
ATOM     15  C   UNL     1      42.811  -2.929  12.874  0.00  0.00    +0.000 A 
BRANCH  10  17
ATOM     16  C   UNL     1      41.488  -3.494   9.879  0.00  0.00    +0.000 C 
ATOM     17  O   UNL     1      41.562  -4.010  11.189  0.00  0.00    +0.000 OA
ENDBRANCH  10  17
BRANCH  14  18
ATOM     18  O   UNL     1      44.118  -1.842  14.586  0.00  0.00    +0.000 OA
ATOM     19  C   UNL     1      44.690  -0.556  14.617  0.00  0.00    +0.000 C 
ENDBRANCH  14  18
BRANCH  15  20
ATOM     20  O   UNL     1      43.960  -3.613  12.497  0.00  0.00    +0.000 OA
ATOM     21  C   UNL     1      44.874  -3.085  11.536  0.00  0.00    +0.000 C 
ENDBRANCH  15  20
ENDBRANCH   7  12
ENDBRANCH   1   8
BRANCH   5  22
ATOM     22  C   UNL     1      36.308   2.973  16.149  0.00  0.00    +0.000 C 
BRANCH  22  23
ATOM     23  O   UNL     1      36.951   3.381  17.328  0.00  0.00    +0.000 OA
BRANCH  23  24
ATOM     24  C   UNL     1      38.062   4.199  17.245  0.00  0.00    +0.000 A 
ATOM     25  C   UNL     1      38.698   4.520  16.074  0.00  0.00    +0.000 A 
ATOM     26  C   UNL     1      39.799   5.334  16.022  0.00  0.00    +0.000 A 
ATOM     27  C   UNL     1      40.327   5.877  17.167  0.00  0.00    +0.000 A 
ATOM     28  C   UNL     1      41.442   6.701  17.100  0.00  0.00    +0.000 A 
ATOM     29  C   UNL     1      41.956   7.235  18.263  0.00  0.00    +0.000 A 
ATOM     30  C   UNL     1      41.361   6.949  19.472  0.00  0.00    +0.000 A 
ATOM     31  C   UNL     1      40.257   6.131  19.505  0.00  0.00    +0.000 A 
ATOM     32  C   UNL     1      39.708   5.571  18.353  0.00  0.00    +0.000 A 
ATOM     33  C   UNL     1      38.602   4.754  18.413  0.00  0.00    +0.000 A 
ENDBRANCH  23  24
ENDBRANCH  22  23
ENDBRANCH   5  22
TORSDOF 8
ENDMDL
MODEL 6
REMARK VINA RESULT:      -7.7     25.376     27.923
REMARK  Name = 
REMARK  8 active torsions:
REMARK  status: ('A' for Active; 'I' for Inactive)
REMARK    1  A    between atoms: O_2  and  C_3
REMARK    2  A    between atoms: C_5  and  N_6
REMARK    3  A    between atoms: C_7  and  C_9
REMARK    4  A    between atoms: C_13  and  C_14
REMARK    5  A    between atoms: C_14  and  O_15
REMARK    6  A    between atoms: O_15  and  C_16
REMARK    7  A    between atoms: C_28  and  O_29
REMARK    8  A    between atoms: C_31  and  O_32
REMARK                            x       y       z     vdW  Elec       q    Type
REMARK                         _______ _______ _______ _____ _____    ______ ____
ROOT
ATOM      1  C   UNL     1      37.144   3.277  16.231  0.00  0.00    +0.000 A 
ATOM      2  C   UNL     1      35.785   3.153  16.405  0.00  0.00    +0.000 A 
ATOM      3  C   UNL     1      34.998   2.415  15.532  0.00  0.00    +0.000 A 
ATOM      4  C   UNL     1      35.591   1.801  14.476  0.00  0.00    +0.000 A 
ATOM      5  C   UNL     1      36.934   1.905  14.276  0.00  0.00    +0.000 A 
ATOM      6  C   UNL     1      37.725   2.653  15.165  0.00  0.00    +0.000 A 
ENDROOT
BRANCH   1   8
ATOM      7  N   UNL     1      38.498   5.306  16.896  0.00  0.00    +0.000 NA
ATOM      8  C   UNL     1      37.894   4.066  17.191  0.00  0.00    +0.000 C 
ATOM      9  O   UNL     1      38.037   3.643  18.383  0.00  0.00    +0.000 OA
BRANCH   7  12
ATOM     10  C   UNL     1      39.429   7.530  19.708  0.00  0.00    +0.000 A 
ATOM     11  C   UNL     1      38.626   6.835  18.817  0.00  0.00    +0.000 A 
ATOM     12  C   UNL     1      39.237   6.067  17.869  0.00  0.00    +0.000 A 
ATOM     13  C   UNL     1      40.617   5.991  17.803  0.00  0.00    +0.000 A 
ATOM     14  C   UNL     1      41.412   6.682  18.689  0.00  0.00    +0.000 A 
ATOM     15  C   UNL     1      40.808   7.461  19.652  0.00  0.00    +0.000 A 
BRANCH  10  17
ATOM     16  C   UNL     1      37.693   9.027  20.426  0.00  0.00    +0.000 C 
ATOM     17  O   UNL     1      38.890   8.340  20.710  0.00  0.00    +0.000 OA
ENDBRANCH  10  17
BRANCH  14  18
ATOM     18  O   UNL     1      42.789   6.581  18.593  0.00  0.00    +0.000 OA
ATOM     19  C   UNL     1      43.466   7.233  17.545  0.00  0.00    +0.000 C 
ENDBRANCH  14  18
BRANCH  15  20
ATOM     20  O   UNL     1      41.637   8.146  20.530  0.00  0.00    +0.000 OA
ATOM     21  C   UNL     1      42.035   9.498  20.296  0.00  0.00    +0.000 C 
ENDBRANCH  15  20
ENDBRANCH   7  12
ENDBRANCH   1   8
BRANCH   5  22
ATOM     22  C   UNL     1      37.670   1.272  13.155  0.00  0.00    +0.000 C 
BRANCH  22  23
ATOM     23  O   UNL     1      38.653   0.413  13.670  0.00  0.00    +0.000 OA
BRANCH  23  24
ATOM     24  C   UNL     1      38.276  -0.807  14.199  0.00  0.00    +0.000 A 
ATOM     25  C   UNL     1      37.379  -1.659  13.610  0.00  0.00    +0.000 A 
ATOM     26  C   UNL     1      37.023  -2.864  14.157  0.00  0.00    +0.000 A 
ATOM     27  C   UNL     1      37.564  -3.281  15.349  0.00  0.00    +0.000 A 
ATOM     28  C   UNL     1      37.196  -4.505  15.892  0.00  0.00    +0.000 A 
ATOM     29  C   UNL     1      37.751  -4.904  17.090  0.00  0.00    +0.000 A 
ATOM     30  C   UNL     1      38.659  -4.091  17.731  0.00  0.00    +0.000 A 
ATOM     31  C   UNL     1      39.003  -2.886  17.167  0.00  0.00    +0.000 A 
ATOM     32  C   UNL     1      38.465  -2.446  15.959  0.00  0.00    +0.000 A 
ATOM     33  C   UNL     1      38.826  -1.235  15.415  0.00  0.00    +0.000 A 
ENDBRANCH  23  24
ENDBRANCH  22  23
ENDBRANCH   5  22
TORSDOF 8
ENDMDL
MODEL 7
REMARK VINA RESULT:      -7.7     25.637     28.313
REMARK  Name = 
REMARK  8 active torsions:
REMARK  status: ('A' for Active; 'I' for Inactive)
REMARK    1  A    between atoms: O_2  and  C_3
REMARK    2  A    between atoms: C_5  and  N_6
REMARK    3  A    between atoms: C_7  and  C_9
REMARK    4  A    between atoms: C_13  and  C_14
REMARK    5  A    between atoms: C_14  and  O_15
REMARK    6  A    between atoms: O_15  and  C_16
REMARK    7  A    between atoms: C_28  and  O_29
REMARK    8  A    between atoms: C_31  and  O_32
REMARK                            x       y       z     vdW  Elec       q    Type
REMARK                         _______ _______ _______ _____ _____    ______ ____
ROOT
ATOM      1  C   UNL     1      36.699   3.694  14.801  0.00  0.00    +0.000 A 
ATOM      2  C   UNL     1      35.459   4.014  14.299  0.00  0.00    +0.000 A 
ATOM      3  C   UNL     1      35.098   5.323  14.013  0.00  0.00    +0.000 A 
ATOM      4  C   UNL     1      35.999   6.314  14.238  0.00  0.00    +0.000 A 
ATOM      5  C   UNL     1      37.235   6.030  14.734  0.00  0.00    +0.000 A 
ATOM      6  C   UNL     1      37.593   4.702  15.021  0.00  0.00    +0.000 A 
ENDROOT
BRANCH   1   8
ATOM      7  N   UNL     1      36.050   1.258  14.981  0.00  0.00    +0.000 NA
ATOM      8  C   UNL     1      36.996   2.300  15.071  0.00  0.00    +0.000 C 
ATOM      9  O   UNL     1      38.174   1.959  15.416  0.00  0.00    +0.000 OA
BRANCH   7  12
ATOM     10  C   UNL     1      37.087  -2.284  14.657  0.00  0.00    +0.000 A 
ATOM     11  C   UNL     1      36.803  -0.978  14.288  0.00  0.00    +0.000 A 
ATOM     12  C   UNL     1      36.373  -0.118  15.257  0.00  0.00    +0.000 A 
ATOM     13  C   UNL     1      36.227  -0.544  16.565  0.00  0.00    +0.000 A 
ATOM     14  C   UNL     1      36.509  -1.841  16.928  0.00  0.00    +0.000 A 
ATOM     15  C   UNL     1      36.945  -2.719  15.960  0.00  0.00    +0.000 A 
BRANCH  10  17
ATOM     16  C   UNL     1      38.685  -2.925  12.982  0.00  0.00    +0.000 C 
ATOM     17  O   UNL     1      37.532  -3.232  13.732  0.00  0.00    +0.000 OA
ENDBRANCH  10  17
BRANCH  14  18
ATOM     18  O   UNL     1      36.351  -2.230  18.247  0.00  0.00    +0.000 OA
ATOM     19  C   UNL     1      37.354  -1.931  19.189  0.00  0.00    +0.000 C 
ENDBRANCH  14  18
BRANCH  15  20
ATOM     20  O   UNL     1      37.221  -4.021  16.359  0.00  0.00    +0.000 OA
ATOM     21  C   UNL     1      36.244  -5.059  16.280  0.00  0.00    +0.000 C 
ENDBRANCH  15  20
ENDBRANCH   7  12
ENDBRANCH   1   8
BRANCH   5  22
ATOM     22  C   UNL     1      38.284   7.041  15.012  0.00  0.00    +0.000 C 
BRANCH  22  23
ATOM     23  O   UNL     1      39.548   6.462  14.830  0.00  0.00    +0.000 OA
BRANCH  23  24
ATOM     24  C   UNL     1      40.468   6.503  15.861  0.00  0.00    +0.000 A 
ATOM     25  C   UNL     1      41.817   6.662  15.685  0.00  0.00    +0.000 A 
ATOM     26  C   UNL     1      42.707   6.699  16.727  0.00  0.00    +0.000 A 
ATOM     27  C   UNL     1      42.275   6.575  18.024  0.00  0.00    +0.000 A 
ATOM     28  C   UNL     1      43.186   6.614  19.071  0.00  0.00    +0.000 A 
ATOM     29  C   UNL     1      42.730   6.488  20.366  0.00  0.00    +0.000 A 
ATOM     30  C   UNL     1      41.384   6.325  20.608  0.00  0.00    +0.000 A 
ATOM     31  C   UNL     1      40.507   6.290  19.550  0.00  0.00    +0.000 A 
ATOM     32  C   UNL     1      40.928   6.414  18.227  0.00  0.00    +0.000 A 
ATOM     33  C   UNL     1      40.029   6.376  17.186  0.00  0.00    +0.000 A 
ENDBRANCH  23  24
ENDBRANCH  22  23
ENDBRANCH   5  22
TORSDOF 8
ENDMDL
MODEL 8
REMARK VINA RESULT:      -7.7     24.641     28.206
REMARK  Name = 
REMARK  8 active torsions:
REMARK  status: ('A' for Active; 'I' for Inactive)
REMARK    1  A    between atoms: O_2  and  C_3
REMARK    2  A    between atoms: C_5  and  N_6
REMARK    3  A    between atoms: C_7  and  C_9
REMARK    4  A    between atoms: C_13  and  C_14
REMARK    5  A    between atoms: C_14  and  O_15
REMARK    6  A    between atoms: O_15  and  C_16
REMARK    7  A    between atoms: C_28  and  O_29
REMARK    8  A    between atoms: C_31  and  O_32
REMARK                            x       y       z     vdW  Elec       q    Type
REMARK                         _______ _______ _______ _____ _____    ______ ____
ROOT
ATOM      1  C   UNL     1      38.367   4.196  16.431  0.00  0.00    +0.000 A 
ATOM      2  C   UNL     1      38.989   3.975  15.223  0.00  0.00    +0.000 A 
ATOM      3  C   UNL     1      38.382   3.252  14.206  0.00  0.00    +0.000 A 
ATOM      4  C   UNL     1      37.137   2.750  14.414  0.00  0.00    +0.000 A 
ATOM      5  C   UNL     1      36.495   2.951  15.598  0.00  0.00    +0.000 A 
ATOM      6  C   UNL     1      37.117   3.684  16.623  0.00  0.00    +0.000 A 
ENDROOT
BRANCH   1   8
ATOM      7  N   UNL     1      39.881   6.084  17.161  0.00  0.00    +0.000 NA
ATOM      8  C   UNL     1      39.073   4.963  17.441  0.00  0.00    +0.000 C 
ATOM      9  O   UNL     1      38.980   4.632  18.667  0.00  0.00    +0.000 OA
BRANCH   7  12
ATOM     10  C   UNL     1      40.726   8.488  19.850  0.00  0.00    +0.000 A 
ATOM     11  C   UNL     1      39.975   7.835  18.886  0.00  0.00    +0.000 A 
ATOM     12  C   UNL     1      40.571   6.826  18.184  0.00  0.00    +0.000 A 
ATOM     13  C   UNL     1      41.885   6.474  18.432  0.00  0.00    +0.000 A 
ATOM     14  C   UNL     1      42.629   7.124  19.391  0.00  0.00    +0.000 A 
ATOM     15  C   UNL     1      42.039   8.143  20.107  0.00  0.00    +0.000 A 
BRANCH  10  17
ATOM     16  C   UNL     1      39.304  10.419  19.986  0.00  0.00    +0.000 C 
ATOM     17  O   UNL     1      40.199   9.531  20.616  0.00  0.00    +0.000 OA
ENDBRANCH  10  17
BRANCH  14  18
ATOM     18  O   UNL     1      43.941   6.743  19.612  0.00  0.00    +0.000 OA
ATOM     19  C   UNL     1      44.915   6.990  18.626  0.00  0.00    +0.000 C 
ENDBRANCH  14  18
BRANCH  15  20
ATOM     20  O   UNL     1      42.816   8.780  21.066  0.00  0.00    +0.000 OA
ATOM     21  C   UNL     1      43.592   9.940  20.763  0.00  0.00    +0.000 C 
ENDBRANCH  15  20
ENDBRANCH   7  12
ENDBRANCH   1   8
BRANCH   5  22
ATOM     22  C   UNL     1      35.139   2.443  15.918  0.00  0.00    +0.000 C 
BRANCH  22  23
ATOM     23  O   UNL     1      35.122   1.047  15.782  0.00  0.00    +0.000 OA
BRANCH  23  24
ATOM     24  C   UNL     1      35.713   0.264  16.756  0.00  0.00    +0.000 A 
ATOM     25  C   UNL     1      35.427   0.351  18.093  0.00  0.00    +0.000 A 
ATOM     26  C   UNL     1      36.029  -0.438  19.038  0.00  0.00    +0.000 A 
ATOM     27  C   UNL     1      36.968  -1.373  18.678  0.00  0.00    +0.000 A 
ATOM     28  C   UNL     1      37.571  -2.167  19.645  0.00  0.00    +0.000 A 
ATOM     29  C   UNL     1      38.511  -3.100  19.261  0.00  0.00    +0.000 A 
ATOM     30  C   UNL     1      38.841  -3.234  17.931  0.00  0.00    +0.000 A 
ATOM     31  C   UNL     1      38.227  -2.434  16.998  0.00  0.00    +0.000 A 
ATOM     32  C   UNL     1      37.272  -1.480  17.345  0.00  0.00    +0.000 A 
ATOM     33  C   UNL     1      36.672  -0.691  16.391  0.00  0.00    +0.000 A 
ENDBRANCH  23  24
ENDBRANCH  22  23
ENDBRANCH   5  22
TORSDOF 8
ENDMDL
MODEL 9
REMARK VINA RESULT:      -7.7     27.127     29.771
REMARK  Name = 
REMARK  8 active torsions:
REMARK  status: ('A' for Active; 'I' for Inactive)
REMARK    1  A    between atoms: O_2  and  C_3
REMARK    2  A    between atoms: C_5  and  N_6
REMARK    3  A    between atoms: C_7  and  C_9
REMARK    4  A    between atoms: C_13  and  C_14
REMARK    5  A    between atoms: C_14  and  O_15
REMARK    6  A    between atoms: O_15  and  C_16
REMARK    7  A    between atoms: C_28  and  O_29
REMARK    8  A    between atoms: C_31  and  O_32
REMARK                            x       y       z     vdW  Elec       q    Type
REMARK                         _______ _______ _______ _____ _____    ______ ____
ROOT
ATOM      1  C   UNL     1      43.880   6.169  21.658  0.00  0.00    +0.000 A 
ATOM      2  C   UNL     1      45.009   5.623  21.091  0.00  0.00    +0.000 A 
ATOM      3  C   UNL     1      46.062   5.151  21.861  0.00  0.00    +0.000 A 
ATOM      4  C   UNL     1      45.972   5.234  23.213  0.00  0.00    +0.000 A 
ATOM      5  C   UNL     1      44.869   5.769  23.805  0.00  0.00    +0.000 A 
ATOM      6  C   UNL     1      43.806   6.245  23.019  0.00  0.00    +0.000 A 
ENDROOT
BRANCH   1   8
ATOM      7  N   UNL     1      41.555   6.032  20.675  0.00  0.00    +0.000 NA
ATOM      8  C   UNL     1      42.824   6.638  20.780  0.00  0.00    +0.000 C 
ATOM      9  O   UNL     1      43.020   7.658  20.043  0.00  0.00    +0.000 OA
BRANCH   7  12
ATOM     10  C   UNL     1      39.416   6.671  17.719  0.00  0.00    +0.000 A 
ATOM     11  C   UNL     1      40.445   6.144  18.483  0.00  0.00    +0.000 A 
ATOM     12  C   UNL     1      40.526   6.519  19.794  0.00  0.00    +0.000 A 
ATOM     13  C   UNL     1      39.605   7.397  20.335  0.00  0.00    +0.000 A 
ATOM     14  C   UNL     1      38.583   7.919  19.574  0.00  0.00    +0.000 A 
ATOM     15  C   UNL     1      38.490   7.549  18.250  0.00  0.00    +0.000 A 
BRANCH  10  17
ATOM     16  C   UNL     1      40.170   6.894  15.450  0.00  0.00    +0.000 C 
ATOM     17  O   UNL     1      39.256   6.344  16.370  0.00  0.00    +0.000 OA
ENDBRANCH  10  17
BRANCH  14  18
ATOM     18  O   UNL     1      37.680   8.795  20.150  0.00  0.00    +0.000 OA
ATOM     19  C   UNL     1      38.151   9.927  20.843  0.00  0.00    +0.000 C 
ENDBRANCH  14  18
BRANCH  15  20
ATOM     20  O   UNL     1      37.449   8.092  17.508  0.00  0.00    +0.000 OA
ATOM     21  C   UNL     1      37.586   9.326  16.803  0.00  0.00    +0.000 C 
ENDBRANCH  15  20
ENDBRANCH   7  12
ENDBRANCH   1   8
BRANCH   5  22
ATOM     22  C   UNL     1      44.679   5.903  25.270  0.00  0.00    +0.000 C 
BRANCH  22  23
ATOM     23  O   UNL     1      44.293   4.664  25.803  0.00  0.00    +0.000 OA
BRANCH  23  24
ATOM     24  C   UNL     1      43.400   4.630  26.858  0.00  0.00    +0.000 A 
ATOM     25  C   UNL     1      43.295   3.591  27.746  0.00  0.00    +0.000 A 
ATOM     26  C   UNL     1      42.399   3.584  28.783  0.00  0.00    +0.000 A 
ATOM     27  C   UNL     1      41.548   4.642  28.985  0.00  0.00    +0.000 A 
ATOM     28  C   UNL     1      40.647   4.623  30.040  0.00  0.00    +0.000 A 
ATOM     29  C   UNL     1      39.801   5.697  30.224  0.00  0.00    +0.000 A 
ATOM     30  C   UNL     1      39.860   6.771  29.365  0.00  0.00    +0.000 A 
ATOM     31  C   UNL     1      40.764   6.761  28.330  0.00  0.00    +0.000 A 
ATOM     32  C   UNL     1      41.635   5.695  28.110  0.00  0.00    +0.000 A 
ATOM     33  C   UNL     1      42.531   5.709  27.066  0.00  0.00    +0.000 A 
ENDBRANCH  23  24
ENDBRANCH  22  23
ENDBRANCH   5  22
TORSDOF 8
ENDMDL
MODEL 10
REMARK VINA RESULT:      -7.6     24.342     27.148
REMARK  Name = 
REMARK  8 active torsions:
REMARK  status: ('A' for Active; 'I' for Inactive)
REMARK    1  A    between atoms: O_2  and  C_3
REMARK    2  A    between atoms: C_5  and  N_6
REMARK    3  A    between atoms: C_7  and  C_9
REMARK    4  A    between atoms: C_13  and  C_14
REMARK    5  A    between atoms: C_14  and  O_15
REMARK    6  A    between atoms: O_15  and  C_16
REMARK    7  A    between atoms: C_28  and  O_29
REMARK    8  A    between atoms: C_31  and  O_32
REMARK                            x       y       z     vdW  Elec       q    Type
REMARK                         _______ _______ _______ _____ _____    ______ ____
ROOT
ATOM      1  C   UNL     1      37.515   3.370  16.052  0.00  0.00    +0.000 A 
ATOM      2  C   UNL     1      37.774   2.971  14.761  0.00  0.00    +0.000 A 
ATOM      3  C   UNL     1      37.088   1.922  14.166  0.00  0.00    +0.000 A 
ATOM      4  C   UNL     1      36.133   1.274  14.882  0.00  0.00    +0.000 A 
ATOM      5  C   UNL     1      35.853   1.646  16.162  0.00  0.00    +0.000 A 
ATOM      6  C   UNL     1      36.552   2.708  16.759  0.00  0.00    +0.000 A 
ENDROOT
BRANCH   1   8
ATOM      7  N   UNL     1      38.020   5.073  17.851  0.00  0.00    +0.000 NA
ATOM      8  C   UNL     1      38.278   4.477  16.600  0.00  0.00    +0.000 C 
ATOM      9  O   UNL     1      39.248   4.965  15.936  0.00  0.00    +0.000 OA
BRANCH   7  12
ATOM     10  C   UNL     1      40.514   7.116  19.675  0.00  0.00    +0.000 A 
ATOM     11  C   UNL     1      39.833   5.992  19.235  0.00  0.00    +0.000 A 
ATOM     12  C   UNL     1      38.794   6.172  18.368  0.00  0.00    +0.000 A 
ATOM     13  C   UNL     1      38.436   7.440  17.947  0.00  0.00    +0.000 A 
ATOM     14  C   UNL     1      39.115   8.555  18.386  0.00  0.00    +0.000 A 
ATOM     15  C   UNL     1      40.167   8.387  19.261  0.00  0.00    +0.000 A 
BRANCH  10  17
ATOM     16  C   UNL     1      42.828   6.588  20.050  0.00  0.00    +0.000 C 
ATOM     17  O   UNL     1      41.590   7.027  20.562  0.00  0.00    +0.000 OA
ENDBRANCH  10  17
BRANCH  14  18
ATOM     18  O   UNL     1      38.729   9.808  17.943  0.00  0.00    +0.000 OA
ATOM     19  C   UNL     1      37.540  10.385  18.429  0.00  0.00    +0.000 C 
ENDBRANCH  14  18
BRANCH  15  20
ATOM     20  O   UNL     1      40.830   9.531  19.685  0.00  0.00    +0.000 OA
ATOM     21  C   UNL     1      40.412  10.265  20.837  0.00  0.00    +0.000 C 
ENDBRANCH  15  20
ENDBRANCH   7  12
ENDBRANCH   1   8
BRANCH   5  22
ATOM     22  C   UNL     1      34.831   1.000  17.022  0.00  0.00    +0.000 C 
BRANCH  22  23
ATOM     23  O   UNL     1      35.439   0.542  18.201  0.00  0.00    +0.000 OA
BRANCH  23  24
ATOM     24  C   UNL     1      36.192  -0.617  18.168  0.00  0.00    +0.000 A 
ATOM     25  C   UNL     1      37.326  -0.820  18.911  0.00  0.00    +0.000 A 
ATOM     26  C   UNL     1      38.054  -1.979  18.858  0.00  0.00    +0.000 A 
ATOM     27  C   UNL     1      37.672  -3.013  18.040  0.00  0.00    +0.000 A 
ATOM     28  C   UNL     1      38.419  -4.183  17.996  0.00  0.00    +0.000 A 
ATOM     29  C   UNL     1      38.016  -5.209  17.167  0.00  0.00    +0.000 A 
ATOM     30  C   UNL     1      36.885  -5.064  16.395  0.00  0.00    +0.000 A 
ATOM     31  C   UNL     1      36.167  -3.894  16.461  0.00  0.00    +0.000 A 
ATOM     32  C   UNL     1      36.540  -2.834  17.285  0.00  0.00    +0.000 A 
ATOM     33  C   UNL     1      35.804  -1.673  17.333  0.00  0.00    +0.000 A 
ENDBRANCH  23  24
ENDBRANCH  22  23
ENDBRANCH   5  22
TORSDOF 8
ENDMDL
