MODEL 1
REMARK VINA RESULT:      -6.4      0.000      0.000
REMARK  Name = 
REMARK  2 active torsions:
REMARK  status: ('A' for Active; 'I' for Inactive)
REMARK    1  A    between atoms: C_6  and  C_7
REMARK    2  A    between atoms: C_7  and  C_8
REMARK                            x       y       z     vdW  Elec       q    Type
REMARK                         _______ _______ _______ _____ _____    ______ ____
ROOT
ATOM      1  C   UNL     1      27.565  23.786  22.264  0.00  0.00    +0.000 C 
ATOM      2  N   UNL     1      26.625  24.585  22.977  0.00  0.00    +0.000 NA
ATOM      3  C   UNL     1      26.459  24.481  24.412  0.00  0.00    +0.000 A 
ATOM      4  N   UNL     1      27.103  23.684  25.249  0.00  0.00    +0.000 NA
ATOM      5  C   UNL     1      26.821  23.725  26.524  0.00  0.00    +0.000 A 
ATOM      6  C   UNL     1      27.430  22.934  27.519  0.00  0.00    +0.000 A 
ATOM      7  C   UNL     1      27.039  23.080  28.823  0.00  0.00    +0.000 A 
ATOM      8  C   UNL     1      27.672  22.246  29.913  0.00  0.00    +0.000 C 
ATOM      9  C   UNL     1      26.070  23.961  29.266  0.00  0.00    +0.000 A 
ATOM     10  O   UNL     1      25.680  24.106  30.575  0.00  0.00    +0.000 OA
ATOM     11  C   UNL     1      25.473  24.740  28.275  0.00  0.00    +0.000 A 
ATOM     12  C   UNL     1      24.420  25.733  28.558  0.00  0.00    +0.000 C 
ATOM     13  C   UNL     1      25.858  24.607  26.932  0.00  0.00    +0.000 A 
ATOM     14  S   UNL     1      25.407  25.334  25.449  0.00  0.00    +0.000 S 
ENDROOT
BRANCH   6  15
ATOM     15  C   UNL     1      28.479  21.933  27.218  0.00  0.00    +0.000 C 
BRANCH  15  16
ATOM     16  C   UNL     1      29.700  22.559  26.655  0.00  0.00    +0.000 A 
ATOM     17  C   UNL     1      30.164  22.319  25.371  0.00  0.00    +0.000 A 
ATOM     18  C   UNL     1      31.307  22.933  24.892  0.00  0.00    +0.000 A 
ATOM     19  C   UNL     1      32.020  23.805  25.682  0.00  0.00    +0.000 A 
ATOM     20  N   UNL     1      31.562  24.033  26.926  0.00  0.00    +0.000 NA
ATOM     21  C   UNL     1      30.438  23.437  27.417  0.00  0.00    +0.000 A 
ENDBRANCH  15  16
ENDBRANCH   6  15
TORSDOF 2
ENDMDL
MODEL 2
REMARK VINA RESULT:      -6.0      2.892      5.870
REMARK  Name = 
REMARK  2 active torsions:
REMARK  status: ('A' for Active; 'I' for Inactive)
REMARK    1  A    between atoms: C_6  and  C_7
REMARK    2  A    between atoms: C_7  and  C_8
REMARK                            x       y       z     vdW  Elec       q    Type
REMARK                         _______ _______ _______ _____ _____    ______ ____
ROOT
ATOM      1  C   UNL     1      31.515  22.922  28.304  0.00  0.00    +0.000 C 
ATOM      2  N   UNL     1      31.842  23.521  27.052  0.00  0.00    +0.000 NA
ATOM      3  C   UNL     1      30.864  23.673  25.995  0.00  0.00    +0.000 A 
ATOM      4  N   UNL     1      29.591  23.310  26.005  0.00  0.00    +0.000 NA
ATOM      5  C   UNL     1      28.850  23.528  24.952  0.00  0.00    +0.000 A 
ATOM      6  C   UNL     1      27.487  23.192  24.832  0.00  0.00    +0.000 A 
ATOM      7  C   UNL     1      26.827  23.479  23.667  0.00  0.00    +0.000 A 
ATOM      8  C   UNL     1      25.365  23.130  23.507  0.00  0.00    +0.000 C 
ATOM      9  C   UNL     1      27.394  24.087  22.564  0.00  0.00    +0.000 A 
ATOM     10  O   UNL     1      26.730  24.375  21.396  0.00  0.00    +0.000 OA
ATOM     11  C   UNL     1      28.744  24.417  22.691  0.00  0.00    +0.000 A 
ATOM     12  C   UNL     1      29.517  25.070  21.618  0.00  0.00    +0.000 C 
ATOM     13  C   UNL     1      29.441  24.131  23.876  0.00  0.00    +0.000 A 
ATOM     14  S   UNL     1      31.041  24.354  24.442  0.00  0.00    +0.000 S 
ENDROOT
BRANCH   6  15
ATOM     15  C   UNL     1      26.726  22.525  25.914  0.00  0.00    +0.000 C 
BRANCH  15  16
ATOM     16  C   UNL     1      26.274  23.487  26.949  0.00  0.00    +0.000 A 
ATOM     17  C   UNL     1      25.355  24.496  26.711  0.00  0.00    +0.000 A 
ATOM     18  C   UNL     1      24.964  25.365  27.714  0.00  0.00    +0.000 A 
ATOM     19  C   UNL     1      25.480  25.249  28.985  0.00  0.00    +0.000 A 
ATOM     20  N   UNL     1      26.371  24.267  29.207  0.00  0.00    +0.000 NA
ATOM     21  C   UNL     1      26.770  23.401  28.232  0.00  0.00    +0.000 A 
ENDBRANCH  15  16
ENDBRANCH   6  15
TORSDOF 2
ENDMDL
MODEL 3
REMARK VINA RESULT:      -6.0      2.537      4.356
REMARK  Name = 
REMARK  2 active torsions:
REMARK  status: ('A' for Active; 'I' for Inactive)
REMARK    1  A    between atoms: C_6  and  C_7
REMARK    2  A    between atoms: C_7  and  C_8
REMARK                            x       y       z     vdW  Elec       q    Type
REMARK                         _______ _______ _______ _____ _____    ______ ____
ROOT
ATOM      1  C   UNL     1      31.055  21.806  31.614  0.00  0.00    +0.000 C 
ATOM      2  N   UNL     1      29.996  22.717  31.891  0.00  0.00    +0.000 NA
ATOM      3  C   UNL     1      29.023  23.093  30.886  0.00  0.00    +0.000 A 
ATOM      4  N   UNL     1      28.954  22.685  29.628  0.00  0.00    +0.000 NA
ATOM      5  C   UNL     1      27.999  23.132  28.857  0.00  0.00    +0.000 A 
ATOM      6  C   UNL     1      27.811  22.780  27.506  0.00  0.00    +0.000 A 
ATOM      7  C   UNL     1      26.764  23.324  26.811  0.00  0.00    +0.000 A 
ATOM      8  C   UNL     1      26.537  22.967  25.360  0.00  0.00    +0.000 C 
ATOM      9  C   UNL     1      25.845  24.215  27.332  0.00  0.00    +0.000 A 
ATOM     10  O   UNL     1      24.795  24.759  26.634  0.00  0.00    +0.000 OA
ATOM     11  C   UNL     1      26.038  24.558  28.671  0.00  0.00    +0.000 A 
ATOM     12  C   UNL     1      25.159  25.494  29.396  0.00  0.00    +0.000 C 
ATOM     13  C   UNL     1      27.105  24.013  29.402  0.00  0.00    +0.000 A 
ATOM     14  S   UNL     1      27.691  24.151  31.004  0.00  0.00    +0.000 S 
ENDROOT
BRANCH   6  15
ATOM     15  C   UNL     1      28.709  21.846  26.787  0.00  0.00    +0.000 C 
BRANCH  15  16
ATOM     16  C   UNL     1      29.834  22.552  26.128  0.00  0.00    +0.000 A 
ATOM     17  C   UNL     1      30.805  23.261  26.816  0.00  0.00    +0.000 A 
ATOM     18  C   UNL     1      31.837  23.899  26.153  0.00  0.00    +0.000 A 
ATOM     19  C   UNL     1      31.929  23.847  24.780  0.00  0.00    +0.000 A 
ATOM     20  N   UNL     1      30.982  23.157  24.120  0.00  0.00    +0.000 NA
ATOM     21  C   UNL     1      29.957  22.521  24.756  0.00  0.00    +0.000 A 
ENDBRANCH  15  16
ENDBRANCH   6  15
TORSDOF 2
ENDMDL
MODEL 4
REMARK VINA RESULT:      -5.9      3.244      6.170
REMARK  Name = 
REMARK  2 active torsions:
REMARK  status: ('A' for Active; 'I' for Inactive)
REMARK    1  A    between atoms: C_6  and  C_7
REMARK    2  A    between atoms: C_7  and  C_8
REMARK                            x       y       z     vdW  Elec       q    Type
REMARK                         _______ _______ _______ _____ _____    ______ ____
ROOT
ATOM      1  C   UNL     1      30.190  22.524  31.930  0.00  0.00    +0.000 C 
ATOM      2  N   UNL     1      31.060  22.530  30.802  0.00  0.00    +0.000 NA
ATOM      3  C   UNL     1      30.559  22.615  29.445  0.00  0.00    +0.000 A 
ATOM      4  N   UNL     1      29.300  22.696  29.046  0.00  0.00    +0.000 NA
ATOM      5  C   UNL     1      29.031  22.766  27.770  0.00  0.00    +0.000 A 
ATOM      6  C   UNL     1      27.740  22.855  27.214  0.00  0.00    +0.000 A 
ATOM      7  C   UNL     1      27.600  22.924  25.853  0.00  0.00    +0.000 A 
ATOM      8  C   UNL     1      26.228  23.019  25.226  0.00  0.00    +0.000 C 
ATOM      9  C   UNL     1      28.644  22.913  24.948  0.00  0.00    +0.000 A 
ATOM     10  O   UNL     1      28.501  22.983  23.583  0.00  0.00    +0.000 OA
ATOM     11  C   UNL     1      29.919  22.825  25.507  0.00  0.00    +0.000 A 
ATOM     12  C   UNL     1      31.152  22.799  24.698  0.00  0.00    +0.000 C 
ATOM     13  C   UNL     1      30.086  22.753  26.899  0.00  0.00    +0.000 A 
ATOM     14  S   UNL     1      31.416  22.640  27.971  0.00  0.00    +0.000 S 
ENDROOT
BRANCH   6  15
ATOM     15  C   UNL     1      26.509  22.869  28.039  0.00  0.00    +0.000 C 
BRANCH  15  16
ATOM     16  C   UNL     1      26.327  24.160  28.744  0.00  0.00    +0.000 A 
ATOM     17  C   UNL     1      26.459  25.396  28.131  0.00  0.00    +0.000 A 
ATOM     18  C   UNL     1      26.274  26.572  28.834  0.00  0.00    +0.000 A 
ATOM     19  C   UNL     1      25.951  26.548  30.172  0.00  0.00    +0.000 A 
ATOM     20  N   UNL     1      25.825  25.345  30.759  0.00  0.00    +0.000 NA
ATOM     21  C   UNL     1      26.003  24.174  30.083  0.00  0.00    +0.000 A 
ENDBRANCH  15  16
ENDBRANCH   6  15
TORSDOF 2
ENDMDL
MODEL 5
REMARK VINA RESULT:      -5.9     22.577     24.573
REMARK  Name = 
REMARK  2 active torsions:
REMARK  status: ('A' for Active; 'I' for Inactive)
REMARK    1  A    between atoms: C_6  and  C_7
REMARK    2  A    between atoms: C_7  and  C_8
REMARK                            x       y       z     vdW  Elec       q    Type
REMARK                         _______ _______ _______ _____ _____    ______ ____
ROOT
ATOM      1  C   UNL     1      34.309   0.288  40.249  0.00  0.00    +0.000 C 
ATOM      2  N   UNL     1      34.205  -0.409  39.011  0.00  0.00    +0.000 NA
ATOM      3  C   UNL     1      34.100   0.286  37.744  0.00  0.00    +0.000 A 
ATOM      4  N   UNL     1      34.084   1.592  37.532  0.00  0.00    +0.000 NA
ATOM      5  C   UNL     1      33.983   2.045  36.311  0.00  0.00    +0.000 A 
ATOM      6  C   UNL     1      33.954   3.406  35.947  0.00  0.00    +0.000 A 
ATOM      7  C   UNL     1      33.846   3.744  34.625  0.00  0.00    +0.000 A 
ATOM      8  C   UNL     1      33.811   5.195  34.203  0.00  0.00    +0.000 C 
ATOM      9  C   UNL     1      33.760   2.842  33.581  0.00  0.00    +0.000 A 
ATOM     10  O   UNL     1      33.652   3.184  32.255  0.00  0.00    +0.000 OA
ATOM     11  C   UNL     1      33.789   1.497  33.950  0.00  0.00    +0.000 A 
ATOM     12  C   UNL     1      33.708   0.394  32.974  0.00  0.00    +0.000 C 
ATOM     13  C   UNL     1      33.899   1.128  35.300  0.00  0.00    +0.000 A 
ATOM     14  S   UNL     1      33.971  -0.347  36.166  0.00  0.00    +0.000 S 
ENDROOT
BRANCH   6  15
ATOM     15  C   UNL     1      34.026   4.504  36.940  0.00  0.00    +0.000 C 
BRANCH  15  16
ATOM     16  C   UNL     1      35.415   4.750  37.397  0.00  0.00    +0.000 A 
ATOM     17  C   UNL     1      36.519   4.695  36.562  0.00  0.00    +0.000 A 
ATOM     18  C   UNL     1      37.795   4.938  37.038  0.00  0.00    +0.000 A 
ATOM     19  C   UNL     1      38.004   5.243  38.363  0.00  0.00    +0.000 A 
ATOM     20  N   UNL     1      36.927   5.294  39.167  0.00  0.00    +0.000 NA
ATOM     21  C   UNL     1      35.661   5.058  38.717  0.00  0.00    +0.000 A 
ENDBRANCH  15  16
ENDBRANCH   6  15
TORSDOF 2
ENDMDL
MODEL 6
REMARK VINA RESULT:      -5.8     33.051     34.400
REMARK  Name = 
REMARK  2 active torsions:
REMARK  status: ('A' for Active; 'I' for Inactive)
REMARK    1  A    between atoms: C_6  and  C_7
REMARK    2  A    between atoms: C_7  and  C_8
REMARK                            x       y       z     vdW  Elec       q    Type
REMARK                         _______ _______ _______ _____ _____    ______ ____
ROOT
ATOM      1  C   UNL     1      20.984 -13.540  26.784  0.00  0.00    +0.000 C 
ATOM      2  N   UNL     1      21.779 -12.526  26.175  0.00  0.00    +0.000 NA
ATOM      3  C   UNL     1      21.344 -11.146  26.105  0.00  0.00    +0.000 A 
ATOM      4  N   UNL     1      20.215 -10.626  26.561  0.00  0.00    +0.000 NA
ATOM      5  C   UNL     1      19.987  -9.349  26.409  0.00  0.00    +0.000 A 
ATOM      6  C   UNL     1      18.832  -8.670  26.844  0.00  0.00    +0.000 A 
ATOM      7  C   UNL     1      18.722  -7.324  26.621  0.00  0.00    +0.000 A 
ATOM      8  C   UNL     1      17.495  -6.567  27.075  0.00  0.00    +0.000 C 
ATOM      9  C   UNL     1      19.671  -6.545  25.986  0.00  0.00    +0.000 A 
ATOM     10  O   UNL     1      19.558  -5.195  25.763  0.00  0.00    +0.000 OA
ATOM     11  C   UNL     1      20.811  -7.225  25.557  0.00  0.00    +0.000 A 
ATOM     12  C   UNL     1      21.929  -6.561  24.861  0.00  0.00    +0.000 C 
ATOM     13  C   UNL     1      20.945  -8.605  25.776  0.00  0.00    +0.000 A 
ATOM     14  S   UNL     1      22.130  -9.792  25.432  0.00  0.00    +0.000 S 
ENDROOT
BRANCH   6  15
ATOM     15  C   UNL     1      17.712  -9.352  27.534  0.00  0.00    +0.000 C 
BRANCH  15  16
ATOM     16  C   UNL     1      18.114  -9.879  28.861  0.00  0.00    +0.000 A 
ATOM     17  C   UNL     1      18.932  -9.192  29.743  0.00  0.00    +0.000 A 
ATOM     18  C   UNL     1      19.274  -9.726  30.972  0.00  0.00    +0.000 A 
ATOM     19  C   UNL     1      18.806 -10.962  31.356  0.00  0.00    +0.000 A 
ATOM     20  N   UNL     1      18.011 -11.621  30.494  0.00  0.00    +0.000 NA
ATOM     21  C   UNL     1      17.663 -11.112  29.278  0.00  0.00    +0.000 A 
ENDBRANCH  15  16
ENDBRANCH   6  15
TORSDOF 2
ENDMDL
MODEL 7
REMARK VINA RESULT:      -5.8     18.620     20.832
REMARK  Name = 
REMARK  2 active torsions:
REMARK  status: ('A' for Active; 'I' for Inactive)
REMARK    1  A    between atoms: C_6  and  C_7
REMARK    2  A    between atoms: C_7  and  C_8
REMARK                            x       y       z     vdW  Elec       q    Type
REMARK                         _______ _______ _______ _____ _____    ______ ____
ROOT
ATOM      1  C   UNL     1      22.503   7.019  40.703  0.00  0.00    +0.000 C 
ATOM      2  N   UNL     1      21.269   7.056  41.415  0.00  0.00    +0.000 NA
ATOM      3  C   UNL     1      20.112   7.768  40.911  0.00  0.00    +0.000 A 
ATOM      4  N   UNL     1      20.007   8.455  39.786  0.00  0.00    +0.000 NA
ATOM      5  C   UNL     1      18.876   9.037  39.490  0.00  0.00    +0.000 A 
ATOM      6  C   UNL     1      18.630   9.797  38.329  0.00  0.00    +0.000 A 
ATOM      7  C   UNL     1      17.393  10.353  38.141  0.00  0.00    +0.000 A 
ATOM      8  C   UNL     1      17.098  11.174  36.906  0.00  0.00    +0.000 C 
ATOM      9  C   UNL     1      16.329  10.233  39.016  0.00  0.00    +0.000 A 
ATOM     10  O   UNL     1      15.089  10.791  38.825  0.00  0.00    +0.000 OA
ATOM     11  C   UNL     1      16.581   9.479  40.162  0.00  0.00    +0.000 A 
ATOM     12  C   UNL     1      15.568   9.243  41.208  0.00  0.00    +0.000 C 
ATOM     13  C   UNL     1      17.842   8.901  40.375  0.00  0.00    +0.000 A 
ATOM     14  S   UNL     1      18.559   7.936  41.594  0.00  0.00    +0.000 S 
ENDROOT
BRANCH   6  15
ATOM     15  C   UNL     1      19.661  10.035  37.291  0.00  0.00    +0.000 C 
BRANCH  15  16
ATOM     16  C   UNL     1      20.668  11.033  37.727  0.00  0.00    +0.000 A 
ATOM     17  C   UNL     1      20.342  12.250  38.303  0.00  0.00    +0.000 A 
ATOM     18  C   UNL     1      21.321  13.145  38.696  0.00  0.00    +0.000 A 
ATOM     19  C   UNL     1      22.654  12.849  38.525  0.00  0.00    +0.000 A 
ATOM     20  N   UNL     1      22.961  11.665  37.965  0.00  0.00    +0.000 NA
ATOM     21  C   UNL     1      22.011  10.769  37.571  0.00  0.00    +0.000 A 
ENDBRANCH  15  16
ENDBRANCH   6  15
TORSDOF 2
ENDMDL
MODEL 8
REMARK VINA RESULT:      -5.6     30.275     31.696
REMARK  Name = 
REMARK  2 active torsions:
REMARK  status: ('A' for Active; 'I' for Inactive)
REMARK    1  A    between atoms: C_6  and  C_7
REMARK    2  A    between atoms: C_7  and  C_8
REMARK                            x       y       z     vdW  Elec       q    Type
REMARK                         _______ _______ _______ _____ _____    ______ ____
ROOT
ATOM      1  C   UNL     1      30.507  -6.577  35.874  0.00  0.00    +0.000 C 
ATOM      2  N   UNL     1      30.162  -7.579  34.921  0.00  0.00    +0.000 NA
ATOM      3  C   UNL     1      30.718  -7.590  33.583  0.00  0.00    +0.000 A 
ATOM      4  N   UNL     1      31.578  -6.736  33.053  0.00  0.00    +0.000 NA
ATOM      5  C   UNL     1      31.974  -6.903  31.819  0.00  0.00    +0.000 A 
ATOM      6  C   UNL     1      32.882  -6.070  31.136  0.00  0.00    +0.000 A 
ATOM      7  C   UNL     1      33.214  -6.362  29.840  0.00  0.00    +0.000 A 
ATOM      8  C   UNL     1      34.185  -5.487  29.080  0.00  0.00    +0.000 C 
ATOM      9  C   UNL     1      32.722  -7.433  29.118  0.00  0.00    +0.000 A 
ATOM     10  O   UNL     1      33.057  -7.724  27.818  0.00  0.00    +0.000 OA
ATOM     11  C   UNL     1      31.824  -8.252  29.802  0.00  0.00    +0.000 A 
ATOM     12  C   UNL     1      31.196  -9.441  29.194  0.00  0.00    +0.000 C 
ATOM     13  C   UNL     1      31.470  -7.972  31.131  0.00  0.00    +0.000 A 
ATOM     14  S   UNL     1      30.446  -8.684  32.304  0.00  0.00    +0.000 S 
ENDROOT
BRANCH   6  15
ATOM     15  C   UNL     1      33.497  -4.873  31.756  0.00  0.00    +0.000 C 
BRANCH  15  16
ATOM     16  C   UNL     1      34.547  -5.234  32.740  0.00  0.00    +0.000 A 
ATOM     17  C   UNL     1      35.641  -6.029  32.439  0.00  0.00    +0.000 A 
ATOM     18  C   UNL     1      36.595  -6.332  33.393  0.00  0.00    +0.000 A 
ATOM     19  C   UNL     1      36.483  -5.849  34.677  0.00  0.00    +0.000 A 
ATOM     20  N   UNL     1      35.419  -5.078  34.961  0.00  0.00    +0.000 NA
ATOM     21  C   UNL     1      34.467  -4.767  34.034  0.00  0.00    +0.000 A 
ENDBRANCH  15  16
ENDBRANCH   6  15
TORSDOF 2
ENDMDL
MODEL 9
REMARK VINA RESULT:      -5.6      3.228      5.940
REMARK  Name = 
REMARK  2 active torsions:
REMARK  status: ('A' for Active; 'I' for Inactive)
REMARK    1  A    between atoms: C_6  and  C_7
REMARK    2  A    between atoms: C_7  and  C_8
REMARK                            x       y       z     vdW  Elec       q    Type
REMARK                         _______ _______ _______ _____ _____    ______ ____
ROOT
ATOM      1  C   UNL     1      34.256  24.894  24.566  0.00  0.00    +0.000 C 
ATOM      2  N   UNL     1      33.474  24.326  25.614  0.00  0.00    +0.000 NA
ATOM      3  C   UNL     1      32.065  24.033  25.449  0.00  0.00    +0.000 A 
ATOM      4  N   UNL     1      31.314  24.227  24.377  0.00  0.00    +0.000 NA
ATOM      5  C   UNL     1      30.050  23.900  24.408  0.00  0.00    +0.000 A 
ATOM      6  C   UNL     1      29.142  24.054  23.342  0.00  0.00    +0.000 A 
ATOM      7  C   UNL     1      27.840  23.667  23.509  0.00  0.00    +0.000 A 
ATOM      8  C   UNL     1      26.842  23.820  22.384  0.00  0.00    +0.000 C 
ATOM      9  C   UNL     1      27.318  23.123  24.667  0.00  0.00    +0.000 A 
ATOM     10  O   UNL     1      26.010  22.735  24.833  0.00  0.00    +0.000 OA
ATOM     11  C   UNL     1      28.223  22.974  25.719  0.00  0.00    +0.000 A 
ATOM     12  C   UNL     1      27.847  22.412  27.030  0.00  0.00    +0.000 C 
ATOM     13  C   UNL     1      29.563  23.364  25.569  0.00  0.00    +0.000 A 
ATOM     14  S   UNL     1      30.959  23.359  26.558  0.00  0.00    +0.000 S 
ENDROOT
BRANCH   6  15
ATOM     15  C   UNL     1      29.531  24.630  22.033  0.00  0.00    +0.000 C 
BRANCH  15  16
ATOM     16  C   UNL     1      29.291  26.093  21.976  0.00  0.00    +0.000 A 
ATOM     17  C   UNL     1      29.429  26.937  23.066  0.00  0.00    +0.000 A 
ATOM     18  C   UNL     1      29.197  28.296  22.958  0.00  0.00    +0.000 A 
ATOM     19  C   UNL     1      28.820  28.851  21.756  0.00  0.00    +0.000 A 
ATOM     20  N   UNL     1      28.688  28.025  20.704  0.00  0.00    +0.000 NA
ATOM     21  C   UNL     1      28.912  26.682  20.790  0.00  0.00    +0.000 A 
ENDBRANCH  15  16
ENDBRANCH   6  15
TORSDOF 2
ENDMDL
MODEL 10
REMARK VINA RESULT:      -5.6     22.114     23.304
REMARK  Name = 
REMARK  2 active torsions:
REMARK  status: ('A' for Active; 'I' for Inactive)
REMARK    1  A    between atoms: C_6  and  C_7
REMARK    2  A    between atoms: C_7  and  C_8
REMARK                            x       y       z     vdW  Elec       q    Type
REMARK                         _______ _______ _______ _____ _____    ______ ____
ROOT
ATOM      1  C   UNL     1      28.952   0.499  16.851  0.00  0.00    +0.000 C 
ATOM      2  N   UNL     1      27.768  -0.082  16.310  0.00  0.00    +0.000 NA
ATOM      3  C   UNL     1      26.456   0.483  16.551  0.00  0.00    +0.000 A 
ATOM      4  N   UNL     1      26.151   1.556  17.263  0.00  0.00    +0.000 NA
ATOM      5  C   UNL     1      24.902   1.922  17.374  0.00  0.00    +0.000 A 
ATOM      6  C   UNL     1      24.442   3.039  18.099  0.00  0.00    +0.000 A 
ATOM      7  C   UNL     1      23.100   3.311  18.131  0.00  0.00    +0.000 A 
ATOM      8  C   UNL     1      22.575   4.501  18.901  0.00  0.00    +0.000 C 
ATOM      9  C   UNL     1      22.125   2.564  17.497  0.00  0.00    +0.000 A 
ATOM     10  O   UNL     1      20.780   2.839  17.530  0.00  0.00    +0.000 OA
ATOM     11  C   UNL     1      22.589   1.460  16.781  0.00  0.00    +0.000 A 
ATOM     12  C   UNL     1      21.696   0.548  16.042  0.00  0.00    +0.000 C 
ATOM     13  C   UNL     1      23.960   1.163  16.735  0.00  0.00    +0.000 A 
ATOM     14  S   UNL     1      24.929  -0.045  16.005  0.00  0.00    +0.000 S 
ENDROOT
BRANCH   6  15
ATOM     15  C   UNL     1      25.350   3.941  18.846  0.00  0.00    +0.000 C 
BRANCH  15  16
ATOM     16  C   UNL     1      25.952   4.974  17.969  0.00  0.00    +0.000 A 
ATOM     17  C   UNL     1      26.965   5.829  18.373  0.00  0.00    +0.000 A 
ATOM     18  C   UNL     1      27.497   6.773  17.514  0.00  0.00    +0.000 A 
ATOM     19  C   UNL     1      27.031   6.890  16.224  0.00  0.00    +0.000 A 
ATOM     20  N   UNL     1      26.047   6.057  15.840  0.00  0.00    +0.000 NA
ATOM     21  C   UNL     1      25.510   5.120  16.672  0.00  0.00    +0.000 A 
ENDBRANCH  15  16
ENDBRANCH   6  15
TORSDOF 2
ENDMDL
