MODEL 1
REMARK VINA RESULT:      -7.1      0.000      0.000
REMARK  Name = 
REMARK  2 active torsions:
REMARK  status: ('A' for Active; 'I' for Inactive)
REMARK    1  A    between atoms: C_8  and  S_9
REMARK    2  A    between atoms: S_9  and  C_10
REMARK                            x       y       z     vdW  Elec       q    Type
REMARK                         _______ _______ _______ _____ _____    ______ ____
ROOT
ATOM      1  S   UNL     1      17.212  10.201  37.130  0.00  0.00    +0.000 S 
ENDROOT
BRANCH   1   9
ATOM      2  C   UNL     1      20.370  10.988  39.938  0.00  0.00    +0.000 C 
ATOM      3  C   UNL     1      20.515  11.934  38.766  0.00  0.00    +0.000 C 
ATOM      4  C   UNL     1      20.838  13.305  39.306  0.00  0.00    +0.000 C 
ATOM      5  C   UNL     1      21.654  11.423  37.913  0.00  0.00    +0.000 C 
ATOM      6  C   UNL     1      21.288  10.213  37.154  0.00  0.00    +0.000 C 
ATOM      7  O   UNL     1      22.160   9.468  36.655  0.00  0.00    +0.000 OA
ATOM      8  C   UNL     1      19.890   9.889  36.991  0.00  0.00    +0.000 C 
ATOM      9  C   UNL     1      18.916  10.675  37.368  0.00  0.00    +0.000 C 
ATOM     10  C   UNL     1      19.204  11.977  38.002  0.00  0.00    +0.000 C 
ENDBRANCH   1   9
BRANCH   1  11
ATOM     11  C   UNL     1      16.653  10.631  35.488  0.00  0.00    +0.000 A 
ATOM     12  N   UNL     1      16.993  10.092  34.306  0.00  0.00    +0.000 NA
ATOM     13  C   UNL     1      16.355  10.691  33.287  0.00  0.00    +0.000 A 
ATOM     14  C   UNL     1      16.325  10.550  31.919  0.00  0.00    +0.000 A 
ATOM     15  C   UNL     1      15.535  11.352  31.124  0.00  0.00    +0.000 A 
ATOM     16  C   UNL     1      14.751  12.324  31.709  0.00  0.00    +0.000 A 
ATOM     17  C   UNL     1      14.764  12.483  33.082  0.00  0.00    +0.000 A 
ATOM     18  C   UNL     1      15.569  11.663  33.867  0.00  0.00    +0.000 A 
ATOM     19  N   UNL     1      15.770  11.602  35.203  0.00  0.00    +0.000 NA
ENDBRANCH   1  11
TORSDOF 2
ENDMDL
MODEL 2
REMARK VINA RESULT:      -7.0      3.028      6.578
REMARK  Name = 
REMARK  2 active torsions:
REMARK  status: ('A' for Active; 'I' for Inactive)
REMARK    1  A    between atoms: C_8  and  S_9
REMARK    2  A    between atoms: S_9  and  C_10
REMARK                            x       y       z     vdW  Elec       q    Type
REMARK                         _______ _______ _______ _____ _____    ______ ____
ROOT
ATOM      1  S   UNL     1      18.718   9.467  37.977  0.00  0.00    +0.000 S 
ENDROOT
BRANCH   1   9
ATOM      2  C   UNL     1      16.648  12.963  36.574  0.00  0.00    +0.000 C 
ATOM      3  C   UNL     1      15.712  11.777  36.489  0.00  0.00    +0.000 C 
ATOM      4  C   UNL     1      14.357  12.213  36.992  0.00  0.00    +0.000 C 
ATOM      5  C   UNL     1      15.627  11.373  35.035  0.00  0.00    +0.000 C 
ATOM      6  C   UNL     1      16.853  10.699  34.568  0.00  0.00    +0.000 C 
ATOM      7  O   UNL     1      17.107  10.579  33.349  0.00  0.00    +0.000 OA
ATOM      8  C   UNL     1      17.773  10.170  35.547  0.00  0.00    +0.000 C 
ATOM      9  C   UNL     1      17.526  10.138  36.831  0.00  0.00    +0.000 C 
ATOM     10  C   UNL     1      16.251  10.660  37.363  0.00  0.00    +0.000 C 
ENDBRANCH   1   9
BRANCH   1  11
ATOM     11  C   UNL     1      20.372  10.004  37.566  0.00  0.00    +0.000 A 
ATOM     12  N   UNL     1      21.160   9.624  36.546  0.00  0.00    +0.000 NA
ATOM     13  C   UNL     1      22.345  10.258  36.575  0.00  0.00    +0.000 A 
ATOM     14  C   UNL     1      23.486  10.255  35.807  0.00  0.00    +0.000 A 
ATOM     15  C   UNL     1      24.568  11.051  36.114  0.00  0.00    +0.000 A 
ATOM     16  C   UNL     1      24.513  11.873  37.219  0.00  0.00    +0.000 A 
ATOM     17  C   UNL     1      23.377  11.893  38.005  0.00  0.00    +0.000 A 
ATOM     18  C   UNL     1      22.293  11.082  37.678  0.00  0.00    +0.000 A 
ATOM     19  N   UNL     1      21.085  10.907  38.259  0.00  0.00    +0.000 NA
ENDBRANCH   1  11
TORSDOF 2
ENDMDL
MODEL 3
REMARK VINA RESULT:      -6.6     28.432     30.171
REMARK  Name = 
REMARK  2 active torsions:
REMARK  status: ('A' for Active; 'I' for Inactive)
REMARK    1  A    between atoms: C_8  and  S_9
REMARK    2  A    between atoms: S_9  and  C_10
REMARK                            x       y       z     vdW  Elec       q    Type
REMARK                         _______ _______ _______ _____ _____    ______ ____
ROOT
ATOM      1  S   UNL     1      31.441  21.136   9.915  0.00  0.00    +0.000 S 
ENDROOT
BRANCH   1   9
ATOM      2  C   UNL     1      35.453  19.595   9.955  0.00  0.00    +0.000 C 
ATOM      3  C   UNL     1      35.175  20.261  11.285  0.00  0.00    +0.000 C 
ATOM      4  C   UNL     1      35.726  19.376  12.376  0.00  0.00    +0.000 C 
ATOM      5  C   UNL     1      35.887  21.595  11.280  0.00  0.00    +0.000 C 
ATOM      6  C   UNL     1      35.219  22.583  10.413  0.00  0.00    +0.000 C 
ATOM      7  O   UNL     1      35.810  23.616  10.026  0.00  0.00    +0.000 OA
ATOM      8  C   UNL     1      33.854  22.345  10.009  0.00  0.00    +0.000 C 
ATOM      9  C   UNL     1      33.123  21.363  10.467  0.00  0.00    +0.000 C 
ATOM     10  C   UNL     1      33.675  20.414  11.456  0.00  0.00    +0.000 C 
ENDBRANCH   1   9
BRANCH   1  11
ATOM     11  C   UNL     1      30.294  21.960  11.010  0.00  0.00    +0.000 A 
ATOM     12  N   UNL     1      30.544  22.700  12.104  0.00  0.00    +0.000 NA
ATOM     13  C   UNL     1      29.410  23.154  12.663  0.00  0.00    +0.000 A 
ATOM     14  C   UNL     1      29.087  23.927  13.754  0.00  0.00    +0.000 A 
ATOM     15  C   UNL     1      27.779  24.223  14.071  0.00  0.00    +0.000 A 
ATOM     16  C   UNL     1      26.763  23.735  13.278  0.00  0.00    +0.000 A 
ATOM     17  C   UNL     1      27.063  22.957  12.176  0.00  0.00    +0.000 A 
ATOM     18  C   UNL     1      28.391  22.669  11.873  0.00  0.00    +0.000 A 
ATOM     19  N   UNL     1      28.957  21.949  10.878  0.00  0.00    +0.000 NA
ENDBRANCH   1  11
TORSDOF 2
ENDMDL
MODEL 4
REMARK VINA RESULT:      -6.5      3.833      4.668
REMARK  Name = 
REMARK  2 active torsions:
REMARK  status: ('A' for Active; 'I' for Inactive)
REMARK    1  A    between atoms: C_8  and  S_9
REMARK    2  A    between atoms: S_9  and  C_10
REMARK                            x       y       z     vdW  Elec       q    Type
REMARK                         _______ _______ _______ _____ _____    ______ ____
ROOT
ATOM      1  S   UNL     1      18.473  10.339  39.082  0.00  0.00    +0.000 S 
ENDROOT
BRANCH   1   9
ATOM      2  C   UNL     1      19.290   7.176  41.876  0.00  0.00    +0.000 C 
ATOM      3  C   UNL     1      18.523   6.604  40.703  0.00  0.00    +0.000 C 
ATOM      4  C   UNL     1      19.160   5.289  40.324  0.00  0.00    +0.000 C 
ATOM      5  C   UNL     1      17.098   6.385  41.160  0.00  0.00    +0.000 C 
ATOM      6  C   UNL     1      16.352   7.650  41.293  0.00  0.00    +0.000 C 
ATOM      7  O   UNL     1      15.290   7.714  41.950  0.00  0.00    +0.000 OA
ATOM      8  C   UNL     1      16.868   8.834  40.648  0.00  0.00    +0.000 C 
ATOM      9  C   UNL     1      17.897   8.830  39.841  0.00  0.00    +0.000 C 
ATOM     10  C   UNL     1      18.608   7.571  39.538  0.00  0.00    +0.000 C 
ENDBRANCH   1   9
BRANCH   1  11
ATOM     11  C   UNL     1      17.799  10.525  37.438  0.00  0.00    +0.000 A 
ATOM     12  N   UNL     1      18.266  10.055  36.269  0.00  0.00    +0.000 NA
ATOM     13  C   UNL     1      17.474  10.407  35.243  0.00  0.00    +0.000 A 
ATOM     14  C   UNL     1      17.472  10.206  33.882  0.00  0.00    +0.000 A 
ATOM     15  C   UNL     1      16.479  10.718  33.075  0.00  0.00    +0.000 A 
ATOM     16  C   UNL     1      15.458  11.453  33.640  0.00  0.00    +0.000 A 
ATOM     17  C   UNL     1      15.439  11.667  35.005  0.00  0.00    +0.000 A 
ATOM     18  C   UNL     1      16.451  11.140  35.803  0.00  0.00    +0.000 A 
ATOM     19  N   UNL     1      16.675  11.195  37.136  0.00  0.00    +0.000 NA
ENDBRANCH   1  11
TORSDOF 2
ENDMDL
MODEL 5
REMARK VINA RESULT:      -6.4      3.804      4.698
REMARK  Name = 
REMARK  2 active torsions:
REMARK  status: ('A' for Active; 'I' for Inactive)
REMARK    1  A    between atoms: C_8  and  S_9
REMARK    2  A    between atoms: S_9  and  C_10
REMARK                            x       y       z     vdW  Elec       q    Type
REMARK                         _______ _______ _______ _____ _____    ______ ____
ROOT
ATOM      1  S   UNL     1      19.162   9.195  38.743  0.00  0.00    +0.000 S 
ENDROOT
BRANCH   1   9
ATOM      2  C   UNL     1      15.566   9.167  41.097  0.00  0.00    +0.000 C 
ATOM      3  C   UNL     1      16.757   9.078  42.027  0.00  0.00    +0.000 C 
ATOM      4  C   UNL     1      16.509   9.999  43.196  0.00  0.00    +0.000 C 
ATOM      5  C   UNL     1      16.854   7.645  42.499  0.00  0.00    +0.000 C 
ATOM      6  C   UNL     1      17.350   6.740  41.446  0.00  0.00    +0.000 C 
ATOM      7  O   UNL     1      17.199   5.500  41.527  0.00  0.00    +0.000 OA
ATOM      8  C   UNL     1      18.021   7.307  40.300  0.00  0.00    +0.000 C 
ATOM      9  C   UNL     1      18.332   8.572  40.194  0.00  0.00    +0.000 C 
ATOM     10  C   UNL     1      18.001   9.519  41.279  0.00  0.00    +0.000 C 
ENDBRANCH   1   9
BRANCH   1  11
ATOM     11  C   UNL     1      18.003   9.979  37.632  0.00  0.00    +0.000 A 
ATOM     12  N   UNL     1      18.028  10.050  36.290  0.00  0.00    +0.000 NA
ATOM     13  C   UNL     1      16.972  10.730  35.812  0.00  0.00    +0.000 A 
ATOM     14  C   UNL     1      16.510  11.093  34.568  0.00  0.00    +0.000 A 
ATOM     15  C   UNL     1      15.349  11.818  34.409  0.00  0.00    +0.000 A 
ATOM     16  C   UNL     1      14.626  12.193  35.521  0.00  0.00    +0.000 A 
ATOM     17  C   UNL     1      15.069  11.839  36.781  0.00  0.00    +0.000 A 
ATOM     18  C   UNL     1      16.245  11.106  36.921  0.00  0.00    +0.000 A 
ATOM     19  N   UNL     1      16.895  10.636  38.010  0.00  0.00    +0.000 NA
ENDBRANCH   1  11
TORSDOF 2
ENDMDL
MODEL 6
REMARK VINA RESULT:      -6.4      1.697      2.323
REMARK  Name = 
REMARK  2 active torsions:
REMARK  status: ('A' for Active; 'I' for Inactive)
REMARK    1  A    between atoms: C_8  and  S_9
REMARK    2  A    between atoms: S_9  and  C_10
REMARK                            x       y       z     vdW  Elec       q    Type
REMARK                         _______ _______ _______ _____ _____    ______ ____
ROOT
ATOM      1  S   UNL     1      19.678   9.729  37.807  0.00  0.00    +0.000 S 
ENDROOT
BRANCH   1   9
ATOM      2  C   UNL     1      23.514  10.855  39.386  0.00  0.00    +0.000 C 
ATOM      3  C   UNL     1      23.125  11.839  38.304  0.00  0.00    +0.000 C 
ATOM      4  C   UNL     1      23.461  13.228  38.790  0.00  0.00    +0.000 C 
ATOM      5  C   UNL     1      23.939  11.502  37.075  0.00  0.00    +0.000 C 
ATOM      6  C   UNL     1      23.469  10.272  36.410  0.00  0.00    +0.000 C 
ATOM      7  O   UNL     1      24.186   9.659  35.589  0.00  0.00    +0.000 OA
ATOM      8  C   UNL     1      22.150   9.773  36.723  0.00  0.00    +0.000 C 
ATOM      9  C   UNL     1      21.289  10.415  37.468  0.00  0.00    +0.000 C 
ATOM     10  C   UNL     1      21.634  11.729  38.049  0.00  0.00    +0.000 C 
ENDBRANCH   1   9
BRANCH   1  11
ATOM     11  C   UNL     1      18.506  10.195  36.541  0.00  0.00    +0.000 A 
ATOM     12  N   UNL     1      18.444   9.807  35.256  0.00  0.00    +0.000 NA
ATOM     13  C   UNL     1      17.410  10.380  34.616  0.00  0.00    +0.000 A 
ATOM     14  C   UNL     1      16.893  10.343  33.342  0.00  0.00    +0.000 A 
ATOM     15  C   UNL     1      15.779  11.074  32.990  0.00  0.00    +0.000 A 
ATOM     16  C   UNL     1      15.163  11.867  33.935  0.00  0.00    +0.000 A 
ATOM     17  C   UNL     1      15.664  11.919  35.221  0.00  0.00    +0.000 A 
ATOM     18  C   UNL     1      16.790  11.172  35.557  0.00  0.00    +0.000 A 
ATOM     19  N   UNL     1      17.477  11.040  36.715  0.00  0.00    +0.000 NA
ENDBRANCH   1  11
TORSDOF 2
ENDMDL
MODEL 7
REMARK VINA RESULT:      -6.3      1.767      2.726
REMARK  Name = 
REMARK  2 active torsions:
REMARK  status: ('A' for Active; 'I' for Inactive)
REMARK    1  A    between atoms: C_8  and  S_9
REMARK    2  A    between atoms: S_9  and  C_10
REMARK                            x       y       z     vdW  Elec       q    Type
REMARK                         _______ _______ _______ _____ _____    ______ ____
ROOT
ATOM      1  S   UNL     1      18.864   9.387  38.123  0.00  0.00    +0.000 S 
ENDROOT
BRANCH   1   9
ATOM      2  C   UNL     1      22.665  10.130  36.258  0.00  0.00    +0.000 C 
ATOM      3  C   UNL     1      22.867  10.040  37.755  0.00  0.00    +0.000 C 
ATOM      4  C   UNL     1      24.106   9.217  38.012  0.00  0.00    +0.000 C 
ATOM      5  C   UNL     1      23.055  11.449  38.271  0.00  0.00    +0.000 C 
ATOM      6  C   UNL     1      21.795  12.215  38.281  0.00  0.00    +0.000 C 
ATOM      7  O   UNL     1      21.792  13.463  38.362  0.00  0.00    +0.000 OA
ATOM      8  C   UNL     1      20.544  11.499  38.195  0.00  0.00    +0.000 C 
ATOM      9  C   UNL     1      20.450  10.196  38.236  0.00  0.00    +0.000 C 
ATOM     10  C   UNL     1      21.661   9.360  38.376  0.00  0.00    +0.000 C 
ENDBRANCH   1   9
BRANCH   1  11
ATOM     11  C   UNL     1      17.969   9.935  36.677  0.00  0.00    +0.000 A 
ATOM     12  N   UNL     1      18.189   9.650  35.382  0.00  0.00    +0.000 NA
ATOM     13  C   UNL     1      17.294  10.257  34.584  0.00  0.00    +0.000 A 
ATOM     14  C   UNL     1      17.056  10.314  33.230  0.00  0.00    +0.000 A 
ATOM     15  C   UNL     1      16.018  11.055  32.707  0.00  0.00    +0.000 A 
ATOM     16  C   UNL     1      15.193  11.760  33.558  0.00  0.00    +0.000 A 
ATOM     17  C   UNL     1      15.413  11.717  34.921  0.00  0.00    +0.000 A 
ATOM     18  C   UNL     1      16.467  10.963  35.430  0.00  0.00    +0.000 A 
ATOM     19  N   UNL     1      16.900  10.748  36.693  0.00  0.00    +0.000 NA
ENDBRANCH   1  11
TORSDOF 2
ENDMDL
MODEL 8
REMARK VINA RESULT:      -6.3     18.512     19.396
REMARK  Name = 
REMARK  2 active torsions:
REMARK  status: ('A' for Active; 'I' for Inactive)
REMARK    1  A    between atoms: C_8  and  S_9
REMARK    2  A    between atoms: S_9  and  C_10
REMARK                            x       y       z     vdW  Elec       q    Type
REMARK                         _______ _______ _______ _____ _____    ______ ____
ROOT
ATOM      1  S   UNL     1      26.186  23.016  25.093  0.00  0.00    +0.000 S 
ENDROOT
BRANCH   1   9
ATOM      2  C   UNL     1      30.431  22.408  24.800  0.00  0.00    +0.000 C 
ATOM      3  C   UNL     1      30.154  23.895  24.833  0.00  0.00    +0.000 C 
ATOM      4  C   UNL     1      31.162  24.539  25.752  0.00  0.00    +0.000 C 
ATOM      5  C   UNL     1      30.320  24.416  23.423  0.00  0.00    +0.000 C 
ATOM      6  C   UNL     1      29.204  24.021  22.544  0.00  0.00    +0.000 C 
ATOM      7  O   UNL     1      29.305  24.072  21.298  0.00  0.00    +0.000 OA
ATOM      8  C   UNL     1      27.972  23.565  23.144  0.00  0.00    +0.000 C 
ATOM      9  C   UNL     1      27.736  23.599  24.429  0.00  0.00    +0.000 C 
ATOM     10  C   UNL     1      28.752  24.124  25.365  0.00  0.00    +0.000 C 
ENDBRANCH   1   9
BRANCH   1  11
ATOM     11  C   UNL     1      25.780  23.868  26.611  0.00  0.00    +0.000 A 
ATOM     12  N   UNL     1      24.970  24.922  26.804  0.00  0.00    +0.000 NA
ATOM     13  C   UNL     1      24.922  25.277  28.099  0.00  0.00    +0.000 A 
ATOM     14  C   UNL     1      24.279  26.246  28.835  0.00  0.00    +0.000 A 
ATOM     15  C   UNL     1      24.445  26.349  30.199  0.00  0.00    +0.000 A 
ATOM     16  C   UNL     1      25.277  25.463  30.849  0.00  0.00    +0.000 A 
ATOM     17  C   UNL     1      25.932  24.482  30.131  0.00  0.00    +0.000 A 
ATOM     18  C   UNL     1      25.751  24.393  28.753  0.00  0.00    +0.000 A 
ATOM     19  N   UNL     1      26.257  23.550  27.825  0.00  0.00    +0.000 NA
ENDBRANCH   1  11
TORSDOF 2
ENDMDL
MODEL 9
REMARK VINA RESULT:      -6.2     19.162     20.176
REMARK  Name = 
REMARK  2 active torsions:
REMARK  status: ('A' for Active; 'I' for Inactive)
REMARK    1  A    between atoms: C_8  and  S_9
REMARK    2  A    between atoms: S_9  and  C_10
REMARK                            x       y       z     vdW  Elec       q    Type
REMARK                         _______ _______ _______ _____ _____    ______ ____
ROOT
ATOM      1  S   UNL     1      26.484  23.254  23.978  0.00  0.00    +0.000 S 
ENDROOT
BRANCH   1   9
ATOM      2  C   UNL     1      30.155  25.457  24.357  0.00  0.00    +0.000 C 
ATOM      3  C   UNL     1      29.144  26.317  23.630  0.00  0.00    +0.000 C 
ATOM      4  C   UNL     1      29.233  27.717  24.187  0.00  0.00    +0.000 C 
ATOM      5  C   UNL     1      29.517  26.311  22.165  0.00  0.00    +0.000 C 
ATOM      6  C   UNL     1      29.201  25.028  21.510  0.00  0.00    +0.000 C 
ATOM      7  O   UNL     1      29.712  24.711  20.414  0.00  0.00    +0.000 OA
ATOM      8  C   UNL     1      28.279  24.125  22.159  0.00  0.00    +0.000 C 
ATOM      9  C   UNL     1      27.604  24.428  23.237  0.00  0.00    +0.000 C 
ATOM     10  C   UNL     1      27.755  25.755  23.868  0.00  0.00    +0.000 C 
ENDBRANCH   1   9
BRANCH   1  11
ATOM     11  C   UNL     1      26.636  23.262  25.758  0.00  0.00    +0.000 A 
ATOM     12  N   UNL     1      27.518  22.615  26.539  0.00  0.00    +0.000 NA
ATOM     13  C   UNL     1      27.309  22.877  27.841  0.00  0.00    +0.000 A 
ATOM     14  C   UNL     1      27.891  22.501  29.030  0.00  0.00    +0.000 A 
ATOM     15  C   UNL     1      27.424  22.961  30.242  0.00  0.00    +0.000 A 
ATOM     16  C   UNL     1      26.348  23.822  30.271  0.00  0.00    +0.000 A 
ATOM     17  C   UNL     1      25.748  24.214  29.090  0.00  0.00    +0.000 A 
ATOM     18  C   UNL     1      26.234  23.738  27.875  0.00  0.00    +0.000 A 
ATOM     19  N   UNL     1      25.847  23.953  26.597  0.00  0.00    +0.000 NA
ENDBRANCH   1  11
TORSDOF 2
ENDMDL
MODEL 10
REMARK VINA RESULT:      -6.1     20.402     22.569
REMARK  Name = 
REMARK  2 active torsions:
REMARK  status: ('A' for Active; 'I' for Inactive)
REMARK    1  A    between atoms: C_8  and  S_9
REMARK    2  A    between atoms: S_9  and  C_10
REMARK                            x       y       z     vdW  Elec       q    Type
REMARK                         _______ _______ _______ _____ _____    ______ ____
ROOT
ATOM      1  S   UNL     1      32.540  -4.951  33.887  0.00  0.00    +0.000 S 
ENDROOT
BRANCH   1   9
ATOM      2  C   UNL     1      32.521  -0.741  34.758  0.00  0.00    +0.000 C 
ATOM      3  C   UNL     1      33.806  -1.083  34.034  0.00  0.00    +0.000 C 
ATOM      4  C   UNL     1      34.064  -0.009  33.006  0.00  0.00    +0.000 C 
ATOM      5  C   UNL     1      34.912  -1.100  35.065  0.00  0.00    +0.000 C 
ATOM      6  C   UNL     1      34.848  -2.288  35.936  0.00  0.00    +0.000 C 
ATOM      7  O   UNL     1      35.457  -2.329  37.028  0.00  0.00    +0.000 OA
ATOM      8  C   UNL     1      34.061  -3.422  35.512  0.00  0.00    +0.000 C 
ATOM      9  C   UNL     1      33.498  -3.514  34.336  0.00  0.00    +0.000 C 
ATOM     10  C   UNL     1      33.643  -2.425  33.347  0.00  0.00    +0.000 C 
ENDBRANCH   1   9
BRANCH   1  11
ATOM     11  C   UNL     1      33.133  -5.662  32.359  0.00  0.00    +0.000 A 
ATOM     12  N   UNL     1      33.769  -6.828  32.154  0.00  0.00    +0.000 NA
ATOM     13  C   UNL     1      34.055  -7.013  30.855  0.00  0.00    +0.000 A 
ATOM     14  C   UNL     1      34.672  -7.990  30.108  0.00  0.00    +0.000 A 
ATOM     15  C   UNL     1      34.812  -7.878  28.742  0.00  0.00    +0.000 A 
ATOM     16  C   UNL     1      34.325  -6.759  28.100  0.00  0.00    +0.000 A 
ATOM     17  C   UNL     1      33.702  -5.765  28.830  0.00  0.00    +0.000 A 
ATOM     18  C   UNL     1      33.569  -5.897  30.209  0.00  0.00    +0.000 A 
ATOM     19  N   UNL     1      33.015  -5.096  31.147  0.00  0.00    +0.000 NA
ENDBRANCH   1  11
TORSDOF 2
ENDMDL
