MODEL 1
REMARK VINA RESULT:      -6.7      0.000      0.000
REMARK  Name = 
REMARK  9 active torsions:
REMARK  status: ('A' for Active; 'I' for Inactive)
REMARK    1  A    between atoms: C_2  and  C_3
REMARK    2  A    between atoms: C_3  and  O_4
REMARK    3  A    between atoms: O_4  and  C_5
REMARK    4  A    between atoms: C_5  and  C_7
REMARK    5  A    between atoms: C_7  and  O_8
REMARK    6  A    between atoms: O_8  and  C_9
REMARK    7  A    between atoms: N_18  and  C_19
REMARK    8  A    between atoms: C_24  and  C_25
REMARK    9  A    between atoms: C_25  and  C_26
REMARK                            x       y       z     vdW  Elec       q    Type
REMARK                         _______ _______ _______ _____ _____    ______ ____
ROOT
ATOM      1  O   UNL     1      34.855  -1.278  17.628  0.00  0.00    +0.000 OA
ATOM      2  C   UNL     1      35.547  -0.247  17.435  0.00  0.00    +0.000 C 
ATOM      3  N   UNL     1      36.956  -0.379  17.534  0.00  0.00    +0.000 NA
ENDROOT
BRANCH   3   4
ATOM      4  C   UNL     1      37.587  -1.621  17.842  0.00  0.00    +0.000 A 
ATOM      5  C   UNL     1      37.765  -1.937  19.167  0.00  0.00    +0.000 A 
ATOM      6  C   UNL     1      38.363  -3.111  19.523  0.00  0.00    +0.000 A 
ATOM      7  C   UNL     1      38.784  -3.976  18.545  0.00  0.00    +0.000 A 
ATOM      8  C   UNL     1      38.596  -3.641  17.216  0.00  0.00    +0.000 A 
ATOM      9  C   UNL     1      38.000  -2.471  16.834  0.00  0.00    +0.000 A 
BRANCH   9  10
ATOM     10  C   UNL     1      37.827  -2.167  15.405  0.00  0.00    +0.000 C 
BRANCH  10  11
ATOM     11  C   UNL     1      39.091  -2.258  14.643  0.00  0.00    +0.000 A 
ATOM     12  C   UNL     1      39.190  -2.891  13.414  0.00  0.00    +0.000 A 
ATOM     13  C   UNL     1      40.373  -2.970  12.710  0.00  0.00    +0.000 A 
ATOM     14  C   UNL     1      41.505  -2.414  13.219  0.00  0.00    +0.000 A 
ATOM     15  C   UNL     1      41.440  -1.776  14.444  0.00  0.00    +0.000 A 
ATOM     16  C   UNL     1      40.247  -1.703  15.140  0.00  0.00    +0.000 A 
ENDBRANCH  10  11
ENDBRANCH   9  10
ENDBRANCH   3   4
BRANCH   2  17
ATOM     17  C   UNL     1      34.905   1.067  17.111  0.00  0.00    +0.000 C 
BRANCH  17  18
ATOM     18  O   UNL     1      35.844   2.114  17.139  0.00  0.00    +0.000 OA
BRANCH  18  19
ATOM     19  C   UNL     1      36.082   2.981  16.083  0.00  0.00    +0.000 C 
ATOM     20  O   UNL     1      35.108   3.468  15.459  0.00  0.00    +0.000 OA
BRANCH  19  21
ATOM     21  C   UNL     1      37.476   3.334  15.693  0.00  0.00    +0.000 C 
BRANCH  21  22
ATOM     22  O   UNL     1      38.243   2.156  15.612  0.00  0.00    +0.000 OA
BRANCH  22  23
ATOM     23  C   UNL     1      38.515   1.593  14.363  0.00  0.00    +0.000 A 
ATOM     24  C   UNL     1      37.530   0.981  13.618  0.00  0.00    +0.000 A 
ATOM     25  C   UNL     1      37.800   0.422  12.378  0.00  0.00    +0.000 A 
ATOM     26  C   UNL     1      39.065   0.455  11.837  0.00  0.00    +0.000 A 
ATOM     27  C   UNL     1      40.055   1.061  12.568  0.00  0.00    +0.000 A 
ATOM     28  C   UNL     1      39.781   1.625  13.821  0.00  0.00    +0.000 A 
ATOM     29  C   UNL     1      41.311   0.965  11.797  0.00  0.00    +0.000 C 
ATOM     30  C   UNL     1      40.845   0.874  10.367  0.00  0.00    +0.000 C 
ATOM     31  C   UNL     1      39.633  -0.053  10.534  0.00  0.00    +0.000 C 
ENDBRANCH  22  23
ENDBRANCH  21  22
ENDBRANCH  19  21
ENDBRANCH  18  19
ENDBRANCH  17  18
ENDBRANCH   2  17
TORSDOF 9
ENDMDL
MODEL 2
REMARK VINA RESULT:      -6.5      2.720      5.155
REMARK  Name = 
REMARK  9 active torsions:
REMARK  status: ('A' for Active; 'I' for Inactive)
REMARK    1  A    between atoms: C_2  and  C_3
REMARK    2  A    between atoms: C_3  and  O_4
REMARK    3  A    between atoms: O_4  and  C_5
REMARK    4  A    between atoms: C_5  and  C_7
REMARK    5  A    between atoms: C_7  and  O_8
REMARK    6  A    between atoms: O_8  and  C_9
REMARK    7  A    between atoms: N_18  and  C_19
REMARK    8  A    between atoms: C_24  and  C_25
REMARK    9  A    between atoms: C_25  and  C_26
REMARK                            x       y       z     vdW  Elec       q    Type
REMARK                         _______ _______ _______ _____ _____    ______ ____
ROOT
ATOM      1  O   UNL     1      35.935  -1.086  15.154  0.00  0.00    +0.000 OA
ATOM      2  C   UNL     1      36.160  -0.393  16.178  0.00  0.00    +0.000 C 
ATOM      3  N   UNL     1      37.486  -0.386  16.682  0.00  0.00    +0.000 NA
ENDROOT
BRANCH   3   4
ATOM      4  C   UNL     1      38.540  -1.130  16.071  0.00  0.00    +0.000 A 
ATOM      5  C   UNL     1      38.734  -2.424  16.486  0.00  0.00    +0.000 A 
ATOM      6  C   UNL     1      39.727  -3.184  15.938  0.00  0.00    +0.000 A 
ATOM      7  C   UNL     1      40.529  -2.644  14.966  0.00  0.00    +0.000 A 
ATOM      8  C   UNL     1      40.319  -1.339  14.560  0.00  0.00    +0.000 A 
ATOM      9  C   UNL     1      39.331  -0.556  15.093  0.00  0.00    +0.000 A 
BRANCH   9  10
ATOM     10  C   UNL     1      39.154   0.826  14.623  0.00  0.00    +0.000 C 
BRANCH  10  11
ATOM     11  C   UNL     1      38.742   0.900  13.205  0.00  0.00    +0.000 A 
ATOM     12  C   UNL     1      39.646   1.012  12.160  0.00  0.00    +0.000 A 
ATOM     13  C   UNL     1      39.253   1.079  10.840  0.00  0.00    +0.000 A 
ATOM     14  C   UNL     1      37.931   1.037  10.521  0.00  0.00    +0.000 A 
ATOM     15  C   UNL     1      37.004   0.927  11.541  0.00  0.00    +0.000 A 
ATOM     16  C   UNL     1      37.412   0.859  12.861  0.00  0.00    +0.000 A 
ENDBRANCH  10  11
ENDBRANCH   9  10
ENDBRANCH   3   4
BRANCH   2  17
ATOM     17  C   UNL     1      35.069   0.394  16.835  0.00  0.00    +0.000 C 
BRANCH  17  18
ATOM     18  O   UNL     1      35.387   1.764  16.885  0.00  0.00    +0.000 OA
BRANCH  18  19
ATOM     19  C   UNL     1      35.550   2.571  15.769  0.00  0.00    +0.000 C 
ATOM     20  O   UNL     1      34.739   2.472  14.817  0.00  0.00    +0.000 OA
BRANCH  19  21
ATOM     21  C   UNL     1      36.673   3.548  15.700  0.00  0.00    +0.000 C 
BRANCH  21  22
ATOM     22  O   UNL     1      37.438   3.454  16.878  0.00  0.00    +0.000 OA
BRANCH  22  23
ATOM     23  C   UNL     1      38.459   4.378  17.115  0.00  0.00    +0.000 A 
ATOM     24  C   UNL     1      39.232   4.879  16.088  0.00  0.00    +0.000 A 
ATOM     25  C   UNL     1      40.244   5.796  16.323  0.00  0.00    +0.000 A 
ATOM     26  C   UNL     1      40.522   6.248  17.593  0.00  0.00    +0.000 A 
ATOM     27  C   UNL     1      39.761   5.757  18.624  0.00  0.00    +0.000 A 
ATOM     28  C   UNL     1      38.738   4.830  18.385  0.00  0.00    +0.000 A 
ATOM     29  C   UNL     1      40.245   6.373  19.876  0.00  0.00    +0.000 C 
ATOM     30  C   UNL     1      40.843   7.679  19.424  0.00  0.00    +0.000 C 
ATOM     31  C   UNL     1      41.535   7.228  18.130  0.00  0.00    +0.000 C 
ENDBRANCH  22  23
ENDBRANCH  21  22
ENDBRANCH  19  21
ENDBRANCH  18  19
ENDBRANCH  17  18
ENDBRANCH   2  17
TORSDOF 9
ENDMDL
MODEL 3
REMARK VINA RESULT:      -6.5      3.669      5.995
REMARK  Name = 
REMARK  9 active torsions:
REMARK  status: ('A' for Active; 'I' for Inactive)
REMARK    1  A    between atoms: C_2  and  C_3
REMARK    2  A    between atoms: C_3  and  O_4
REMARK    3  A    between atoms: O_4  and  C_5
REMARK    4  A    between atoms: C_5  and  C_7
REMARK    5  A    between atoms: C_7  and  O_8
REMARK    6  A    between atoms: O_8  and  C_9
REMARK    7  A    between atoms: N_18  and  C_19
REMARK    8  A    between atoms: C_24  and  C_25
REMARK    9  A    between atoms: C_25  and  C_26
REMARK                            x       y       z     vdW  Elec       q    Type
REMARK                         _______ _______ _______ _____ _____    ______ ____
ROOT
ATOM      1  O   UNL     1      35.832   0.556  15.155  0.00  0.00    +0.000 OA
ATOM      2  C   UNL     1      36.097   0.760  16.367  0.00  0.00    +0.000 C 
ATOM      3  N   UNL     1      36.248  -0.378  17.201  0.00  0.00    +0.000 NA
ENDROOT
BRANCH   3   4
ATOM      4  C   UNL     1      36.108  -1.710  16.709  0.00  0.00    +0.000 A 
ATOM      5  C   UNL     1      34.854  -2.123  16.330  0.00  0.00    +0.000 A 
ATOM      6  C   UNL     1      34.658  -3.387  15.852  0.00  0.00    +0.000 A 
ATOM      7  C   UNL     1      35.726  -4.242  15.752  0.00  0.00    +0.000 A 
ATOM      8  C   UNL     1      36.981  -3.809  16.139  0.00  0.00    +0.000 A 
ATOM      9  C   UNL     1      37.204  -2.547  16.621  0.00  0.00    +0.000 A 
BRANCH   9  10
ATOM     10  C   UNL     1      38.560  -2.141  17.018  0.00  0.00    +0.000 C 
BRANCH  10  11
ATOM     11  C   UNL     1      39.446  -1.894  15.860  0.00  0.00    +0.000 A 
ATOM     12  C   UNL     1      40.387  -2.811  15.418  0.00  0.00    +0.000 A 
ATOM     13  C   UNL     1      41.208  -2.573  14.336  0.00  0.00    +0.000 A 
ATOM     14  C   UNL     1      41.114  -1.397  13.657  0.00  0.00    +0.000 A 
ATOM     15  C   UNL     1      40.185  -0.461  14.074  0.00  0.00    +0.000 A 
ATOM     16  C   UNL     1      39.367  -0.713  15.160  0.00  0.00    +0.000 A 
ENDBRANCH  10  11
ENDBRANCH   9  10
ENDBRANCH   3   4
BRANCH   2  17
ATOM     17  C   UNL     1      36.248   2.150  16.903  0.00  0.00    +0.000 C 
BRANCH  17  18
ATOM     18  O   UNL     1      37.488   2.704  16.539  0.00  0.00    +0.000 OA
BRANCH  18  19
ATOM     19  C   UNL     1      37.655   3.981  16.025  0.00  0.00    +0.000 C 
ATOM     20  O   UNL     1      36.713   4.512  15.386  0.00  0.00    +0.000 OA
BRANCH  19  21
ATOM     21  C   UNL     1      38.933   4.719  16.227  0.00  0.00    +0.000 C 
BRANCH  21  22
ATOM     22  O   UNL     1      39.303   4.633  17.583  0.00  0.00    +0.000 OA
BRANCH  22  23
ATOM     23  C   UNL     1      39.177   5.754  18.407  0.00  0.00    +0.000 A 
ATOM     24  C   UNL     1      40.056   5.991  19.442  0.00  0.00    +0.000 A 
ATOM     25  C   UNL     1      39.931   7.104  20.260  0.00  0.00    +0.000 A 
ATOM     26  C   UNL     1      38.922   8.021  20.073  0.00  0.00    +0.000 A 
ATOM     27  C   UNL     1      38.039   7.796  19.047  0.00  0.00    +0.000 A 
ATOM     28  C   UNL     1      38.167   6.671  18.222  0.00  0.00    +0.000 A 
ATOM     29  C   UNL     1      37.052   8.895  19.050  0.00  0.00    +0.000 C 
ATOM     30  C   UNL     1      37.798  10.043  19.679  0.00  0.00    +0.000 C 
ATOM     31  C   UNL     1      38.557   9.299  20.788  0.00  0.00    +0.000 C 
ENDBRANCH  22  23
ENDBRANCH  21  22
ENDBRANCH  19  21
ENDBRANCH  18  19
ENDBRANCH  17  18
ENDBRANCH   2  17
TORSDOF 9
ENDMDL
MODEL 4
REMARK VINA RESULT:      -6.4      4.917      8.321
REMARK  Name = 
REMARK  9 active torsions:
REMARK  status: ('A' for Active; 'I' for Inactive)
REMARK    1  A    between atoms: C_2  and  C_3
REMARK    2  A    between atoms: C_3  and  O_4
REMARK    3  A    between atoms: O_4  and  C_5
REMARK    4  A    between atoms: C_5  and  C_7
REMARK    5  A    between atoms: C_7  and  O_8
REMARK    6  A    between atoms: O_8  and  C_9
REMARK    7  A    between atoms: N_18  and  C_19
REMARK    8  A    between atoms: C_24  and  C_25
REMARK    9  A    between atoms: C_25  and  C_26
REMARK                            x       y       z     vdW  Elec       q    Type
REMARK                         _______ _______ _______ _____ _____    ______ ____
ROOT
ATOM      1  O   UNL     1      39.380   7.832  16.140  0.00  0.00    +0.000 OA
ATOM      2  C   UNL     1      38.642   6.819  16.219  0.00  0.00    +0.000 C 
ATOM      3  N   UNL     1      37.989   6.582  17.457  0.00  0.00    +0.000 NA
ENDROOT
BRANCH   3   4
ATOM      4  C   UNL     1      38.151   7.444  18.583  0.00  0.00    +0.000 A 
ATOM      5  C   UNL     1      37.356   8.561  18.652  0.00  0.00    +0.000 A 
ATOM      6  C   UNL     1      37.466   9.424  19.704  0.00  0.00    +0.000 A 
ATOM      7  C   UNL     1      38.378   9.164  20.695  0.00  0.00    +0.000 A 
ATOM      8  C   UNL     1      39.171   8.034  20.608  0.00  0.00    +0.000 A 
ATOM      9  C   UNL     1      39.080   7.155  19.564  0.00  0.00    +0.000 A 
BRANCH   9  10
ATOM     10  C   UNL     1      39.949   5.969  19.524  0.00  0.00    +0.000 C 
BRANCH  10  11
ATOM     11  C   UNL     1      41.374   6.311  19.322  0.00  0.00    +0.000 A 
ATOM     12  C   UNL     1      41.924   6.555  18.073  0.00  0.00    +0.000 A 
ATOM     13  C   UNL     1      43.253   6.875  17.894  0.00  0.00    +0.000 A 
ATOM     14  C   UNL     1      44.083   6.958  18.970  0.00  0.00    +0.000 A 
ATOM     15  C   UNL     1      43.565   6.718  20.229  0.00  0.00    +0.000 A 
ATOM     16  C   UNL     1      42.229   6.400  20.395  0.00  0.00    +0.000 A 
ENDBRANCH  10  11
ENDBRANCH   9  10
ENDBRANCH   3   4
BRANCH   2  17
ATOM     17  C   UNL     1      38.459   5.901  15.050  0.00  0.00    +0.000 C 
BRANCH  17  18
ATOM     18  O   UNL     1      37.095   5.701  14.768  0.00  0.00    +0.000 OA
BRANCH  18  19
ATOM     19  C   UNL     1      36.485   4.458  14.692  0.00  0.00    +0.000 C 
ATOM     20  O   UNL     1      35.652   4.239  13.779  0.00  0.00    +0.000 OA
BRANCH  19  21
ATOM     21  C   UNL     1      36.814   3.391  15.678  0.00  0.00    +0.000 C 
BRANCH  21  22
ATOM     22  O   UNL     1      35.619   2.793  16.124  0.00  0.00    +0.000 OA
BRANCH  22  23
ATOM     23  C   UNL     1      35.532   1.401  16.203  0.00  0.00    +0.000 A 
ATOM     24  C   UNL     1      34.737   0.781  17.145  0.00  0.00    +0.000 A 
ATOM     25  C   UNL     1      34.649  -0.600  17.224  0.00  0.00    +0.000 A 
ATOM     26  C   UNL     1      35.352  -1.414  16.364  0.00  0.00    +0.000 A 
ATOM     27  C   UNL     1      36.148  -0.810  15.423  0.00  0.00    +0.000 A 
ATOM     28  C   UNL     1      36.235   0.586  15.345  0.00  0.00    +0.000 A 
ATOM     29  C   UNL     1      36.801  -1.873  14.633  0.00  0.00    +0.000 C 
ATOM     30  C   UNL     1      35.849  -3.035  14.743  0.00  0.00    +0.000 C 
ATOM     31  C   UNL     1      35.439  -2.913  16.217  0.00  0.00    +0.000 C 
ENDBRANCH  22  23
ENDBRANCH  21  22
ENDBRANCH  19  21
ENDBRANCH  18  19
ENDBRANCH  17  18
ENDBRANCH   2  17
TORSDOF 9
ENDMDL
MODEL 5
REMARK VINA RESULT:      -6.4      3.380      5.446
REMARK  Name = 
REMARK  9 active torsions:
REMARK  status: ('A' for Active; 'I' for Inactive)
REMARK    1  A    between atoms: C_2  and  C_3
REMARK    2  A    between atoms: C_3  and  O_4
REMARK    3  A    between atoms: O_4  and  C_5
REMARK    4  A    between atoms: C_5  and  C_7
REMARK    5  A    between atoms: C_7  and  O_8
REMARK    6  A    between atoms: O_8  and  C_9
REMARK    7  A    between atoms: N_18  and  C_19
REMARK    8  A    between atoms: C_24  and  C_25
REMARK    9  A    between atoms: C_25  and  C_26
REMARK                            x       y       z     vdW  Elec       q    Type
REMARK                         _______ _______ _______ _____ _____    ______ ____
ROOT
ATOM      1  O   UNL     1      36.440  -0.234  14.106  0.00  0.00    +0.000 OA
ATOM      2  C   UNL     1      36.437   0.356  15.215  0.00  0.00    +0.000 C 
ATOM      3  N   UNL     1      37.476   0.035  16.127  0.00  0.00    +0.000 NA
ENDROOT
BRANCH   3   4
ATOM      4  C   UNL     1      38.493  -0.918  15.821  0.00  0.00    +0.000 A 
ATOM      5  C   UNL     1      39.504  -0.527  14.977  0.00  0.00    +0.000 A 
ATOM      6  C   UNL     1      40.504  -1.395  14.648  0.00  0.00    +0.000 A 
ATOM      7  C   UNL     1      40.493  -2.664  15.167  0.00  0.00    +0.000 A 
ATOM      8  C   UNL     1      39.466  -3.041  16.015  0.00  0.00    +0.000 A 
ATOM      9  C   UNL     1      38.453  -2.190  16.360  0.00  0.00    +0.000 A 
BRANCH   9  10
ATOM     10  C   UNL     1      37.387  -2.645  17.266  0.00  0.00    +0.000 C 
BRANCH  10  11
ATOM     11  C   UNL     1      36.375  -3.480  16.584  0.00  0.00    +0.000 A 
ATOM     12  C   UNL     1      36.496  -4.855  16.446  0.00  0.00    +0.000 A 
ATOM     13  C   UNL     1      35.546  -5.626  15.810  0.00  0.00    +0.000 A 
ATOM     14  C   UNL     1      34.436  -5.040  15.285  0.00  0.00    +0.000 A 
ATOM     15  C   UNL     1      34.286  -3.671  15.405  0.00  0.00    +0.000 A 
ATOM     16  C   UNL     1      35.245  -2.909  16.047  0.00  0.00    +0.000 A 
ENDBRANCH  10  11
ENDBRANCH   9  10
ENDBRANCH   3   4
BRANCH   2  17
ATOM     17  C   UNL     1      35.379   1.359  15.557  0.00  0.00    +0.000 C 
BRANCH  17  18
ATOM     18  O   UNL     1      35.947   2.567  16.001  0.00  0.00    +0.000 OA
BRANCH  18  19
ATOM     19  C   UNL     1      36.276   3.630  15.172  0.00  0.00    +0.000 C 
ATOM     20  O   UNL     1      35.569   3.859  14.161  0.00  0.00    +0.000 OA
BRANCH  19  21
ATOM     21  C   UNL     1      37.453   4.491  15.477  0.00  0.00    +0.000 C 
BRANCH  21  22
ATOM     22  O   UNL     1      37.867   4.252  16.802  0.00  0.00    +0.000 OA
BRANCH  22  23
ATOM     23  C   UNL     1      38.925   4.989  17.338  0.00  0.00    +0.000 A 
ATOM     24  C   UNL     1      38.986   5.290  18.683  0.00  0.00    +0.000 A 
ATOM     25  C   UNL     1      40.036   6.021  19.216  0.00  0.00    +0.000 A 
ATOM     26  C   UNL     1      41.066   6.477  18.425  0.00  0.00    +0.000 A 
ATOM     27  C   UNL     1      41.018   6.185  17.085  0.00  0.00    +0.000 A 
ATOM     28  C   UNL     1      39.955   5.447  16.548  0.00  0.00    +0.000 A 
ATOM     29  C   UNL     1      42.211   6.781  16.448  0.00  0.00    +0.000 C 
ATOM     30  C   UNL     1      43.220   6.838  17.565  0.00  0.00    +0.000 C 
ATOM     31  C   UNL     1      42.315   7.269  18.728  0.00  0.00    +0.000 C 
ENDBRANCH  22  23
ENDBRANCH  21  22
ENDBRANCH  19  21
ENDBRANCH  18  19
ENDBRANCH  17  18
ENDBRANCH   2  17
TORSDOF 9
ENDMDL
MODEL 6
REMARK VINA RESULT:      -6.3      2.458      4.106
REMARK  Name = 
REMARK  9 active torsions:
REMARK  status: ('A' for Active; 'I' for Inactive)
REMARK    1  A    between atoms: C_2  and  C_3
REMARK    2  A    between atoms: C_3  and  O_4
REMARK    3  A    between atoms: O_4  and  C_5
REMARK    4  A    between atoms: C_5  and  C_7
REMARK    5  A    between atoms: C_7  and  O_8
REMARK    6  A    between atoms: O_8  and  C_9
REMARK    7  A    between atoms: N_18  and  C_19
REMARK    8  A    between atoms: C_24  and  C_25
REMARK    9  A    between atoms: C_25  and  C_26
REMARK                            x       y       z     vdW  Elec       q    Type
REMARK                         _______ _______ _______ _____ _____    ______ ____
ROOT
ATOM      1  O   UNL     1      34.925  -1.369  17.759  0.00  0.00    +0.000 OA
ATOM      2  C   UNL     1      35.644  -0.388  17.442  0.00  0.00    +0.000 C 
ATOM      3  N   UNL     1      37.050  -0.580  17.450  0.00  0.00    +0.000 NA
ENDROOT
BRANCH   3   4
ATOM      4  C   UNL     1      37.648  -1.827  17.803  0.00  0.00    +0.000 A 
ATOM      5  C   UNL     1      37.918  -2.054  19.130  0.00  0.00    +0.000 A 
ATOM      6  C   UNL     1      38.490  -3.228  19.528  0.00  0.00    +0.000 A 
ATOM      7  C   UNL     1      38.793  -4.181  18.590  0.00  0.00    +0.000 A 
ATOM      8  C   UNL     1      38.514  -3.935  17.258  0.00  0.00    +0.000 A 
ATOM      9  C   UNL     1      37.941  -2.767  16.834  0.00  0.00    +0.000 A 
BRANCH   9  10
ATOM     10  C   UNL     1      37.668  -2.560  15.404  0.00  0.00    +0.000 C 
BRANCH  10  11
ATOM     11  C   UNL     1      38.899  -2.382  14.605  0.00  0.00    +0.000 A 
ATOM     12  C   UNL     1      38.991  -2.733  13.267  0.00  0.00    +0.000 A 
ATOM     13  C   UNL     1      40.143  -2.562  12.530  0.00  0.00    +0.000 A 
ATOM     14  C   UNL     1      41.252  -2.032  13.114  0.00  0.00    +0.000 A 
ATOM     15  C   UNL     1      41.193  -1.673  14.448  0.00  0.00    +0.000 A 
ATOM     16  C   UNL     1      40.031  -1.848  15.176  0.00  0.00    +0.000 A 
ENDBRANCH  10  11
ENDBRANCH   9  10
ENDBRANCH   3   4
BRANCH   2  17
ATOM     17  C   UNL     1      35.037   0.929  17.069  0.00  0.00    +0.000 C 
BRANCH  17  18
ATOM     18  O   UNL     1      36.025   1.859  16.698  0.00  0.00    +0.000 OA
BRANCH  18  19
ATOM     19  C   UNL     1      36.479   2.045  15.400  0.00  0.00    +0.000 C 
ATOM     20  O   UNL     1      35.706   1.802  14.441  0.00  0.00    +0.000 OA
BRANCH  19  21
ATOM     21  C   UNL     1      37.863   2.530  15.144  0.00  0.00    +0.000 C 
BRANCH  21  22
ATOM     22  O   UNL     1      37.879   3.936  15.218  0.00  0.00    +0.000 OA
BRANCH  22  23
ATOM     23  C   UNL     1      38.616   4.568  16.222  0.00  0.00    +0.000 A 
ATOM     24  C   UNL     1      38.243   4.490  17.548  0.00  0.00    +0.000 A 
ATOM     25  C   UNL     1      38.974   5.116  18.545  0.00  0.00    +0.000 A 
ATOM     26  C   UNL     1      40.105   5.844  18.255  0.00  0.00    +0.000 A 
ATOM     27  C   UNL     1      40.487   5.931  16.940  0.00  0.00    +0.000 A 
ATOM     28  C   UNL     1      39.747   5.297  15.934  0.00  0.00    +0.000 A 
ATOM     29  C   UNL     1      41.708   6.761  16.877  0.00  0.00    +0.000 C 
ATOM     30  C   UNL     1      42.334   6.578  18.235  0.00  0.00    +0.000 C 
ATOM     31  C   UNL     1      41.079   6.607  19.119  0.00  0.00    +0.000 C 
ENDBRANCH  22  23
ENDBRANCH  21  22
ENDBRANCH  19  21
ENDBRANCH  18  19
ENDBRANCH  17  18
ENDBRANCH   2  17
TORSDOF 9
ENDMDL
MODEL 7
REMARK VINA RESULT:      -6.2      3.096      5.872
REMARK  Name = 
REMARK  9 active torsions:
REMARK  status: ('A' for Active; 'I' for Inactive)
REMARK    1  A    between atoms: C_2  and  C_3
REMARK    2  A    between atoms: C_3  and  O_4
REMARK    3  A    between atoms: O_4  and  C_5
REMARK    4  A    between atoms: C_5  and  C_7
REMARK    5  A    between atoms: C_7  and  O_8
REMARK    6  A    between atoms: O_8  and  C_9
REMARK    7  A    between atoms: N_18  and  C_19
REMARK    8  A    between atoms: C_24  and  C_25
REMARK    9  A    between atoms: C_25  and  C_26
REMARK                            x       y       z     vdW  Elec       q    Type
REMARK                         _______ _______ _______ _____ _____    ______ ____
ROOT
ATOM      1  O   UNL     1      38.033   1.498  15.717  0.00  0.00    +0.000 OA
ATOM      2  C   UNL     1      37.335   1.218  14.710  0.00  0.00    +0.000 C 
ATOM      3  N   UNL     1      37.656   0.031  14.003  0.00  0.00    +0.000 NA
ENDROOT
BRANCH   3   4
ATOM      4  C   UNL     1      38.726  -0.827  14.399  0.00  0.00    +0.000 A 
ATOM      5  C   UNL     1      40.000  -0.474  14.026  0.00  0.00    +0.000 A 
ATOM      6  C   UNL     1      41.064  -1.255  14.374  0.00  0.00    +0.000 A 
ATOM      7  C   UNL     1      40.850  -2.398  15.102  0.00  0.00    +0.000 A 
ATOM      8  C   UNL     1      39.560  -2.738  15.468  0.00  0.00    +0.000 A 
ATOM      9  C   UNL     1      38.478  -1.971  15.132  0.00  0.00    +0.000 A 
BRANCH   9  10
ATOM     10  C   UNL     1      37.129  -2.382  15.548  0.00  0.00    +0.000 C 
BRANCH  10  11
ATOM     11  C   UNL     1      36.680  -1.706  16.784  0.00  0.00    +0.000 A 
ATOM     12  C   UNL     1      35.478  -1.020  16.877  0.00  0.00    +0.000 A 
ATOM     13  C   UNL     1      35.067  -0.393  18.035  0.00  0.00    +0.000 A 
ATOM     14  C   UNL     1      35.853  -0.430  19.144  0.00  0.00    +0.000 A 
ATOM     15  C   UNL     1      37.058  -1.105  19.083  0.00  0.00    +0.000 A 
ATOM     16  C   UNL     1      37.459  -1.731  17.917  0.00  0.00    +0.000 A 
ENDBRANCH  10  11
ENDBRANCH   9  10
ENDBRANCH   3   4
BRANCH   2  17
ATOM     17  C   UNL     1      36.207   2.105  14.278  0.00  0.00    +0.000 C 
BRANCH  17  18
ATOM     18  O   UNL     1      36.684   3.339  13.801  0.00  0.00    +0.000 OA
BRANCH  18  19
ATOM     19  C   UNL     1      36.241   4.575  14.249  0.00  0.00    +0.000 C 
ATOM     20  O   UNL     1      35.067   4.935  13.991  0.00  0.00    +0.000 OA
BRANCH  19  21
ATOM     21  C   UNL     1      37.145   5.466  15.028  0.00  0.00    +0.000 C 
BRANCH  21  22
ATOM     22  O   UNL     1      37.907   4.684  15.917  0.00  0.00    +0.000 OA
BRANCH  22  23
ATOM     23  C   UNL     1      39.025   5.240  16.543  0.00  0.00    +0.000 A 
ATOM     24  C   UNL     1      40.133   5.636  15.824  0.00  0.00    +0.000 A 
ATOM     25  C   UNL     1      41.242   6.188  16.444  0.00  0.00    +0.000 A 
ATOM     26  C   UNL     1      41.286   6.366  17.809  0.00  0.00    +0.000 A 
ATOM     27  C   UNL     1      40.191   5.976  18.537  0.00  0.00    +0.000 A 
ATOM     28  C   UNL     1      39.070   5.418  17.908  0.00  0.00    +0.000 A 
ATOM     29  C   UNL     1      40.472   6.254  19.961  0.00  0.00    +0.000 C 
ATOM     30  C   UNL     1      41.464   7.386  19.915  0.00  0.00    +0.000 C 
ATOM     31  C   UNL     1      42.334   6.937  18.732  0.00  0.00    +0.000 C 
ENDBRANCH  22  23
ENDBRANCH  21  22
ENDBRANCH  19  21
ENDBRANCH  18  19
ENDBRANCH  17  18
ENDBRANCH   2  17
TORSDOF 9
ENDMDL
MODEL 8
REMARK VINA RESULT:      -6.2      3.687      8.180
REMARK  Name = 
REMARK  9 active torsions:
REMARK  status: ('A' for Active; 'I' for Inactive)
REMARK    1  A    between atoms: C_2  and  C_3
REMARK    2  A    between atoms: C_3  and  O_4
REMARK    3  A    between atoms: O_4  and  C_5
REMARK    4  A    between atoms: C_5  and  C_7
REMARK    5  A    between atoms: C_7  and  O_8
REMARK    6  A    between atoms: O_8  and  C_9
REMARK    7  A    between atoms: N_18  and  C_19
REMARK    8  A    between atoms: C_24  and  C_25
REMARK    9  A    between atoms: C_25  and  C_26
REMARK                            x       y       z     vdW  Elec       q    Type
REMARK                         _______ _______ _______ _____ _____    ______ ____
ROOT
ATOM      1  O   UNL     1      37.722   5.785  14.234  0.00  0.00    +0.000 OA
ATOM      2  C   UNL     1      37.914   4.571  14.497  0.00  0.00    +0.000 C 
ATOM      3  N   UNL     1      39.140   4.225  15.122  0.00  0.00    +0.000 NA
ENDROOT
BRANCH   3   4
ATOM      4  C   UNL     1      40.133   5.198  15.446  0.00  0.00    +0.000 A 
ATOM      5  C   UNL     1      40.989   5.595  14.448  0.00  0.00    +0.000 A 
ATOM      6  C   UNL     1      41.959   6.521  14.699  0.00  0.00    +0.000 A 
ATOM      7  C   UNL     1      42.072   7.055  15.957  0.00  0.00    +0.000 A 
ATOM      8  C   UNL     1      41.201   6.643  16.950  0.00  0.00    +0.000 A 
ATOM      9  C   UNL     1      40.220   5.716  16.724  0.00  0.00    +0.000 A 
BRANCH   9  10
ATOM     10  C   UNL     1      39.322   5.315  17.818  0.00  0.00    +0.000 C 
BRANCH  10  11
ATOM     11  C   UNL     1      38.911   6.453  18.667  0.00  0.00    +0.000 A 
ATOM     12  C   UNL     1      39.520   6.755  19.875  0.00  0.00    +0.000 A 
ATOM     13  C   UNL     1      39.130   7.820  20.660  0.00  0.00    +0.000 A 
ATOM     14  C   UNL     1      38.107   8.622  20.258  0.00  0.00    +0.000 A 
ATOM     15  C   UNL     1      37.478   8.347  19.057  0.00  0.00    +0.000 A 
ATOM     16  C   UNL     1      37.880   7.277  18.279  0.00  0.00    +0.000 A 
ENDBRANCH  10  11
ENDBRANCH   9  10
ENDBRANCH   3   4
BRANCH   2  17
ATOM     17  C   UNL     1      36.885   3.535  14.165  0.00  0.00    +0.000 C 
BRANCH  17  18
ATOM     18  O   UNL     1      35.631   3.868  14.711  0.00  0.00    +0.000 OA
BRANCH  18  19
ATOM     19  C   UNL     1      35.006   3.160  15.727  0.00  0.00    +0.000 C 
ATOM     20  O   UNL     1      33.752   3.114  15.759  0.00  0.00    +0.000 OA
BRANCH  19  21
ATOM     21  C   UNL     1      35.810   2.461  16.767  0.00  0.00    +0.000 C 
BRANCH  21  22
ATOM     22  O   UNL     1      35.235   1.200  17.022  0.00  0.00    +0.000 OA
BRANCH  22  23
ATOM     23  C   UNL     1      36.036   0.159  17.499  0.00  0.00    +0.000 A 
ATOM     24  C   UNL     1      35.979  -0.249  18.815  0.00  0.00    +0.000 A 
ATOM     25  C   UNL     1      36.772  -1.282  19.289  0.00  0.00    +0.000 A 
ATOM     26  C   UNL     1      37.653  -1.946  18.464  0.00  0.00    +0.000 A 
ATOM     27  C   UNL     1      37.719  -1.549  17.153  0.00  0.00    +0.000 A 
ATOM     28  C   UNL     1      36.917  -0.505  16.676  0.00  0.00    +0.000 A 
ATOM     29  C   UNL     1      38.727  -2.391  16.476  0.00  0.00    +0.000 C 
ATOM     30  C   UNL     1      38.729  -3.664  17.282  0.00  0.00    +0.000 C 
ATOM     31  C   UNL     1      38.611  -3.088  18.700  0.00  0.00    +0.000 C 
ENDBRANCH  22  23
ENDBRANCH  21  22
ENDBRANCH  19  21
ENDBRANCH  18  19
ENDBRANCH  17  18
ENDBRANCH   2  17
TORSDOF 9
ENDMDL
MODEL 9
REMARK VINA RESULT:      -6.0      4.664      8.609
REMARK  Name = 
REMARK  9 active torsions:
REMARK  status: ('A' for Active; 'I' for Inactive)
REMARK    1  A    between atoms: C_2  and  C_3
REMARK    2  A    between atoms: C_3  and  O_4
REMARK    3  A    between atoms: O_4  and  C_5
REMARK    4  A    between atoms: C_5  and  C_7
REMARK    5  A    between atoms: C_7  and  O_8
REMARK    6  A    between atoms: O_8  and  C_9
REMARK    7  A    between atoms: N_18  and  C_19
REMARK    8  A    between atoms: C_24  and  C_25
REMARK    9  A    between atoms: C_25  and  C_26
REMARK                            x       y       z     vdW  Elec       q    Type
REMARK                         _______ _______ _______ _____ _____    ______ ____
ROOT
ATOM      1  O   UNL     1      39.625   7.899  15.416  0.00  0.00    +0.000 OA
ATOM      2  C   UNL     1      39.253   6.699  15.386  0.00  0.00    +0.000 C 
ATOM      3  N   UNL     1      39.987   5.770  16.168  0.00  0.00    +0.000 NA
ENDROOT
BRANCH   3   4
ATOM      4  C   UNL     1      41.108   6.157  16.962  0.00  0.00    +0.000 A 
ATOM      5  C   UNL     1      42.277   6.464  16.311  0.00  0.00    +0.000 A 
ATOM      6  C   UNL     1      43.383   6.840  17.017  0.00  0.00    +0.000 A 
ATOM      7  C   UNL     1      43.317   6.910  18.386  0.00  0.00    +0.000 A 
ATOM      8  C   UNL     1      42.130   6.597  19.024  0.00  0.00    +0.000 A 
ATOM      9  C   UNL     1      41.008   6.218  18.339  0.00  0.00    +0.000 A 
BRANCH   9  10
ATOM     10  C   UNL     1      39.774   5.896  19.071  0.00  0.00    +0.000 C 
BRANCH  10  11
ATOM     11  C   UNL     1      38.994   7.098  19.434  0.00  0.00    +0.000 A 
ATOM     12  C   UNL     1      39.255   7.857  20.565  0.00  0.00    +0.000 A 
ATOM     13  C   UNL     1      38.523   8.978  20.895  0.00  0.00    +0.000 A 
ATOM     14  C   UNL     1      37.495   9.377  20.099  0.00  0.00    +0.000 A 
ATOM     15  C   UNL     1      37.208   8.641  18.964  0.00  0.00    +0.000 A 
ATOM     16  C   UNL     1      37.951   7.519  18.643  0.00  0.00    +0.000 A 
ENDBRANCH  10  11
ENDBRANCH   9  10
ENDBRANCH   3   4
BRANCH   2  17
ATOM     17  C   UNL     1      38.080   6.272  14.559  0.00  0.00    +0.000 C 
BRANCH  17  18
ATOM     18  O   UNL     1      37.662   4.973  14.900  0.00  0.00    +0.000 OA
BRANCH  18  19
ATOM     19  C   UNL     1      36.445   4.420  14.533  0.00  0.00    +0.000 C 
ATOM     20  O   UNL     1      35.489   5.180  14.245  0.00  0.00    +0.000 OA
BRANCH  19  21
ATOM     21  C   UNL     1      36.271   2.941  14.476  0.00  0.00    +0.000 C 
BRANCH  21  22
ATOM     22  O   UNL     1      35.836   2.481  15.734  0.00  0.00    +0.000 OA
BRANCH  22  23
ATOM     23  C   UNL     1      35.654   1.112  15.944  0.00  0.00    +0.000 A 
ATOM     24  C   UNL     1      34.850   0.639  16.960  0.00  0.00    +0.000 A 
ATOM     25  C   UNL     1      34.668  -0.719  17.168  0.00  0.00    +0.000 A 
ATOM     26  C   UNL     1      35.283  -1.656  16.369  0.00  0.00    +0.000 A 
ATOM     27  C   UNL     1      36.086  -1.199  15.354  0.00  0.00    +0.000 A 
ATOM     28  C   UNL     1      36.269   0.174  15.145  0.00  0.00    +0.000 A 
ATOM     29  C   UNL     1      36.636  -2.374  14.648  0.00  0.00    +0.000 C 
ATOM     30  C   UNL     1      35.609  -3.449  14.890  0.00  0.00    +0.000 C 
ATOM     31  C   UNL     1      35.259  -3.165  16.358  0.00  0.00    +0.000 C 
ENDBRANCH  22  23
ENDBRANCH  21  22
ENDBRANCH  19  21
ENDBRANCH  18  19
ENDBRANCH  17  18
ENDBRANCH   2  17
TORSDOF 9
ENDMDL
MODEL 10
REMARK VINA RESULT:      -6.0      3.449      5.302
REMARK  Name = 
REMARK  9 active torsions:
REMARK  status: ('A' for Active; 'I' for Inactive)
REMARK    1  A    between atoms: C_2  and  C_3
REMARK    2  A    between atoms: C_3  and  O_4
REMARK    3  A    between atoms: O_4  and  C_5
REMARK    4  A    between atoms: C_5  and  C_7
REMARK    5  A    between atoms: C_7  and  O_8
REMARK    6  A    between atoms: O_8  and  C_9
REMARK    7  A    between atoms: N_18  and  C_19
REMARK    8  A    between atoms: C_24  and  C_25
REMARK    9  A    between atoms: C_25  and  C_26
REMARK                            x       y       z     vdW  Elec       q    Type
REMARK                         _______ _______ _______ _____ _____    ______ ____
ROOT
ATOM      1  O   UNL     1      36.498   0.422  13.940  0.00  0.00    +0.000 OA
ATOM      2  C   UNL     1      36.521   0.818  15.133  0.00  0.00    +0.000 C 
ATOM      3  N   UNL     1      36.569  -0.172  16.148  0.00  0.00    +0.000 NA
ENDROOT
BRANCH   3   4
ATOM      4  C   UNL     1      36.589  -1.568  15.852  0.00  0.00    +0.000 A 
ATOM      5  C   UNL     1      35.384  -2.205  15.689  0.00  0.00    +0.000 A 
ATOM      6  C   UNL     1      35.340  -3.539  15.406  0.00  0.00    +0.000 A 
ATOM      7  C   UNL     1      36.512  -4.241  15.284  0.00  0.00    +0.000 A 
ATOM      8  C   UNL     1      37.717  -3.582  15.453  0.00  0.00    +0.000 A 
ATOM      9  C   UNL     1      37.788  -2.246  15.737  0.00  0.00    +0.000 A 
BRANCH   9  10
ATOM     10  C   UNL     1      39.097  -1.599  15.906  0.00  0.00    +0.000 C 
BRANCH  10  11
ATOM     11  C   UNL     1      39.956  -1.722  14.708  0.00  0.00    +0.000 A 
ATOM     12  C   UNL     1      41.157  -2.414  14.705  0.00  0.00    +0.000 A 
ATOM     13  C   UNL     1      41.950  -2.525  13.583  0.00  0.00    +0.000 A 
ATOM     14  C   UNL     1      41.564  -1.939  12.417  0.00  0.00    +0.000 A 
ATOM     15  C   UNL     1      40.372  -1.240  12.387  0.00  0.00    +0.000 A 
ATOM     16  C   UNL     1      39.584  -1.138  13.520  0.00  0.00    +0.000 A 
ENDBRANCH  10  11
ENDBRANCH   9  10
ENDBRANCH   3   4
BRANCH   2  17
ATOM     17  C   UNL     1      36.500   2.279  15.464  0.00  0.00    +0.000 C 
BRANCH  17  18
ATOM     18  O   UNL     1      37.728   2.695  16.010  0.00  0.00    +0.000 OA
BRANCH  18  19
ATOM     19  C   UNL     1      38.852   3.009  15.260  0.00  0.00    +0.000 C 
ATOM     20  O   UNL     1      39.558   2.081  14.798  0.00  0.00    +0.000 OA
BRANCH  19  21
ATOM     21  C   UNL     1      39.218   4.430  15.004  0.00  0.00    +0.000 C 
BRANCH  21  22
ATOM     22  O   UNL     1      38.636   5.241  15.997  0.00  0.00    +0.000 OA
BRANCH  22  23
ATOM     23  C   UNL     1      39.404   5.655  17.088  0.00  0.00    +0.000 A 
ATOM     24  C   UNL     1      38.875   5.718  18.360  0.00  0.00    +0.000 A 
ATOM     25  C   UNL     1      39.637   6.128  19.443  0.00  0.00    +0.000 A 
ATOM     26  C   UNL     1      40.956   6.491  19.296  0.00  0.00    +0.000 A 
ATOM     27  C   UNL     1      41.495   6.434  18.035  0.00  0.00    +0.000 A 
ATOM     28  C   UNL     1      40.724   6.020  16.941  0.00  0.00    +0.000 A 
ATOM     29  C   UNL     1      42.903   6.874  18.124  0.00  0.00    +0.000 C 
ATOM     30  C   UNL     1      43.289   6.548  19.543  0.00  0.00    +0.000 C 
ATOM     31  C   UNL     1      42.004   6.958  20.276  0.00  0.00    +0.000 C 
ENDBRANCH  22  23
ENDBRANCH  21  22
ENDBRANCH  19  21
ENDBRANCH  18  19
ENDBRANCH  17  18
ENDBRANCH   2  17
TORSDOF 9
ENDMDL
