MODEL 1
REMARK VINA RESULT:      -8.3      0.000      0.000
REMARK  Name = 
REMARK  3 active torsions:
REMARK  status: ('A' for Active; 'I' for Inactive)
REMARK    1  A    between atoms: C_6  and  N_7
REMARK    2  A    between atoms: N_7  and  C_8
REMARK    3  A    between atoms: C_17  and  N_18
REMARK                            x       y       z     vdW  Elec       q    Type
REMARK                         _______ _______ _______ _____ _____    ______ ____
ROOT
ATOM      1  C   UNL     1      14.790  12.780  35.686  0.00  0.00    +0.000 A 
ATOM      2  N   UNL     1      16.115  12.652  35.849  0.00  0.00    +0.000 NA
ATOM      3  C   UNL     1      16.379  11.850  36.895  0.00  0.00    +0.000 A 
ATOM      4  C   UNL     1      17.584  11.411  37.465  0.00  0.00    +0.000 A 
ATOM      5  C   UNL     1      17.579  10.573  38.561  0.00  0.00    +0.000 A 
ATOM      6  C   UNL     1      18.844  10.090  39.188  0.00  0.00    +0.000 C 
ATOM      7  C   UNL     1      16.350  10.182  39.076  0.00  0.00    +0.000 A 
ATOM      8  C   UNL     1      15.147  10.619  38.507  0.00  0.00    +0.000 A 
ATOM      9  C   UNL     1      15.166  11.463  37.405  0.00  0.00    +0.000 A 
ATOM     10  C   UNL     1      14.158  12.034  36.664  0.00  0.00    +0.000 A 
ENDROOT
BRANCH  10  11
ATOM     11  N   UNL     1      12.741  11.894  36.850  0.00  0.00    +0.000 N 
ATOM     12  O   UNL     1      12.022  12.892  36.714  0.00  0.00    +0.000 OA
ATOM     13  O   UNL     1      12.167  10.705  37.170  0.00  0.00    +0.000 OA
ENDBRANCH  10  11
BRANCH   1  14
ATOM     14  N   UNL     1      14.126  13.541  34.692  0.00  0.00    +0.000 NA
BRANCH  14  20
ATOM     15  C   UNL     1      15.854  10.690  31.081  0.00  0.00    +0.000 C 
ATOM     16  C   UNL     1      15.093  11.872  31.599  0.00  0.00    +0.000 A 
ATOM     17  C   UNL     1      14.505  12.693  30.663  0.00  0.00    +0.000 A 
ATOM     18  C   UNL     1      13.774  13.821  31.064  0.00  0.00    +0.000 A 
ATOM     19  C   UNL     1      13.644  14.109  32.411  0.00  0.00    +0.000 A 
ATOM     20  C   UNL     1      14.241  13.274  33.317  0.00  0.00    +0.000 A 
ATOM     21  C   UNL     1      14.972  12.146  32.926  0.00  0.00    +0.000 A 
ENDBRANCH  14  20
ENDBRANCH   1  14
TORSDOF 3
ENDMDL
MODEL 2
REMARK VINA RESULT:      -7.5     21.111     22.546
REMARK  Name = 
REMARK  3 active torsions:
REMARK  status: ('A' for Active; 'I' for Inactive)
REMARK    1  A    between atoms: C_6  and  N_7
REMARK    2  A    between atoms: N_7  and  C_8
REMARK    3  A    between atoms: C_17  and  N_18
REMARK                            x       y       z     vdW  Elec       q    Type
REMARK                         _______ _______ _______ _____ _____    ______ ____
ROOT
ATOM      1  C   UNL     1      29.018  23.864  22.702  0.00  0.00    +0.000 A 
ATOM      2  N   UNL     1      30.183  23.614  23.316  0.00  0.00    +0.000 NA
ATOM      3  C   UNL     1      29.965  23.153  24.560  0.00  0.00    +0.000 A 
ATOM      4  C   UNL     1      30.838  22.755  25.584  0.00  0.00    +0.000 A 
ATOM      5  C   UNL     1      30.345  22.312  26.794  0.00  0.00    +0.000 A 
ATOM      6  C   UNL     1      31.249  21.882  27.901  0.00  0.00    +0.000 C 
ATOM      7  C   UNL     1      28.967  22.274  26.962  0.00  0.00    +0.000 A 
ATOM      8  C   UNL     1      28.096  22.670  25.940  0.00  0.00    +0.000 A 
ATOM      9  C   UNL     1      28.603  23.115  24.727  0.00  0.00    +0.000 A 
ATOM     10  C   UNL     1      27.991  23.556  23.577  0.00  0.00    +0.000 A 
ENDROOT
BRANCH  10  11
ATOM     11  N   UNL     1      26.584  23.676  23.320  0.00  0.00    +0.000 N 
ATOM     12  O   UNL     1      25.931  24.512  23.958  0.00  0.00    +0.000 OA
ATOM     13  O   UNL     1      25.947  22.903  22.401  0.00  0.00    +0.000 OA
ENDBRANCH  10  11
BRANCH   1  14
ATOM     14  N   UNL     1      28.839  24.358  21.386  0.00  0.00    +0.000 NA
BRANCH  14  20
ATOM     15  C   UNL     1      30.756  27.668  18.301  0.00  0.00    +0.000 C 
ATOM     16  C   UNL     1      29.984  27.274  19.523  0.00  0.00    +0.000 A 
ATOM     17  C   UNL     1      29.479  28.294  20.296  0.00  0.00    +0.000 A 
ATOM     18  C   UNL     1      28.744  28.012  21.457  0.00  0.00    +0.000 A 
ATOM     19  C   UNL     1      28.526  26.696  21.826  0.00  0.00    +0.000 A 
ATOM     20  C   UNL     1      29.043  25.704  21.037  0.00  0.00    +0.000 A 
ATOM     21  C   UNL     1      29.778  25.976  19.877  0.00  0.00    +0.000 A 
ENDBRANCH  14  20
ENDBRANCH   1  14
TORSDOF 3
ENDMDL
MODEL 3
REMARK VINA RESULT:      -7.5      1.164      2.036
REMARK  Name = 
REMARK  3 active torsions:
REMARK  status: ('A' for Active; 'I' for Inactive)
REMARK    1  A    between atoms: C_6  and  N_7
REMARK    2  A    between atoms: N_7  and  C_8
REMARK    3  A    between atoms: C_17  and  N_18
REMARK                            x       y       z     vdW  Elec       q    Type
REMARK                         _______ _______ _______ _____ _____    ______ ____
ROOT
ATOM      1  C   UNL     1      15.849  11.967  36.273  0.00  0.00    +0.000 A 
ATOM      2  N   UNL     1      17.187  11.880  36.294  0.00  0.00    +0.000 NA
ATOM      3  C   UNL     1      17.590  11.161  37.357  0.00  0.00    +0.000 A 
ATOM      4  C   UNL     1      18.863  10.792  37.816  0.00  0.00    +0.000 A 
ATOM      5  C   UNL     1      19.005  10.035  38.961  0.00  0.00    +0.000 A 
ATOM      6  C   UNL     1      20.346   9.626  39.473  0.00  0.00    +0.000 C 
ATOM      7  C   UNL     1      17.853   9.655  39.637  0.00  0.00    +0.000 A 
ATOM      8  C   UNL     1      16.582  10.024  39.180  0.00  0.00    +0.000 A 
ATOM      9  C   UNL     1      16.453  10.786  38.027  0.00  0.00    +0.000 A 
ATOM     10  C   UNL     1      15.352  11.279  37.366  0.00  0.00    +0.000 A 
ENDROOT
BRANCH  10  11
ATOM     11  N   UNL     1      13.970  11.123  37.720  0.00  0.00    +0.000 N 
ATOM     12  O   UNL     1      13.120  11.123  36.820  0.00  0.00    +0.000 OA
ATOM     13  O   UNL     1      13.565  10.977  39.010  0.00  0.00    +0.000 OA
ENDBRANCH  10  11
BRANCH   1  14
ATOM     14  N   UNL     1      15.056  12.639  35.311  0.00  0.00    +0.000 NA
BRANCH  14  20
ATOM     15  C   UNL     1      13.815  13.632  30.660  0.00  0.00    +0.000 C 
ATOM     16  C   UNL     1      14.335  12.731  31.739  0.00  0.00    +0.000 A 
ATOM     17  C   UNL     1      14.702  11.459  31.365  0.00  0.00    +0.000 A 
ATOM     18  C   UNL     1      15.198  10.553  32.313  0.00  0.00    +0.000 A 
ATOM     19  C   UNL     1      15.320  10.942  33.634  0.00  0.00    +0.000 A 
ATOM     20  C   UNL     1      14.945  12.214  33.976  0.00  0.00    +0.000 A 
ATOM     21  C   UNL     1      14.448  13.126  33.037  0.00  0.00    +0.000 A 
ENDBRANCH  14  20
ENDBRANCH   1  14
TORSDOF 3
ENDMDL
MODEL 4
REMARK VINA RESULT:      -7.3      4.020      6.949
REMARK  Name = 
REMARK  3 active torsions:
REMARK  status: ('A' for Active; 'I' for Inactive)
REMARK    1  A    between atoms: C_6  and  N_7
REMARK    2  A    between atoms: N_7  and  C_8
REMARK    3  A    between atoms: C_17  and  N_18
REMARK                            x       y       z     vdW  Elec       q    Type
REMARK                         _______ _______ _______ _____ _____    ______ ____
ROOT
ATOM      1  C   UNL     1      18.471  10.012  37.001  0.00  0.00    +0.000 A 
ATOM      2  N   UNL     1      17.706  10.702  36.142  0.00  0.00    +0.000 NA
ATOM      3  C   UNL     1      16.523  11.000  36.708  0.00  0.00    +0.000 A 
ATOM      4  C   UNL     1      15.400  11.693  36.233  0.00  0.00    +0.000 A 
ATOM      5  C   UNL     1      14.289  11.863  37.033  0.00  0.00    +0.000 A 
ATOM      6  C   UNL     1      13.080  12.596  36.555  0.00  0.00    +0.000 C 
ATOM      7  C   UNL     1      14.322  11.329  38.315  0.00  0.00    +0.000 A 
ATOM      8  C   UNL     1      15.443  10.638  38.790  0.00  0.00    +0.000 A 
ATOM      9  C   UNL     1      16.555  10.472  37.974  0.00  0.00    +0.000 A 
ATOM     10  C   UNL     1      17.764   9.850  38.179  0.00  0.00    +0.000 A 
ENDROOT
BRANCH  10  11
ATOM     11  N   UNL     1      18.215   9.171  39.360  0.00  0.00    +0.000 N 
ATOM     12  O   UNL     1      18.501   9.841  40.361  0.00  0.00    +0.000 OA
ATOM     13  O   UNL     1      18.341   7.818  39.414  0.00  0.00    +0.000 OA
ENDBRANCH  10  11
BRANCH   1  14
ATOM     14  N   UNL     1      19.781   9.524  36.770  0.00  0.00    +0.000 NA
BRANCH  14  20
ATOM     15  C   UNL     1      24.585  10.309  36.093  0.00  0.00    +0.000 C 
ATOM     16  C   UNL     1      23.262  10.604  36.732  0.00  0.00    +0.000 A 
ATOM     17  C   UNL     1      23.229  11.628  37.651  0.00  0.00    +0.000 A 
ATOM     18  C   UNL     1      22.031  11.968  38.295  0.00  0.00    +0.000 A 
ATOM     19  C   UNL     1      20.874  11.268  38.004  0.00  0.00    +0.000 A 
ATOM     20  C   UNL     1      20.939  10.254  37.086  0.00  0.00    +0.000 A 
ATOM     21  C   UNL     1      22.131   9.907  36.438  0.00  0.00    +0.000 A 
ENDBRANCH  14  20
ENDBRANCH   1  14
TORSDOF 3
ENDMDL
MODEL 5
REMARK VINA RESULT:      -7.3      3.074      6.684
REMARK  Name = 
REMARK  3 active torsions:
REMARK  status: ('A' for Active; 'I' for Inactive)
REMARK    1  A    between atoms: C_6  and  N_7
REMARK    2  A    between atoms: N_7  and  C_8
REMARK    3  A    between atoms: C_17  and  N_18
REMARK                            x       y       z     vdW  Elec       q    Type
REMARK                         _______ _______ _______ _____ _____    ______ ____
ROOT
ATOM      1  C   UNL     1      17.094  11.192  36.839  0.00  0.00    +0.000 A 
ATOM      2  N   UNL     1      16.294  12.228  37.130  0.00  0.00    +0.000 NA
ATOM      3  C   UNL     1      15.563  12.567  36.053  0.00  0.00    +0.000 A 
ATOM      4  C   UNL     1      14.598  13.565  35.846  0.00  0.00    +0.000 A 
ATOM      5  C   UNL     1      13.985  13.705  34.619  0.00  0.00    +0.000 A 
ATOM      6  C   UNL     1      12.955  14.756  34.370  0.00  0.00    +0.000 C 
ATOM      7  C   UNL     1      14.352  12.831  33.604  0.00  0.00    +0.000 A 
ATOM      8  C   UNL     1      15.315  11.835  33.810  0.00  0.00    +0.000 A 
ATOM      9  C   UNL     1      15.925  11.705  35.050  0.00  0.00    +0.000 A 
ATOM     10  C   UNL     1      16.882  10.836  35.519  0.00  0.00    +0.000 A 
ENDROOT
BRANCH  10  11
ATOM     11  N   UNL     1      17.534   9.775  34.805  0.00  0.00    +0.000 N 
ATOM     12  O   UNL     1      18.084  10.033  33.726  0.00  0.00    +0.000 OA
ATOM     13  O   UNL     1      17.566   8.500  35.273  0.00  0.00    +0.000 OA
ENDBRANCH  10  11
BRANCH   1  14
ATOM     14  N   UNL     1      18.008  10.552  37.713  0.00  0.00    +0.000 NA
BRANCH  14  20
ATOM     15  C   UNL     1      22.635   9.367  36.558  0.00  0.00    +0.000 C 
ATOM     16  C   UNL     1      21.601  10.258  37.177  0.00  0.00    +0.000 A 
ATOM     17  C   UNL     1      22.052  11.403  37.792  0.00  0.00    +0.000 A 
ATOM     18  C   UNL     1      21.150  12.290  38.396  0.00  0.00    +0.000 A 
ATOM     19  C   UNL     1      19.796  12.011  38.373  0.00  0.00    +0.000 A 
ATOM     20  C   UNL     1      19.377  10.863  37.753  0.00  0.00    +0.000 A 
ATOM     21  C   UNL     1      20.271   9.971  37.148  0.00  0.00    +0.000 A 
ENDBRANCH  14  20
ENDBRANCH   1  14
TORSDOF 3
ENDMDL
MODEL 6
REMARK VINA RESULT:      -7.1     21.469     23.668
REMARK  Name = 
REMARK  3 active torsions:
REMARK  status: ('A' for Active; 'I' for Inactive)
REMARK    1  A    between atoms: C_6  and  N_7
REMARK    2  A    between atoms: N_7  and  C_8
REMARK    3  A    between atoms: C_17  and  N_18
REMARK                            x       y       z     vdW  Elec       q    Type
REMARK                         _______ _______ _______ _____ _____    ______ ____
ROOT
ATOM      1  C   UNL     1      28.841  24.374  22.213  0.00  0.00    +0.000 A 
ATOM      2  N   UNL     1      29.477  24.525  21.041  0.00  0.00    +0.000 NA
ATOM      3  C   UNL     1      29.454  25.815  20.663  0.00  0.00    +0.000 A 
ATOM      4  C   UNL     1      29.969  26.476  19.537  0.00  0.00    +0.000 A 
ATOM      5  C   UNL     1      29.804  27.837  19.385  0.00  0.00    +0.000 A 
ATOM      6  C   UNL     1      30.342  28.566  18.199  0.00  0.00    +0.000 C 
ATOM      7  C   UNL     1      29.117  28.525  20.376  0.00  0.00    +0.000 A 
ATOM      8  C   UNL     1      28.602  27.866  21.499  0.00  0.00    +0.000 A 
ATOM      9  C   UNL     1      28.774  26.496  21.641  0.00  0.00    +0.000 A 
ATOM     10  C   UNL     1      28.382  25.614  22.620  0.00  0.00    +0.000 A 
ENDROOT
BRANCH  10  11
ATOM     11  N   UNL     1      27.649  25.901  23.821  0.00  0.00    +0.000 N 
ATOM     12  O   UNL     1      26.431  25.681  23.843  0.00  0.00    +0.000 OA
ATOM     13  O   UNL     1      28.249  26.406  24.932  0.00  0.00    +0.000 OA
ENDBRANCH  10  11
BRANCH   1  14
ATOM     14  N   UNL     1      28.658  23.167  22.931  0.00  0.00    +0.000 NA
BRANCH  14  20
ATOM     15  C   UNL     1      28.021  22.229  27.712  0.00  0.00    +0.000 C 
ATOM     16  C   UNL     1      28.870  22.482  26.504  0.00  0.00    +0.000 A 
ATOM     17  C   UNL     1      30.234  22.478  26.690  0.00  0.00    +0.000 A 
ATOM     18  C   UNL     1      31.100  22.707  25.612  0.00  0.00    +0.000 A 
ATOM     19  C   UNL     1      30.579  22.937  24.351  0.00  0.00    +0.000 A 
ATOM     20  C   UNL     1      29.218  22.935  24.199  0.00  0.00    +0.000 A 
ATOM     21  C   UNL     1      28.345  22.708  25.270  0.00  0.00    +0.000 A 
ENDBRANCH  14  20
ENDBRANCH   1  14
TORSDOF 3
ENDMDL
MODEL 7
REMARK VINA RESULT:      -7.0     17.936     19.491
REMARK  Name = 
REMARK  3 active torsions:
REMARK  status: ('A' for Active; 'I' for Inactive)
REMARK    1  A    between atoms: C_6  and  N_7
REMARK    2  A    between atoms: N_7  and  C_8
REMARK    3  A    between atoms: C_17  and  N_18
REMARK                            x       y       z     vdW  Elec       q    Type
REMARK                         _______ _______ _______ _____ _____    ______ ____
ROOT
ATOM      1  C   UNL     1      26.585  23.294  26.985  0.00  0.00    +0.000 A 
ATOM      2  N   UNL     1      25.671  24.172  26.547  0.00  0.00    +0.000 NA
ATOM      3  C   UNL     1      25.177  24.882  27.577  0.00  0.00    +0.000 A 
ATOM      4  C   UNL     1      24.216  25.902  27.642  0.00  0.00    +0.000 A 
ATOM      5  C   UNL     1      23.883  26.477  28.851  0.00  0.00    +0.000 A 
ATOM      6  C   UNL     1      22.866  27.564  28.951  0.00  0.00    +0.000 C 
ATOM      7  C   UNL     1      24.527  26.015  29.992  0.00  0.00    +0.000 A 
ATOM      8  C   UNL     1      25.486  24.997  29.927  0.00  0.00    +0.000 A 
ATOM      9  C   UNL     1      25.813  24.426  28.704  0.00  0.00    +0.000 A 
ATOM     10  C   UNL     1      26.698  23.432  28.357  0.00  0.00    +0.000 A 
ENDROOT
BRANCH  10  11
ATOM     11  N   UNL     1      27.565  22.684  29.223  0.00  0.00    +0.000 N 
ATOM     12  O   UNL     1      28.750  23.029  29.322  0.00  0.00    +0.000 OA
ATOM     13  O   UNL     1      27.128  21.612  29.935  0.00  0.00    +0.000 OA
ENDBRANCH  10  11
BRANCH   1  14
ATOM     14  N   UNL     1      27.324  22.374  26.201  0.00  0.00    +0.000 NA
BRANCH  14  20
ATOM     15  C   UNL     1      29.474  24.494  22.324  0.00  0.00    +0.000 C 
ATOM     16  C   UNL     1      29.504  23.756  23.627  0.00  0.00    +0.000 A 
ATOM     17  C   UNL     1      30.743  23.429  24.130  0.00  0.00    +0.000 A 
ATOM     18  C   UNL     1      30.859  22.738  25.344  0.00  0.00    +0.000 A 
ATOM     19  C   UNL     1      29.719  22.383  26.042  0.00  0.00    +0.000 A 
ATOM     20  C   UNL     1      28.501  22.721  25.516  0.00  0.00    +0.000 A 
ATOM     21  C   UNL     1      28.375  23.411  24.304  0.00  0.00    +0.000 A 
ENDBRANCH  14  20
ENDBRANCH   1  14
TORSDOF 3
ENDMDL
MODEL 8
REMARK VINA RESULT:      -7.0     18.742     20.327
REMARK  Name = 
REMARK  3 active torsions:
REMARK  status: ('A' for Active; 'I' for Inactive)
REMARK    1  A    between atoms: C_6  and  N_7
REMARK    2  A    between atoms: N_7  and  C_8
REMARK    3  A    between atoms: C_17  and  N_18
REMARK                            x       y       z     vdW  Elec       q    Type
REMARK                         _______ _______ _______ _____ _____    ______ ____
ROOT
ATOM      1  C   UNL     1      26.368  23.426  25.993  0.00  0.00    +0.000 A 
ATOM      2  N   UNL     1      25.807  23.881  27.123  0.00  0.00    +0.000 NA
ATOM      3  C   UNL     1      24.965  24.893  26.850  0.00  0.00    +0.000 A 
ATOM      4  C   UNL     1      24.152  25.690  27.670  0.00  0.00    +0.000 A 
ATOM      5  C   UNL     1      23.366  26.684  27.126  0.00  0.00    +0.000 A 
ATOM      6  C   UNL     1      22.491  27.546  27.974  0.00  0.00    +0.000 C 
ATOM      7  C   UNL     1      23.406  26.868  25.750  0.00  0.00    +0.000 A 
ATOM      8  C   UNL     1      24.217  26.073  24.931  0.00  0.00    +0.000 A 
ATOM      9  C   UNL     1      25.005  25.075  25.490  0.00  0.00    +0.000 A 
ATOM     10  C   UNL     1      25.876  24.168  24.934  0.00  0.00    +0.000 A 
ENDROOT
BRANCH  10  11
ATOM     11  N   UNL     1      26.216  24.009  23.549  0.00  0.00    +0.000 N 
ATOM     12  O   UNL     1      27.028  24.794  23.041  0.00  0.00    +0.000 OA
ATOM     13  O   UNL     1      25.675  23.029  22.779  0.00  0.00    +0.000 OA
ENDBRANCH  10  11
BRANCH   1  14
ATOM     14  N   UNL     1      27.304  22.369  25.875  0.00  0.00    +0.000 NA
BRANCH  14  20
ATOM     15  C   UNL     1      31.891  23.422  24.459  0.00  0.00    +0.000 C 
ATOM     16  C   UNL     1      30.868  23.024  25.479  0.00  0.00    +0.000 A 
ATOM     17  C   UNL     1      31.319  22.798  26.759  0.00  0.00    +0.000 A 
ATOM     18  C   UNL     1      30.428  22.422  27.773  0.00  0.00    +0.000 A 
ATOM     19  C   UNL     1      29.083  22.277  27.484  0.00  0.00    +0.000 A 
ATOM     20  C   UNL     1      28.664  22.508  26.200  0.00  0.00    +0.000 A 
ATOM     21  C   UNL     1      29.547  22.883  25.181  0.00  0.00    +0.000 A 
ENDBRANCH  14  20
ENDBRANCH   1  14
TORSDOF 3
ENDMDL
MODEL 9
REMARK VINA RESULT:      -6.7     21.853     24.473
REMARK  Name = 
REMARK  3 active torsions:
REMARK  status: ('A' for Active; 'I' for Inactive)
REMARK    1  A    between atoms: C_6  and  N_7
REMARK    2  A    between atoms: N_7  and  C_8
REMARK    3  A    between atoms: C_17  and  N_18
REMARK                            x       y       z     vdW  Elec       q    Type
REMARK                         _______ _______ _______ _____ _____    ______ ____
ROOT
ATOM      1  C   UNL     1      33.560  -2.851  34.392  0.00  0.00    +0.000 A 
ATOM      2  N   UNL     1      33.332  -1.921  33.453  0.00  0.00    +0.000 NA
ATOM      3  C   UNL     1      33.495  -0.689  33.969  0.00  0.00    +0.000 A 
ATOM      4  C   UNL     1      33.373   0.591  33.407  0.00  0.00    +0.000 A 
ATOM      5  C   UNL     1      33.598   1.717  34.171  0.00  0.00    +0.000 A 
ATOM      6  C   UNL     1      33.478   3.091  33.601  0.00  0.00    +0.000 C 
ATOM      7  C   UNL     1      33.947   1.541  35.504  0.00  0.00    +0.000 A 
ATOM      8  C   UNL     1      34.068   0.264  36.065  0.00  0.00    +0.000 A 
ATOM      9  C   UNL     1      33.838  -0.862  35.286  0.00  0.00    +0.000 A 
ATOM     10  C   UNL     1      33.885  -2.206  35.572  0.00  0.00    +0.000 A 
ENDROOT
BRANCH  10  11
ATOM     11  N   UNL     1      34.203  -2.829  36.826  0.00  0.00    +0.000 N 
ATOM     12  O   UNL     1      33.309  -3.429  37.437  0.00  0.00    +0.000 OA
ATOM     13  O   UNL     1      35.450  -2.778  37.363  0.00  0.00    +0.000 OA
ENDBRANCH  10  11
BRANCH   1  14
ATOM     14  N   UNL     1      33.488  -4.257  34.230  0.00  0.00    +0.000 NA
BRANCH  14  20
ATOM     15  C   UNL     1      33.886  -5.501  29.493  0.00  0.00    +0.000 C 
ATOM     16  C   UNL     1      34.337  -5.529  30.922  0.00  0.00    +0.000 A 
ATOM     17  C   UNL     1      35.463  -6.267  31.206  0.00  0.00    +0.000 A 
ATOM     18  C   UNL     1      35.951  -6.346  32.518  0.00  0.00    +0.000 A 
ATOM     19  C   UNL     1      35.295  -5.675  33.534  0.00  0.00    +0.000 A 
ATOM     20  C   UNL     1      34.177  -4.949  33.220  0.00  0.00    +0.000 A 
ATOM     21  C   UNL     1      33.682  -4.865  31.913  0.00  0.00    +0.000 A 
ENDBRANCH  14  20
ENDBRANCH   1  14
TORSDOF 3
ENDMDL
MODEL 10
REMARK VINA RESULT:      -6.7     21.552     23.147
REMARK  Name = 
REMARK  3 active torsions:
REMARK  status: ('A' for Active; 'I' for Inactive)
REMARK    1  A    between atoms: C_6  and  N_7
REMARK    2  A    between atoms: N_7  and  C_8
REMARK    3  A    between atoms: C_17  and  N_18
REMARK                            x       y       z     vdW  Elec       q    Type
REMARK                         _______ _______ _______ _____ _____    ______ ____
ROOT
ATOM      1  C   UNL     1      31.207  23.309  24.639  0.00  0.00    +0.000 A 
ATOM      2  N   UNL     1      30.331  23.472  23.637  0.00  0.00    +0.000 NA
ATOM      3  C   UNL     1      29.075  23.296  24.083  0.00  0.00    +0.000 A 
ATOM      4  C   UNL     1      27.830  23.357  23.440  0.00  0.00    +0.000 A 
ATOM      5  C   UNL     1      26.664  23.131  24.143  0.00  0.00    +0.000 A 
ATOM      6  C   UNL     1      25.326  23.190  23.486  0.00  0.00    +0.000 C 
ATOM      7  C   UNL     1      26.766  22.843  25.497  0.00  0.00    +0.000 A 
ATOM      8  C   UNL     1      28.009  22.782  26.140  0.00  0.00    +0.000 A 
ATOM      9  C   UNL     1      29.175  23.011  25.422  0.00  0.00    +0.000 A 
ATOM     10  C   UNL     1      30.499  23.014  25.791  0.00  0.00    +0.000 A 
ENDROOT
BRANCH  10  11
ATOM     11  N   UNL     1      31.051  22.766  27.092  0.00  0.00    +0.000 N 
ATOM     12  O   UNL     1      31.045  21.608  27.531  0.00  0.00    +0.000 OA
ATOM     13  O   UNL     1      31.576  23.759  27.857  0.00  0.00    +0.000 OA
ENDBRANCH  10  11
BRANCH   1  14
ATOM     14  N   UNL     1      32.618  23.416  24.561  0.00  0.00    +0.000 NA
BRANCH  14  20
ATOM     15  C   UNL     1      36.850  25.913  24.485  0.00  0.00    +0.000 C 
ATOM     16  C   UNL     1      35.372  25.799  24.705  0.00  0.00    +0.000 A 
ATOM     17  C   UNL     1      34.713  26.937  25.108  0.00  0.00    +0.000 A 
ATOM     18  C   UNL     1      33.330  26.917  25.337  0.00  0.00    +0.000 A 
ATOM     19  C   UNL     1      32.623  25.741  25.155  0.00  0.00    +0.000 A 
ATOM     20  C   UNL     1      33.308  24.625  24.754  0.00  0.00    +0.000 A 
ATOM     21  C   UNL     1      34.689  24.636  24.524  0.00  0.00    +0.000 A 
ENDBRANCH  14  20
ENDBRANCH   1  14
TORSDOF 3
ENDMDL
