MODEL 1
REMARK VINA RESULT:      -7.9      0.000      0.000
REMARK  Name = 
REMARK  6 active torsions:
REMARK  status: ('A' for Active; 'I' for Inactive)
REMARK    1  A    between atoms: C_2  and  C_3
REMARK    2  A    between atoms: C_3  and  O_4
REMARK    3  A    between atoms: O_4  and  C_5
REMARK    4  A    between atoms: N_11  and  C_12
REMARK    5  A    between atoms: C_16  and  C_17
REMARK    6  A    between atoms: N_19  and  C_20
REMARK                            x       y       z     vdW  Elec       q    Type
REMARK                         _______ _______ _______ _____ _____    ______ ____
ROOT
ATOM      1  C   UNL     1      35.368   1.693  15.587  0.00  0.00    +0.000 A 
ATOM      2  S   UNL     1      34.509   3.163  15.511  0.00  0.00    +0.000 S 
ATOM      3  C   UNL     1      35.423   3.951  14.315  0.00  0.00    +0.000 A 
ATOM      4  C   UNL     1      36.388   3.038  13.999  0.00  0.00    +0.000 A 
ATOM      5  C   UNL     1      36.359   1.860  14.663  0.00  0.00    +0.000 A 
ATOM      6  C   UNL     1      37.442   3.354  12.941  0.00  0.00    +0.000 C 
ATOM      7  C   UNL     1      38.333   4.463  13.412  0.00  0.00    +0.000 C 
ATOM      8  C   UNL     1      37.572   5.264  14.445  0.00  0.00    +0.000 C 
ATOM      9  C   UNL     1      36.466   6.071  13.836  0.00  0.00    +0.000 C 
ATOM     10  C   UNL     1      35.151   5.337  13.790  0.00  0.00    +0.000 C 
ENDROOT
BRANCH   1  13
ATOM     11  O   UNL     1      36.505   1.423  18.022  0.00  0.00    +0.000 OA
ATOM     12  C   UNL     1      35.773   0.469  17.702  0.00  0.00    +0.000 C 
ATOM     13  N   UNL     1      35.128   0.530  16.422  0.00  0.00    +0.000 NA
BRANCH  12  14
ATOM     14  C   UNL     1      35.583  -0.682  18.621  0.00  0.00    +0.000 C 
BRANCH  14  15
ATOM     15  O   UNL     1      36.841  -1.246  18.892  0.00  0.00    +0.000 OA
BRANCH  15  16
ATOM     16  C   UNL     1      37.199  -2.424  18.276  0.00  0.00    +0.000 A 
ATOM     17  C   UNL     1      38.334  -3.079  18.672  0.00  0.00    +0.000 A 
ATOM     18  C   UNL     1      38.740  -4.263  18.088  0.00  0.00    +0.000 A 
ATOM     19  C   UNL     1      38.004  -4.830  17.074  0.00  0.00    +0.000 A 
ATOM     20  C   UNL     1      36.861  -4.176  16.671  0.00  0.00    +0.000 A 
ATOM     21  C   UNL     1      36.450  -2.983  17.257  0.00  0.00    +0.000 A 
ENDBRANCH  15  16
ENDBRANCH  14  15
ENDBRANCH  12  14
ENDBRANCH   1  13
BRANCH   5  22
ATOM     22  C   UNL     1      37.351   0.785  14.413  0.00  0.00    +0.000 C 
ATOM     23  O   UNL     1      37.179  -0.074  13.522  0.00  0.00    +0.000 OA
ATOM     24  N   UNL     1      38.553   0.665  15.169  0.00  0.00    +0.000 NA
BRANCH  24  25
ATOM     25  C   UNL     1      39.505  -0.350  14.945  0.00  0.00    +0.000 A 
ATOM     26  C   UNL     1      39.393  -1.642  15.396  0.00  0.00    +0.000 A 
ATOM     27  C   UNL     1      40.400  -2.570  15.115  0.00  0.00    +0.000 A 
ATOM     28  C   UNL     1      41.518  -2.230  14.393  0.00  0.00    +0.000 A 
ATOM     29  C   UNL     1      41.632  -0.932  13.939  0.00  0.00    +0.000 A 
ATOM     30  C   UNL     1      40.636  -0.028  14.221  0.00  0.00    +0.000 A 
ENDBRANCH  24  25
ENDBRANCH   5  22
TORSDOF 6
ENDMDL
MODEL 2
REMARK VINA RESULT:      -7.3      2.978      7.134
REMARK  Name = 
REMARK  6 active torsions:
REMARK  status: ('A' for Active; 'I' for Inactive)
REMARK    1  A    between atoms: C_2  and  C_3
REMARK    2  A    between atoms: C_3  and  O_4
REMARK    3  A    between atoms: O_4  and  C_5
REMARK    4  A    between atoms: N_11  and  C_12
REMARK    5  A    between atoms: C_16  and  C_17
REMARK    6  A    between atoms: N_19  and  C_20
REMARK                            x       y       z     vdW  Elec       q    Type
REMARK                         _______ _______ _______ _____ _____    ______ ____
ROOT
ATOM      1  C   UNL     1      39.917   1.276  14.186  0.00  0.00    +0.000 A 
ATOM      2  S   UNL     1      41.130   1.396  12.994  0.00  0.00    +0.000 S 
ATOM      3  C   UNL     1      41.146  -0.217  12.460  0.00  0.00    +0.000 A 
ATOM      4  C   UNL     1      40.194  -0.818  13.232  0.00  0.00    +0.000 A 
ATOM      5  C   UNL     1      39.553  -0.039  14.133  0.00  0.00    +0.000 A 
ATOM      6  C   UNL     1      39.884  -2.304  13.070  0.00  0.00    +0.000 C 
ATOM      7  C   UNL     1      41.062  -3.129  13.492  0.00  0.00    +0.000 C 
ATOM      8  C   UNL     1      42.300  -2.269  13.367  0.00  0.00    +0.000 C 
ATOM      9  C   UNL     1      42.671  -2.010  11.938  0.00  0.00    +0.000 C 
ATOM     10  C   UNL     1      42.042  -0.762  11.377  0.00  0.00    +0.000 C 
ENDROOT
BRANCH   1  13
ATOM     11  O   UNL     1      37.849   2.847  13.443  0.00  0.00    +0.000 OA
ATOM     12  C   UNL     1      38.281   3.094  14.584  0.00  0.00    +0.000 C 
ATOM     13  N   UNL     1      39.382   2.305  15.059  0.00  0.00    +0.000 NA
BRANCH  12  14
ATOM     14  C   UNL     1      37.672   4.166  15.410  0.00  0.00    +0.000 C 
BRANCH  14  15
ATOM     15  O   UNL     1      38.090   3.994  16.740  0.00  0.00    +0.000 OA
BRANCH  15  16
ATOM     16  C   UNL     1      38.961   4.903  17.297  0.00  0.00    +0.000 A 
ATOM     17  C   UNL     1      38.941   5.125  18.647  0.00  0.00    +0.000 A 
ATOM     18  C   UNL     1      39.792   6.025  19.257  0.00  0.00    +0.000 A 
ATOM     19  C   UNL     1      40.703   6.739  18.514  0.00  0.00    +0.000 A 
ATOM     20  C   UNL     1      40.730   6.520  17.155  0.00  0.00    +0.000 A 
ATOM     21  C   UNL     1      39.873   5.614  16.537  0.00  0.00    +0.000 A 
ENDBRANCH  15  16
ENDBRANCH  14  15
ENDBRANCH  12  14
ENDBRANCH   1  13
BRANCH   5  22
ATOM     22  C   UNL     1      38.498  -0.570  15.032  0.00  0.00    +0.000 C 
ATOM     23  O   UNL     1      38.771  -1.057  16.150  0.00  0.00    +0.000 OA
ATOM     24  N   UNL     1      37.118  -0.557  14.680  0.00  0.00    +0.000 NA
BRANCH  24  25
ATOM     25  C   UNL     1      36.104  -1.056  15.521  0.00  0.00    +0.000 A 
ATOM     26  C   UNL     1      35.673  -2.360  15.541  0.00  0.00    +0.000 A 
ATOM     27  C   UNL     1      34.658  -2.748  16.419  0.00  0.00    +0.000 A 
ATOM     28  C   UNL     1      34.062  -1.857  17.278  0.00  0.00    +0.000 A 
ATOM     29  C   UNL     1      34.494  -0.546  17.260  0.00  0.00    +0.000 A 
ATOM     30  C   UNL     1      35.494  -0.176  16.392  0.00  0.00    +0.000 A 
ENDBRANCH  24  25
ENDBRANCH   5  22
TORSDOF 6
ENDMDL
MODEL 3
REMARK VINA RESULT:      -6.8      2.778      6.450
REMARK  Name = 
REMARK  6 active torsions:
REMARK  status: ('A' for Active; 'I' for Inactive)
REMARK    1  A    between atoms: C_2  and  C_3
REMARK    2  A    between atoms: C_3  and  O_4
REMARK    3  A    between atoms: O_4  and  C_5
REMARK    4  A    between atoms: N_11  and  C_12
REMARK    5  A    between atoms: C_16  and  C_17
REMARK    6  A    between atoms: N_19  and  C_20
REMARK                            x       y       z     vdW  Elec       q    Type
REMARK                         _______ _______ _______ _____ _____    ______ ____
ROOT
ATOM      1  C   UNL     1      36.874   0.737  15.349  0.00  0.00    +0.000 A 
ATOM      2  S   UNL     1      35.464   0.322  16.212  0.00  0.00    +0.000 S 
ATOM      3  C   UNL     1      35.704  -1.356  16.335  0.00  0.00    +0.000 A 
ATOM      4  C   UNL     1      36.893  -1.554  15.692  0.00  0.00    +0.000 A 
ATOM      5  C   UNL     1      37.502  -0.463  15.178  0.00  0.00    +0.000 A 
ATOM      6  C   UNL     1      37.487  -2.956  15.571  0.00  0.00    +0.000 C 
ATOM      7  C   UNL     1      36.619  -3.814  14.701  0.00  0.00    +0.000 C 
ATOM      8  C   UNL     1      35.221  -3.237  14.725  0.00  0.00    +0.000 C 
ATOM      9  C   UNL     1      34.542  -3.448  16.044  0.00  0.00    +0.000 C 
ATOM     10  C   UNL     1      34.764  -2.318  17.015  0.00  0.00    +0.000 C 
ENDROOT
BRANCH   1  13
ATOM     11  O   UNL     1      37.379   2.756  17.071  0.00  0.00    +0.000 OA
ATOM     12  C   UNL     1      37.567   3.056  15.878  0.00  0.00    +0.000 C 
ATOM     13  N   UNL     1      37.322   2.041  14.894  0.00  0.00    +0.000 NA
BRANCH  12  14
ATOM     14  C   UNL     1      38.028   4.417  15.502  0.00  0.00    +0.000 C 
BRANCH  14  15
ATOM     15  O   UNL     1      37.889   5.257  16.619  0.00  0.00    +0.000 OA
BRANCH  15  16
ATOM     16  C   UNL     1      39.009   5.633  17.324  0.00  0.00    +0.000 A 
ATOM     17  C   UNL     1      40.156   5.962  16.652  0.00  0.00    +0.000 A 
ATOM     18  C   UNL     1      41.308   6.345  17.310  0.00  0.00    +0.000 A 
ATOM     19  C   UNL     1      41.340   6.411  18.683  0.00  0.00    +0.000 A 
ATOM     20  C   UNL     1      40.189   6.083  19.365  0.00  0.00    +0.000 A 
ATOM     21  C   UNL     1      39.027   5.696  18.706  0.00  0.00    +0.000 A 
ENDBRANCH  15  16
ENDBRANCH  14  15
ENDBRANCH  12  14
ENDBRANCH   1  13
BRANCH   5  22
ATOM     22  C   UNL     1      38.797  -0.543  14.457  0.00  0.00    +0.000 C 
ATOM     23  O   UNL     1      38.851  -0.718  13.221  0.00  0.00    +0.000 OA
ATOM     24  N   UNL     1      40.050  -0.427  15.124  0.00  0.00    +0.000 NA
BRANCH  24  25
ATOM     25  C   UNL     1      41.288  -0.502  14.455  0.00  0.00    +0.000 A 
ATOM     26  C   UNL     1      41.873   0.535  13.770  0.00  0.00    +0.000 A 
ATOM     27  C   UNL     1      43.107   0.350  13.142  0.00  0.00    +0.000 A 
ATOM     28  C   UNL     1      43.770  -0.852  13.185  0.00  0.00    +0.000 A 
ATOM     29  C   UNL     1      43.185  -1.895  13.874  0.00  0.00    +0.000 A 
ATOM     30  C   UNL     1      41.970  -1.702  14.487  0.00  0.00    +0.000 A 
ENDBRANCH  24  25
ENDBRANCH   5  22
TORSDOF 6
ENDMDL
MODEL 4
REMARK VINA RESULT:      -6.8      3.623      6.671
REMARK  Name = 
REMARK  6 active torsions:
REMARK  status: ('A' for Active; 'I' for Inactive)
REMARK    1  A    between atoms: C_2  and  C_3
REMARK    2  A    between atoms: C_3  and  O_4
REMARK    3  A    between atoms: O_4  and  C_5
REMARK    4  A    between atoms: N_11  and  C_12
REMARK    5  A    between atoms: C_16  and  C_17
REMARK    6  A    between atoms: N_19  and  C_20
REMARK                            x       y       z     vdW  Elec       q    Type
REMARK                         _______ _______ _______ _____ _____    ______ ____
ROOT
ATOM      1  C   UNL     1      37.295   3.317  13.455  0.00  0.00    +0.000 A 
ATOM      2  S   UNL     1      37.315   3.668  11.786  0.00  0.00    +0.000 S 
ATOM      3  C   UNL     1      37.539   2.095  11.182  0.00  0.00    +0.000 A 
ATOM      4  C   UNL     1      37.593   1.326  12.308  0.00  0.00    +0.000 A 
ATOM      5  C   UNL     1      37.466   1.964  13.494  0.00  0.00    +0.000 A 
ATOM      6  C   UNL     1      37.790  -0.185  12.210  0.00  0.00    +0.000 C 
ATOM      7  C   UNL     1      39.150  -0.497  11.665  0.00  0.00    +0.000 C 
ATOM      8  C   UNL     1      39.619   0.703  10.871  0.00  0.00    +0.000 C 
ATOM      9  C   UNL     1      38.864   0.864   9.587  0.00  0.00    +0.000 C 
ATOM     10  C   UNL     1      37.642   1.736   9.721  0.00  0.00    +0.000 C 
ENDROOT
BRANCH   1  13
ATOM     11  O   UNL     1      39.417   4.392  14.732  0.00  0.00    +0.000 OA
ATOM     12  C   UNL     1      38.319   4.745  15.201  0.00  0.00    +0.000 C 
ATOM     13  N   UNL     1      37.137   4.220  14.581  0.00  0.00    +0.000 NA
BRANCH  12  14
ATOM     14  C   UNL     1      38.252   5.674  16.357  0.00  0.00    +0.000 C 
BRANCH  14  15
ATOM     15  O   UNL     1      39.450   6.407  16.409  0.00  0.00    +0.000 OA
BRANCH  15  16
ATOM     16  C   UNL     1      40.186   6.414  17.571  0.00  0.00    +0.000 A 
ATOM     17  C   UNL     1      41.550   6.517  17.510  0.00  0.00    +0.000 A 
ATOM     18  C   UNL     1      42.337   6.528  18.645  0.00  0.00    +0.000 A 
ATOM     19  C   UNL     1      41.766   6.436  19.893  0.00  0.00    +0.000 A 
ATOM     20  C   UNL     1      40.395   6.332  19.961  0.00  0.00    +0.000 A 
ATOM     21  C   UNL     1      39.599   6.320  18.820  0.00  0.00    +0.000 A 
ENDBRANCH  15  16
ENDBRANCH  14  15
ENDBRANCH  12  14
ENDBRANCH   1  13
BRANCH   5  22
ATOM     22  C   UNL     1      37.507   1.243  14.791  0.00  0.00    +0.000 C 
ATOM     23  O   UNL     1      38.579   1.058  15.406  0.00  0.00    +0.000 OA
ATOM     24  N   UNL     1      36.336   0.721  15.411  0.00  0.00    +0.000 NA
BRANCH  24  25
ATOM     25  C   UNL     1      36.357   0.034  16.641  0.00  0.00    +0.000 A 
ATOM     26  C   UNL     1      36.681  -1.292  16.793  0.00  0.00    +0.000 A 
ATOM     27  C   UNL     1      36.670  -1.872  18.064  0.00  0.00    +0.000 A 
ATOM     28  C   UNL     1      36.341  -1.154  19.187  0.00  0.00    +0.000 A 
ATOM     29  C   UNL     1      36.015   0.179  19.037  0.00  0.00    +0.000 A 
ATOM     30  C   UNL     1      36.029   0.740  17.782  0.00  0.00    +0.000 A 
ENDBRANCH  24  25
ENDBRANCH   5  22
TORSDOF 6
ENDMDL
MODEL 5
REMARK VINA RESULT:      -6.7      2.987      7.087
REMARK  Name = 
REMARK  6 active torsions:
REMARK  status: ('A' for Active; 'I' for Inactive)
REMARK    1  A    between atoms: C_2  and  C_3
REMARK    2  A    between atoms: C_3  and  O_4
REMARK    3  A    between atoms: O_4  and  C_5
REMARK    4  A    between atoms: N_11  and  C_12
REMARK    5  A    between atoms: C_16  and  C_17
REMARK    6  A    between atoms: N_19  and  C_20
REMARK                            x       y       z     vdW  Elec       q    Type
REMARK                         _______ _______ _______ _____ _____    ______ ____
ROOT
ATOM      1  C   UNL     1      38.730   0.803  12.409  0.00  0.00    +0.000 A 
ATOM      2  S   UNL     1      39.296   0.303  10.880  0.00  0.00    +0.000 S 
ATOM      3  C   UNL     1      39.718  -1.299  11.258  0.00  0.00    +0.000 A 
ATOM      4  C   UNL     1      39.404  -1.407  12.582  0.00  0.00    +0.000 A 
ATOM      5  C   UNL     1      38.889  -0.310  13.182  0.00  0.00    +0.000 A 
ATOM      6  C   UNL     1      39.634  -2.718  13.332  0.00  0.00    +0.000 C 
ATOM      7  C   UNL     1      41.100  -3.010  13.428  0.00  0.00    +0.000 C 
ATOM      8  C   UNL     1      41.795  -2.281  12.299  0.00  0.00    +0.000 C 
ATOM      9  C   UNL     1      41.503  -2.893  10.963  0.00  0.00    +0.000 C 
ATOM     10  C   UNL     1      40.298  -2.294  10.285  0.00  0.00    +0.000 C 
ENDROOT
BRANCH   1  13
ATOM     11  O   UNL     1      40.299   2.699  13.521  0.00  0.00    +0.000 OA
ATOM     12  C   UNL     1      39.109   3.042  13.399  0.00  0.00    +0.000 C 
ATOM     13  N   UNL     1      38.203   2.093  12.817  0.00  0.00    +0.000 NA
BRANCH  12  14
ATOM     14  C   UNL     1      38.657   4.385  13.844  0.00  0.00    +0.000 C 
BRANCH  14  15
ATOM     15  O   UNL     1      38.102   4.263  15.130  0.00  0.00    +0.000 OA
BRANCH  15  16
ATOM     16  C   UNL     1      38.766   4.807  16.205  0.00  0.00    +0.000 A 
ATOM     17  C   UNL     1      39.878   5.580  15.997  0.00  0.00    +0.000 A 
ATOM     18  C   UNL     1      40.582   6.150  17.039  0.00  0.00    +0.000 A 
ATOM     19  C   UNL     1      40.181   5.957  18.341  0.00  0.00    +0.000 A 
ATOM     20  C   UNL     1      39.064   5.182  18.557  0.00  0.00    +0.000 A 
ATOM     21  C   UNL     1      38.353   4.606  17.509  0.00  0.00    +0.000 A 
ENDBRANCH  15  16
ENDBRANCH  14  15
ENDBRANCH  12  14
ENDBRANCH   1  13
BRANCH   5  22
ATOM     22  C   UNL     1      38.507  -0.296  14.616  0.00  0.00    +0.000 C 
ATOM     23  O   UNL     1      39.299   0.087  15.504  0.00  0.00    +0.000 OA
ATOM     24  N   UNL     1      37.223  -0.717  15.068  0.00  0.00    +0.000 NA
BRANCH  24  25
ATOM     25  C   UNL     1      36.844  -0.711  16.425  0.00  0.00    +0.000 A 
ATOM     26  C   UNL     1      37.176  -1.683  17.336  0.00  0.00    +0.000 A 
ATOM     27  C   UNL     1      36.747  -1.575  18.661  0.00  0.00    +0.000 A 
ATOM     28  C   UNL     1      35.989  -0.515  19.094  0.00  0.00    +0.000 A 
ATOM     29  C   UNL     1      35.654   0.464  18.180  0.00  0.00    +0.000 A 
ATOM     30  C   UNL     1      36.083   0.348  16.879  0.00  0.00    +0.000 A 
ENDBRANCH  24  25
ENDBRANCH   5  22
TORSDOF 6
ENDMDL
MODEL 6
REMARK VINA RESULT:      -6.7      2.438      7.288
REMARK  Name = 
REMARK  6 active torsions:
REMARK  status: ('A' for Active; 'I' for Inactive)
REMARK    1  A    between atoms: C_2  and  C_3
REMARK    2  A    between atoms: C_3  and  O_4
REMARK    3  A    between atoms: O_4  and  C_5
REMARK    4  A    between atoms: N_11  and  C_12
REMARK    5  A    between atoms: C_16  and  C_17
REMARK    6  A    between atoms: N_19  and  C_20
REMARK                            x       y       z     vdW  Elec       q    Type
REMARK                         _______ _______ _______ _____ _____    ______ ____
ROOT
ATOM      1  C   UNL     1      36.487   0.002  16.238  0.00  0.00    +0.000 A 
ATOM      2  S   UNL     1      36.318  -0.844  17.708  0.00  0.00    +0.000 S 
ATOM      3  C   UNL     1      37.724  -1.796  17.636  0.00  0.00    +0.000 A 
ATOM      4  C   UNL     1      38.298  -1.427  16.453  0.00  0.00    +0.000 A 
ATOM      5  C   UNL     1      37.652  -0.490  15.724  0.00  0.00    +0.000 A 
ATOM      6  C   UNL     1      39.610  -2.060  15.994  0.00  0.00    +0.000 C 
ATOM      7  C   UNL     1      39.408  -3.515  15.698  0.00  0.00    +0.000 C 
ATOM      8  C   UNL     1      38.203  -3.986  16.481  0.00  0.00    +0.000 C 
ATOM      9  C   UNL     1      38.477  -4.065  17.952  0.00  0.00    +0.000 C 
ATOM     10  C   UNL     1      38.151  -2.789  18.686  0.00  0.00    +0.000 C 
ENDROOT
BRANCH   1  13
ATOM     11  O   UNL     1      36.825   2.640  16.710  0.00  0.00    +0.000 OA
ATOM     12  C   UNL     1      35.870   2.385  15.954  0.00  0.00    +0.000 C 
ATOM     13  N   UNL     1      35.617   1.005  15.650  0.00  0.00    +0.000 NA
BRANCH  12  14
ATOM     14  C   UNL     1      35.032   3.476  15.397  0.00  0.00    +0.000 C 
BRANCH  14  15
ATOM     15  O   UNL     1      35.827   4.251  14.536  0.00  0.00    +0.000 OA
BRANCH  15  16
ATOM     16  C   UNL     1      35.242   5.255  13.799  0.00  0.00    +0.000 A 
ATOM     17  C   UNL     1      35.722   5.550  12.551  0.00  0.00    +0.000 A 
ATOM     18  C   UNL     1      35.173   6.548  11.770  0.00  0.00    +0.000 A 
ATOM     19  C   UNL     1      34.109   7.288  12.228  0.00  0.00    +0.000 A 
ATOM     20  C   UNL     1      33.621   6.997  13.482  0.00  0.00    +0.000 A 
ATOM     21  C   UNL     1      34.172   5.993  14.272  0.00  0.00    +0.000 A 
ENDBRANCH  15  16
ENDBRANCH  14  15
ENDBRANCH  12  14
ENDBRANCH   1  13
BRANCH   5  22
ATOM     22  C   UNL     1      38.170  -0.003  14.421  0.00  0.00    +0.000 C 
ATOM     23  O   UNL     1      38.954   0.966  14.346  0.00  0.00    +0.000 OA
ATOM     24  N   UNL     1      37.807  -0.606  13.182  0.00  0.00    +0.000 NA
BRANCH  24  25
ATOM     25  C   UNL     1      38.289  -0.157  11.937  0.00  0.00    +0.000 A 
ATOM     26  C   UNL     1      39.439  -0.603  11.334  0.00  0.00    +0.000 A 
ATOM     27  C   UNL     1      39.823  -0.088  10.093  0.00  0.00    +0.000 A 
ATOM     28  C   UNL     1      39.080   0.867   9.443  0.00  0.00    +0.000 A 
ATOM     29  C   UNL     1      37.923   1.316  10.047  0.00  0.00    +0.000 A 
ATOM     30  C   UNL     1      37.555   0.802  11.267  0.00  0.00    +0.000 A 
ENDBRANCH  24  25
ENDBRANCH   5  22
TORSDOF 6
ENDMDL
MODEL 7
REMARK VINA RESULT:      -6.5      1.663      2.574
REMARK  Name = 
REMARK  6 active torsions:
REMARK  status: ('A' for Active; 'I' for Inactive)
REMARK    1  A    between atoms: C_2  and  C_3
REMARK    2  A    between atoms: C_3  and  O_4
REMARK    3  A    between atoms: O_4  and  C_5
REMARK    4  A    between atoms: N_11  and  C_12
REMARK    5  A    between atoms: C_16  and  C_17
REMARK    6  A    between atoms: N_19  and  C_20
REMARK                            x       y       z     vdW  Elec       q    Type
REMARK                         _______ _______ _______ _____ _____    ______ ____
ROOT
ATOM      1  C   UNL     1      36.790   3.491  14.113  0.00  0.00    +0.000 A 
ATOM      2  S   UNL     1      36.662   5.174  13.871  0.00  0.00    +0.000 S 
ATOM      3  C   UNL     1      38.183   5.464  13.172  0.00  0.00    +0.000 A 
ATOM      4  C   UNL     1      38.762   4.228  13.143  0.00  0.00    +0.000 A 
ATOM      5  C   UNL     1      38.035   3.199  13.634  0.00  0.00    +0.000 A 
ATOM      6  C   UNL     1      40.167   4.039  12.578  0.00  0.00    +0.000 C 
ATOM      7  C   UNL     1      41.173   4.732  13.446  0.00  0.00    +0.000 C 
ATOM      8  C   UNL     1      40.456   5.828  14.203  0.00  0.00    +0.000 C 
ATOM      9  C   UNL     1      40.062   6.969  13.314  0.00  0.00    +0.000 C 
ATOM     10  C   UNL     1      38.686   6.812  12.721  0.00  0.00    +0.000 C 
ENDROOT
BRANCH   1  13
ATOM     11  O   UNL     1      36.495   3.211  16.783  0.00  0.00    +0.000 OA
ATOM     12  C   UNL     1      35.736   2.485  16.116  0.00  0.00    +0.000 C 
ATOM     13  N   UNL     1      35.826   2.569  14.686  0.00  0.00    +0.000 NA
BRANCH  12  14
ATOM     14  C   UNL     1      34.779   1.570  16.788  0.00  0.00    +0.000 C 
BRANCH  14  15
ATOM     15  O   UNL     1      35.466   0.867  17.792  0.00  0.00    +0.000 OA
BRANCH  15  16
ATOM     16  C   UNL     1      35.775  -0.459  17.596  0.00  0.00    +0.000 A 
ATOM     17  C   UNL     1      36.640  -1.089  18.451  0.00  0.00    +0.000 A 
ATOM     18  C   UNL     1      36.985  -2.417  18.300  0.00  0.00    +0.000 A 
ATOM     19  C   UNL     1      36.461  -3.163  17.270  0.00  0.00    +0.000 A 
ATOM     20  C   UNL     1      35.590  -2.536  16.407  0.00  0.00    +0.000 A 
ATOM     21  C   UNL     1      35.241  -1.198  16.556  0.00  0.00    +0.000 A 
ENDBRANCH  15  16
ENDBRANCH  14  15
ENDBRANCH  12  14
ENDBRANCH   1  13
BRANCH   5  22
ATOM     22  C   UNL     1      38.548   1.806  13.661  0.00  0.00    +0.000 C 
ATOM     23  O   UNL     1      38.301   0.998  12.741  0.00  0.00    +0.000 OA
ATOM     24  N   UNL     1      39.349   1.308  14.728  0.00  0.00    +0.000 NA
BRANCH  24  25
ATOM     25  C   UNL     1      39.844  -0.010  14.770  0.00  0.00    +0.000 A 
ATOM     26  C   UNL     1      41.042  -0.415  14.234  0.00  0.00    +0.000 A 
ATOM     27  C   UNL     1      41.437  -1.751  14.334  0.00  0.00    +0.000 A 
ATOM     28  C   UNL     1      40.655  -2.694  14.957  0.00  0.00    +0.000 A 
ATOM     29  C   UNL     1      39.451  -2.289  15.496  0.00  0.00    +0.000 A 
ATOM     30  C   UNL     1      39.073  -0.971  15.393  0.00  0.00    +0.000 A 
ENDBRANCH  24  25
ENDBRANCH   5  22
TORSDOF 6
ENDMDL
MODEL 8
REMARK VINA RESULT:      -6.4      2.579      7.688
REMARK  Name = 
REMARK  6 active torsions:
REMARK  status: ('A' for Active; 'I' for Inactive)
REMARK    1  A    between atoms: C_2  and  C_3
REMARK    2  A    between atoms: C_3  and  O_4
REMARK    3  A    between atoms: O_4  and  C_5
REMARK    4  A    between atoms: N_11  and  C_12
REMARK    5  A    between atoms: C_16  and  C_17
REMARK    6  A    between atoms: N_19  and  C_20
REMARK                            x       y       z     vdW  Elec       q    Type
REMARK                         _______ _______ _______ _____ _____    ______ ____
ROOT
ATOM      1  C   UNL     1      39.514  -1.564  14.893  0.00  0.00    +0.000 A 
ATOM      2  S   UNL     1      40.057  -2.919  15.775  0.00  0.00    +0.000 S 
ATOM      3  C   UNL     1      38.762  -3.069  16.865  0.00  0.00    +0.000 A 
ATOM      4  C   UNL     1      37.928  -2.048  16.511  0.00  0.00    +0.000 A 
ATOM      5  C   UNL     1      38.321  -1.262  15.483  0.00  0.00    +0.000 A 
ATOM      6  C   UNL     1      36.616  -1.820  17.259  0.00  0.00    +0.000 C 
ATOM      7  C   UNL     1      36.889  -1.403  18.672  0.00  0.00    +0.000 C 
ATOM      8  C   UNL     1      38.267  -1.902  19.046  0.00  0.00    +0.000 C 
ATOM      9  C   UNL     1      38.306  -3.391  19.211  0.00  0.00    +0.000 C 
ATOM     10  C   UNL     1      38.652  -4.122  17.939  0.00  0.00    +0.000 C 
ENDROOT
BRANCH   1  13
ATOM     11  O   UNL     1      39.447  -2.549  12.379  0.00  0.00    +0.000 OA
ATOM     12  C   UNL     1      40.063  -1.472  12.479  0.00  0.00    +0.000 C 
ATOM     13  N   UNL     1      40.148  -0.877  13.782  0.00  0.00    +0.000 NA
BRANCH  12  14
ATOM     14  C   UNL     1      40.680  -0.839  11.286  0.00  0.00    +0.000 C 
BRANCH  14  15
ATOM     15  O   UNL     1      39.654  -0.449  10.409  0.00  0.00    +0.000 OA
BRANCH  15  16
ATOM     16  C   UNL     1      39.136   0.822  10.500  0.00  0.00    +0.000 A 
ATOM     17  C   UNL     1      39.932   1.902  10.225  0.00  0.00    +0.000 A 
ATOM     18  C   UNL     1      39.463   3.198  10.301  0.00  0.00    +0.000 A 
ATOM     19  C   UNL     1      38.160   3.450  10.662  0.00  0.00    +0.000 A 
ATOM     20  C   UNL     1      37.354   2.369  10.939  0.00  0.00    +0.000 A 
ATOM     21  C   UNL     1      37.823   1.061  10.864  0.00  0.00    +0.000 A 
ENDBRANCH  15  16
ENDBRANCH  14  15
ENDBRANCH  12  14
ENDBRANCH   1  13
BRANCH   5  22
ATOM     22  C   UNL     1      37.506  -0.119  15.001  0.00  0.00    +0.000 C 
ATOM     23  O   UNL     1      36.788  -0.207  13.982  0.00  0.00    +0.000 OA
ATOM     24  N   UNL     1      37.491   1.141  15.666  0.00  0.00    +0.000 NA
BRANCH  24  25
ATOM     25  C   UNL     1      36.723   2.236  15.222  0.00  0.00    +0.000 A 
ATOM     26  C   UNL     1      37.201   3.267  14.452  0.00  0.00    +0.000 A 
ATOM     27  C   UNL     1      36.349   4.305  14.067  0.00  0.00    +0.000 A 
ATOM     28  C   UNL     1      35.027   4.334  14.438  0.00  0.00    +0.000 A 
ATOM     29  C   UNL     1      34.545   3.298  15.213  0.00  0.00    +0.000 A 
ATOM     30  C   UNL     1      35.392   2.282  15.585  0.00  0.00    +0.000 A 
ENDBRANCH  24  25
ENDBRANCH   5  22
TORSDOF 6
ENDMDL
MODEL 9
REMARK VINA RESULT:      -6.3      3.442      7.266
REMARK  Name = 
REMARK  6 active torsions:
REMARK  status: ('A' for Active; 'I' for Inactive)
REMARK    1  A    between atoms: C_2  and  C_3
REMARK    2  A    between atoms: C_3  and  O_4
REMARK    3  A    between atoms: O_4  and  C_5
REMARK    4  A    between atoms: N_11  and  C_12
REMARK    5  A    between atoms: C_16  and  C_17
REMARK    6  A    between atoms: N_19  and  C_20
REMARK                            x       y       z     vdW  Elec       q    Type
REMARK                         _______ _______ _______ _____ _____    ______ ____
ROOT
ATOM      1  C   UNL     1      36.533   0.711  13.746  0.00  0.00    +0.000 A 
ATOM      2  S   UNL     1      35.658   1.495  14.981  0.00  0.00    +0.000 S 
ATOM      3  C   UNL     1      36.007   0.445  16.271  0.00  0.00    +0.000 A 
ATOM      4  C   UNL     1      36.807  -0.504  15.701  0.00  0.00    +0.000 A 
ATOM      5  C   UNL     1      37.081  -0.365  14.384  0.00  0.00    +0.000 A 
ATOM      6  C   UNL     1      37.356  -1.661  16.533  0.00  0.00    +0.000 C 
ATOM      7  C   UNL     1      36.238  -2.554  16.979  0.00  0.00    +0.000 C 
ATOM      8  C   UNL     1      34.964  -1.739  16.979  0.00  0.00    +0.000 C 
ATOM      9  C   UNL     1      34.936  -0.728  18.084  0.00  0.00    +0.000 C 
ATOM     10  C   UNL     1      35.503   0.609  17.682  0.00  0.00    +0.000 C 
ENDROOT
BRANCH   1  13
ATOM     11  O   UNL     1      38.373   2.506  12.920  0.00  0.00    +0.000 OA
ATOM     12  C   UNL     1      37.681   2.038  11.998  0.00  0.00    +0.000 C 
ATOM     13  N   UNL     1      36.676   1.075  12.348  0.00  0.00    +0.000 NA
BRANCH  12  14
ATOM     14  C   UNL     1      37.897   2.468  10.593  0.00  0.00    +0.000 C 
BRANCH  14  15
ATOM     15  O   UNL     1      37.121   1.651   9.754  0.00  0.00    +0.000 OA
BRANCH  15  16
ATOM     16  C   UNL     1      36.639   2.164   8.571  0.00  0.00    +0.000 A 
ATOM     17  C   UNL     1      36.765   1.440   7.416  0.00  0.00    +0.000 A 
ATOM     18  C   UNL     1      36.301   1.907   6.202  0.00  0.00    +0.000 A 
ATOM     19  C   UNL     1      35.685   3.134   6.114  0.00  0.00    +0.000 A 
ATOM     20  C   UNL     1      35.555   3.867   7.273  0.00  0.00    +0.000 A 
ATOM     21  C   UNL     1      36.022   3.399   8.497  0.00  0.00    +0.000 A 
ENDBRANCH  15  16
ENDBRANCH  14  15
ENDBRANCH  12  14
ENDBRANCH   1  13
BRANCH   5  22
ATOM     22  C   UNL     1      37.936  -1.328  13.646  0.00  0.00    +0.000 C 
ATOM     23  O   UNL     1      37.553  -2.490  13.397  0.00  0.00    +0.000 OA
ATOM     24  N   UNL     1      39.238  -0.988  13.178  0.00  0.00    +0.000 NA
BRANCH  24  25
ATOM     25  C   UNL     1      40.063  -1.889  12.477  0.00  0.00    +0.000 A 
ATOM     26  C   UNL     1      41.007  -2.702  13.056  0.00  0.00    +0.000 A 
ATOM     27  C   UNL     1      41.771  -3.561  12.262  0.00  0.00    +0.000 A 
ATOM     28  C   UNL     1      41.614  -3.622  10.899  0.00  0.00    +0.000 A 
ATOM     29  C   UNL     1      40.666  -2.806  10.315  0.00  0.00    +0.000 A 
ATOM     30  C   UNL     1      39.919  -1.966  11.105  0.00  0.00    +0.000 A 
ENDBRANCH  24  25
ENDBRANCH   5  22
TORSDOF 6
ENDMDL
MODEL 10
REMARK VINA RESULT:      -6.3      2.327      3.589
REMARK  Name = 
REMARK  6 active torsions:
REMARK  status: ('A' for Active; 'I' for Inactive)
REMARK    1  A    between atoms: C_2  and  C_3
REMARK    2  A    between atoms: C_3  and  O_4
REMARK    3  A    between atoms: O_4  and  C_5
REMARK    4  A    between atoms: N_11  and  C_12
REMARK    5  A    between atoms: C_16  and  C_17
REMARK    6  A    between atoms: N_19  and  C_20
REMARK                            x       y       z     vdW  Elec       q    Type
REMARK                         _______ _______ _______ _____ _____    ______ ____
ROOT
ATOM      1  C   UNL     1      37.162   3.055  13.158  0.00  0.00    +0.000 A 
ATOM      2  S   UNL     1      37.164   4.403  12.115  0.00  0.00    +0.000 S 
ATOM      3  C   UNL     1      38.203   3.810  10.907  0.00  0.00    +0.000 A 
ATOM      4  C   UNL     1      38.526   2.560  11.352  0.00  0.00    +0.000 A 
ATOM      5  C   UNL     1      37.984   2.167  12.526  0.00  0.00    +0.000 A 
ATOM      6  C   UNL     1      39.462   1.664  10.543  0.00  0.00    +0.000 C 
ATOM      7  C   UNL     1      40.841   2.250  10.510  0.00  0.00    +0.000 C 
ATOM      8  C   UNL     1      40.719   3.739  10.751  0.00  0.00    +0.000 C 
ATOM      9  C   UNL     1      40.112   4.456   9.584  0.00  0.00    +0.000 C 
ATOM     10  C   UNL     1      38.611   4.565   9.669  0.00  0.00    +0.000 C 
ENDROOT
BRANCH   1  13
ATOM     11  O   UNL     1      38.333   3.601  15.530  0.00  0.00    +0.000 OA
ATOM     12  C   UNL     1      37.164   3.185  15.632  0.00  0.00    +0.000 C 
ATOM     13  N   UNL     1      36.466   2.870  14.419  0.00  0.00    +0.000 NA
BRANCH  12  14
ATOM     14  C   UNL     1      36.530   3.027  16.965  0.00  0.00    +0.000 C 
BRANCH  14  15
ATOM     15  O   UNL     1      35.436   2.154  16.836  0.00  0.00    +0.000 OA
BRANCH  15  16
ATOM     16  C   UNL     1      35.579   0.835  17.202  0.00  0.00    +0.000 A 
ATOM     17  C   UNL     1      35.181  -0.155  16.344  0.00  0.00    +0.000 A 
ATOM     18  C   UNL     1      35.301  -1.493  16.661  0.00  0.00    +0.000 A 
ATOM     19  C   UNL     1      35.834  -1.880  17.869  0.00  0.00    +0.000 A 
ATOM     20  C   UNL     1      36.237  -0.890  18.736  0.00  0.00    +0.000 A 
ATOM     21  C   UNL     1      36.117   0.460  18.420  0.00  0.00    +0.000 A 
ENDBRANCH  15  16
ENDBRANCH  14  15
ENDBRANCH  12  14
ENDBRANCH   1  13
BRANCH   5  22
ATOM     22  C   UNL     1      38.256   0.833  13.119  0.00  0.00    +0.000 C 
ATOM     23  O   UNL     1      37.613  -0.181  12.777  0.00  0.00    +0.000 OA
ATOM     24  N   UNL     1      39.260   0.629  14.108  0.00  0.00    +0.000 NA
BRANCH  24  25
ATOM     25  C   UNL     1      39.532  -0.629  14.681  0.00  0.00    +0.000 A 
ATOM     26  C   UNL     1      38.823  -1.189  15.717  0.00  0.00    +0.000 A 
ATOM     27  C   UNL     1      39.180  -2.447  16.208  0.00  0.00    +0.000 A 
ATOM     28  C   UNL     1      40.232  -3.158  15.686  0.00  0.00    +0.000 A 
ATOM     29  C   UNL     1      40.945  -2.599  14.645  0.00  0.00    +0.000 A 
ATOM     30  C   UNL     1      40.586  -1.360  14.169  0.00  0.00    +0.000 A 
ENDBRANCH  24  25
ENDBRANCH   5  22
TORSDOF 6
ENDMDL
